MODEL 1
REMARK VINA RESULT:      -8.9      0.000      0.000
REMARK  Name = 
REMARK  2 active torsions:
REMARK  status: ('A' for Active; 'I' for Inactive)
REMARK    1  A    between atoms: C_5  and  C_7
REMARK    2  A    between atoms: C_10  and  C_11
REMARK                            x       y       z     vdW  Elec       q    Type
REMARK                         _______ _______ _______ _____ _____    ______ ____
ROOT
ATOM      1  C   UNL     1       5.032   5.299  17.477  0.00  0.00    +0.000 A 
ATOM      2  C   UNL     1       4.226   6.278  18.022  0.00  0.00    +0.000 A 
ATOM      3  C   UNL     1       3.315   5.819  19.042  0.00  0.00    +0.000 A 
ATOM      4  C   UNL     1       2.250   6.485  19.744  0.00  0.00    +0.000 A 
ATOM      5  C   UNL     1       1.560   5.733  20.722  0.00  0.00    +0.000 A 
ATOM      6  C   UNL     1       1.915   4.430  21.051  0.00  0.00    +0.000 A 
ATOM      7  C   UNL     1       2.932   3.783  20.360  0.00  0.00    +0.000 A 
ATOM      8  C   UNL     1       3.605   4.480  19.339  0.00  0.00    +0.000 A 
ATOM      9  S   UNL     1       4.832   3.830  18.306  0.00  0.00    +0.000 S 
ENDROOT
BRANCH   1  14
ATOM     10  N   UNL     1       6.422   3.579  13.389  0.00  0.00    +0.000 NA
ATOM     11  C   UNL     1       6.677   4.516  14.226  0.00  0.00    +0.000 C 
ATOM     12  N   UNL     1       7.664   5.418  14.044  0.00  0.00    +0.000 N 
ATOM     13  N   UNL     1       5.883   4.555  15.332  0.00  0.00    +0.000 N 
ATOM     14  C   UNL     1       5.929   5.495  16.348  0.00  0.00    +0.000 C 
ATOM     15  O   UNL     1       6.668   6.482  16.276  0.00  0.00    +0.000 OA
ATOM     16  H   UNL     1       7.100   3.635  12.621  0.00  0.00    +0.000 HD
ATOM     17  H   UNL     1       7.937   5.639  13.095  0.00  0.00    +0.000 HD
ATOM     18  H   UNL     1       7.613   6.237  14.653  0.00  0.00    +0.000 HD
ATOM     19  H   UNL     1       5.215   3.803  15.388  0.00  0.00    +0.000 HD
ENDBRANCH   1  14
BRANCH   4  20
ATOM     20  C   UNL     1       1.865   7.893  19.413  0.00  0.00    +0.000 A 
ATOM     21  C   UNL     1       2.005   8.362  18.085  0.00  0.00    +0.000 A 
ATOM     22  C   UNL     1       1.723   9.682  17.713  0.00  0.00    +0.000 A 
ATOM     23  C   UNL     1       1.201  10.566  18.644  0.00  0.00    +0.000 A 
ATOM     24  C   UNL     1       0.988  10.131  19.947  0.00  0.00    +0.000 A 
ATOM     25  C   UNL     1       1.341   8.827  20.339  0.00  0.00    +0.000 A 
ATOM     26 CL   UNL     1       1.135   8.492  22.029  0.00  0.00    +0.000 Cl
ENDBRANCH   4  20
TORSDOF 2
ENDMDL
MODEL 2
REMARK VINA RESULT:      -8.9      4.380      6.635
REMARK  Name = 
REMARK  2 active torsions:
REMARK  status: ('A' for Active; 'I' for Inactive)
REMARK    1  A    between atoms: C_5  and  C_7
REMARK    2  A    between atoms: C_10  and  C_11
REMARK                            x       y       z     vdW  Elec       q    Type
REMARK                         _______ _______ _______ _____ _____    ______ ____
ROOT
ATOM      1  C   UNL     1       2.042   6.423  19.810  0.00  0.00    +0.000 A 
ATOM      2  C   UNL     1       2.925   5.966  18.854  0.00  0.00    +0.000 A 
ATOM      3  C   UNL     1       3.113   4.535  18.832  0.00  0.00    +0.000 A 
ATOM      4  C   UNL     1       4.022   3.701  18.091  0.00  0.00    +0.000 A 
ATOM      5  C   UNL     1       3.918   2.306  18.293  0.00  0.00    +0.000 A 
ATOM      6  C   UNL     1       2.952   1.740  19.116  0.00  0.00    +0.000 A 
ATOM      7  C   UNL     1       2.087   2.548  19.843  0.00  0.00    +0.000 A 
ATOM      8  C   UNL     1       2.198   3.945  19.713  0.00  0.00    +0.000 A 
ATOM      9  S   UNL     1       1.282   5.121  20.594  0.00  0.00    +0.000 S 
ENDROOT
BRANCH   1  14
ATOM     10  N   UNL     1       1.090   9.475  23.185  0.00  0.00    +0.000 NA
ATOM     11  C   UNL     1       1.229   9.391  21.913  0.00  0.00    +0.000 C 
ATOM     12  N   UNL     1       1.074  10.444  21.084  0.00  0.00    +0.000 N 
ATOM     13  N   UNL     1       1.546   8.156  21.432  0.00  0.00    +0.000 N 
ATOM     14  C   UNL     1       1.794   7.825  20.110  0.00  0.00    +0.000 C 
ATOM     15  O   UNL     1       1.847   8.690  19.230  0.00  0.00    +0.000 OA
ATOM     16  H   UNL     1       0.825  10.437  23.421  0.00  0.00    +0.000 HD
ATOM     17  H   UNL     1       1.261  11.369  21.450  0.00  0.00    +0.000 HD
ATOM     18  H   UNL     1       1.434  10.301  20.138  0.00  0.00    +0.000 HD
ATOM     19  H   UNL     1       1.584   7.436  22.135  0.00  0.00    +0.000 HD
ENDBRANCH   1  14
BRANCH   4  20
ATOM     20  C   UNL     1       5.059   4.294  17.189  0.00  0.00    +0.000 A 
ATOM     21  C   UNL     1       4.952   4.118  15.789  0.00  0.00    +0.000 A 
ATOM     22  C   UNL     1       5.915   4.590  14.889  0.00  0.00    +0.000 A 
ATOM     23  C   UNL     1       6.983   5.343  15.351  0.00  0.00    +0.000 A 
ATOM     24  C   UNL     1       7.096   5.594  16.714  0.00  0.00    +0.000 A 
ATOM     25  C   UNL     1       6.169   5.057  17.626  0.00  0.00    +0.000 A 
ATOM     26 CL   UNL     1       6.533   5.354  19.296  0.00  0.00    +0.000 Cl
ENDBRANCH   4  20
TORSDOF 2
ENDMDL
MODEL 3
REMARK VINA RESULT:      -8.8      4.142      6.498
REMARK  Name = 
REMARK  2 active torsions:
REMARK  status: ('A' for Active; 'I' for Inactive)
REMARK    1  A    between atoms: C_5  and  C_7
REMARK    2  A    between atoms: C_10  and  C_11
REMARK                            x       y       z     vdW  Elec       q    Type
REMARK                         _______ _______ _______ _____ _____    ______ ____
ROOT
ATOM      1  C   UNL     1       2.250   7.367  18.925  0.00  0.00    +0.000 A 
ATOM      2  C   UNL     1       3.111   6.570  18.198  0.00  0.00    +0.000 A 
ATOM      3  C   UNL     1       3.425   5.300  18.806  0.00  0.00    +0.000 A 
ATOM      4  C   UNL     1       4.357   4.267  18.439  0.00  0.00    +0.000 A 
ATOM      5  C   UNL     1       4.391   3.115  19.256  0.00  0.00    +0.000 A 
ATOM      6  C   UNL     1       3.531   2.938  20.334  0.00  0.00    +0.000 A 
ATOM      7  C   UNL     1       2.643   3.944  20.697  0.00  0.00    +0.000 A 
ATOM      8  C   UNL     1       2.621   5.130  19.942  0.00  0.00    +0.000 A 
ATOM      9  S   UNL     1       1.659   6.530  20.279  0.00  0.00    +0.000 S 
ENDROOT
BRANCH   1  14
ATOM     10  N   UNL     1       0.167  11.242  20.427  0.00  0.00    +0.000 NA
ATOM     11  C   UNL     1       0.731  10.739  19.391  0.00  0.00    +0.000 C 
ATOM     12  N   UNL     1       0.854  11.403  18.224  0.00  0.00    +0.000 N 
ATOM     13  N   UNL     1       1.209   9.471  19.534  0.00  0.00    +0.000 N 
ATOM     14  C   UNL     1       1.897   8.737  18.582  0.00  0.00    +0.000 C 
ATOM     15  O   UNL     1       2.234   9.238  17.505  0.00  0.00    +0.000 OA
ATOM     16  H   UNL     1      -0.175  12.179  20.189  0.00  0.00    +0.000 HD
ATOM     17  H   UNL     1       0.894  12.414  18.253  0.00  0.00    +0.000 HD
ATOM     18  H   UNL     1       1.517  10.990  17.564  0.00  0.00    +0.000 HD
ATOM     19  H   UNL     1       1.015   9.054  20.431  0.00  0.00    +0.000 HD
ENDBRANCH   1  14
BRANCH   4  20
ATOM     20  C   UNL     1       5.280   4.436  17.272  0.00  0.00    +0.000 A 
ATOM     21  C   UNL     1       4.854   4.042  15.981  0.00  0.00    +0.000 A 
ATOM     22  C   UNL     1       5.683   4.112  14.855  0.00  0.00    +0.000 A 
ATOM     23  C   UNL     1       6.948   4.669  14.961  0.00  0.00    +0.000 A 
ATOM     24  C   UNL     1       7.386   5.127  16.199  0.00  0.00    +0.000 A 
ATOM     25  C   UNL     1       6.581   4.988  17.345  0.00  0.00    +0.000 A 
ATOM     26 CL   UNL     1       7.332   5.488  18.827  0.00  0.00    +0.000 Cl
ENDBRANCH   4  20
TORSDOF 2
ENDMDL
MODEL 4
REMARK VINA RESULT:      -8.4      3.879      6.151
REMARK  Name = 
REMARK  2 active torsions:
REMARK  status: ('A' for Active; 'I' for Inactive)
REMARK    1  A    between atoms: C_5  and  C_7
REMARK    2  A    between atoms: C_10  and  C_11
REMARK                            x       y       z     vdW  Elec       q    Type
REMARK                         _______ _______ _______ _____ _____    ______ ____
ROOT
ATOM      1  C   UNL     1       2.141   6.643  19.847  0.00  0.00    +0.000 A 
ATOM      2  C   UNL     1       3.019   6.095  18.936  0.00  0.00    +0.000 A 
ATOM      3  C   UNL     1       3.424   4.739  19.219  0.00  0.00    +0.000 A 
ATOM      4  C   UNL     1       4.399   3.882  18.598  0.00  0.00    +0.000 A 
ATOM      5  C   UNL     1       4.526   2.574  19.119  0.00  0.00    +0.000 A 
ATOM      6  C   UNL     1       3.715   2.096  20.142  0.00  0.00    +0.000 A 
ATOM      7  C   UNL     1       2.786   2.930  20.750  0.00  0.00    +0.000 A 
ATOM      8  C   UNL     1       2.671   4.257  20.298  0.00  0.00    +0.000 A 
ATOM      9  S   UNL     1       1.645   5.475  20.977  0.00  0.00    +0.000 S 
ENDROOT
BRANCH   1  14
ATOM     10  N   UNL     1       2.048  10.597  17.405  0.00  0.00    +0.000 NA
ATOM     11  C   UNL     1       1.730  10.112  18.549  0.00  0.00    +0.000 C 
ATOM     12  N   UNL     1       1.171  10.849  19.530  0.00  0.00    +0.000 N 
ATOM     13  N   UNL     1       1.994   8.787  18.724  0.00  0.00    +0.000 N 
ATOM     14  C   UNL     1       1.700   8.030  19.846  0.00  0.00    +0.000 C 
ATOM     15  O   UNL     1       1.050   8.499  20.786  0.00  0.00    +0.000 OA
ATOM     16  H   UNL     1       1.831  11.599  17.404  0.00  0.00    +0.000 HD
ATOM     17  H   UNL     1       0.616  11.653  19.266  0.00  0.00    +0.000 HD
ATOM     18  H   UNL     1       0.758  10.305  20.292  0.00  0.00    +0.000 HD
ATOM     19  H   UNL     1       2.460   8.351  17.945  0.00  0.00    +0.000 HD
ENDBRANCH   1  14
BRANCH   4  20
ATOM     20  C   UNL     1       5.270   4.378  17.486  0.00  0.00    +0.000 A 
ATOM     21  C   UNL     1       4.938   4.067  16.146  0.00  0.00    +0.000 A 
ATOM     22  C   UNL     1       5.738   4.443  15.060  0.00  0.00    +0.000 A 
ATOM     23  C   UNL     1       6.860   5.229  15.266  0.00  0.00    +0.000 A 
ATOM     24  C   UNL     1       7.191   5.611  16.562  0.00  0.00    +0.000 A 
ATOM     25  C   UNL     1       6.430   5.171  17.660  0.00  0.00    +0.000 A 
ATOM     26 CL   UNL     1       7.058   5.627  19.212  0.00  0.00    +0.000 Cl
ENDBRANCH   4  20
TORSDOF 2
ENDMDL
MODEL 5
REMARK VINA RESULT:      -8.1      3.351      4.818
REMARK  Name = 
REMARK  2 active torsions:
REMARK  status: ('A' for Active; 'I' for Inactive)
REMARK    1  A    between atoms: C_5  and  C_7
REMARK    2  A    between atoms: C_10  and  C_11
REMARK                            x       y       z     vdW  Elec       q    Type
REMARK                         _______ _______ _______ _____ _____    ______ ____
ROOT
ATOM      1  C   UNL     1       5.795   4.214  14.736  0.00  0.00    +0.000 A 
ATOM      2  C   UNL     1       4.955   4.185  15.831  0.00  0.00    +0.000 A 
ATOM      3  C   UNL     1       5.550   4.634  17.067  0.00  0.00    +0.000 A 
ATOM      4  C   UNL     1       5.060   4.635  18.419  0.00  0.00    +0.000 A 
ATOM      5  C   UNL     1       5.908   5.186  19.407  0.00  0.00    +0.000 A 
ATOM      6  C   UNL     1       7.136   5.761  19.101  0.00  0.00    +0.000 A 
ATOM      7  C   UNL     1       7.614   5.744  17.797  0.00  0.00    +0.000 A 
ATOM      8  C   UNL     1       6.823   5.152  16.795  0.00  0.00    +0.000 A 
ATOM      9  S   UNL     1       7.273   4.949  15.135  0.00  0.00    +0.000 S 
ENDROOT
BRANCH   1  14
ATOM     10  N   UNL     1       7.232   1.469  11.272  0.00  0.00    +0.000 NA
ATOM     11  C   UNL     1       6.291   2.279  11.590  0.00  0.00    +0.000 C 
ATOM     12  N   UNL     1       5.271   2.585  10.761  0.00  0.00    +0.000 N 
ATOM     13  N   UNL     1       6.377   2.828  12.834  0.00  0.00    +0.000 N 
ATOM     14  C   UNL     1       5.463   3.687  13.421  0.00  0.00    +0.000 C 
ATOM     15  O   UNL     1       4.391   3.959  12.870  0.00  0.00    +0.000 OA
ATOM     16  H   UNL     1       7.074   1.148  10.310  0.00  0.00    +0.000 HD
ATOM     17  H   UNL     1       4.995   1.897  10.073  0.00  0.00    +0.000 HD
ATOM     18  H   UNL     1       4.479   3.050  11.211  0.00  0.00    +0.000 HD
ATOM     19  H   UNL     1       7.207   2.570  13.343  0.00  0.00    +0.000 HD
ENDBRANCH   1  14
BRANCH   4  20
ATOM     20  C   UNL     1       3.733   4.032  18.763  0.00  0.00    +0.000 A 
ATOM     21  C   UNL     1       3.661   2.672  19.149  0.00  0.00    +0.000 A 
ATOM     22  C   UNL     1       2.451   2.025  19.425  0.00  0.00    +0.000 A 
ATOM     23  C   UNL     1       1.265   2.742  19.415  0.00  0.00    +0.000 A 
ATOM     24  C   UNL     1       1.295   4.097  19.102  0.00  0.00    +0.000 A 
ATOM     25  C   UNL     1       2.501   4.730  18.752  0.00  0.00    +0.000 A 
ATOM     26 CL   UNL     1       2.340   6.386  18.260  0.00  0.00    +0.000 Cl
ENDBRANCH   4  20
TORSDOF 2
ENDMDL
MODEL 6
REMARK VINA RESULT:      -8.0      3.742      4.956
REMARK  Name = 
REMARK  2 active torsions:
REMARK  status: ('A' for Active; 'I' for Inactive)
REMARK    1  A    between atoms: C_5  and  C_7
REMARK    2  A    between atoms: C_10  and  C_11
REMARK                            x       y       z     vdW  Elec       q    Type
REMARK                         _______ _______ _______ _____ _____    ______ ____
ROOT
ATOM      1  C   UNL     1       5.775   4.180  14.704  0.00  0.00    +0.000 A 
ATOM      2  C   UNL     1       4.915   4.138  15.782  0.00  0.00    +0.000 A 
ATOM      3  C   UNL     1       5.483   4.581  17.032  0.00  0.00    +0.000 A 
ATOM      4  C   UNL     1       4.966   4.570  18.375  0.00  0.00    +0.000 A 
ATOM      5  C   UNL     1       5.791   5.117  19.383  0.00  0.00    +0.000 A 
ATOM      6  C   UNL     1       7.022   5.701  19.105  0.00  0.00    +0.000 A 
ATOM      7  C   UNL     1       7.526   5.696  17.811  0.00  0.00    +0.000 A 
ATOM      8  C   UNL     1       6.758   5.108  16.789  0.00  0.00    +0.000 A 
ATOM      9  S   UNL     1       7.241   4.920  15.138  0.00  0.00    +0.000 S 
ENDROOT
BRANCH   1  14
ATOM     10  N   UNL     1       7.283   1.449  11.259  0.00  0.00    +0.000 NA
ATOM     11  C   UNL     1       6.338   2.260  11.559  0.00  0.00    +0.000 C 
ATOM     12  N   UNL     1       5.338   2.573  10.710  0.00  0.00    +0.000 N 
ATOM     13  N   UNL     1       6.397   2.802  12.808  0.00  0.00    +0.000 N 
ATOM     14  C   UNL     1       5.472   3.661  13.379  0.00  0.00    +0.000 C 
ATOM     15  O   UNL     1       4.414   3.939  12.805  0.00  0.00    +0.000 OA
ATOM     16  H   UNL     1       7.147   1.133  10.292  0.00  0.00    +0.000 HD
ATOM     17  H   UNL     1       5.076   1.890  10.011  0.00  0.00    +0.000 HD
ATOM     18  H   UNL     1       4.537   3.038  11.143  0.00  0.00    +0.000 HD
ATOM     19  H   UNL     1       7.214   2.539  13.335  0.00  0.00    +0.000 HD
ENDBRANCH   1  14
BRANCH   4  20
ATOM     20  C   UNL     1       3.636   3.958  18.689  0.00  0.00    +0.000 A 
ATOM     21  C   UNL     1       2.458   4.531  18.154  0.00  0.00    +0.000 A 
ATOM     22  C   UNL     1       1.177   4.052  18.453  0.00  0.00    +0.000 A 
ATOM     23  C   UNL     1       1.029   2.915  19.231  0.00  0.00    +0.000 A 
ATOM     24  C   UNL     1       2.162   2.281  19.728  0.00  0.00    +0.000 A 
ATOM     25  C   UNL     1       3.445   2.806  19.490  0.00  0.00    +0.000 A 
ATOM     26 CL   UNL     1       4.736   1.970  20.294  0.00  0.00    +0.000 Cl
ENDBRANCH   4  20
TORSDOF 2
ENDMDL
MODEL 7
REMARK VINA RESULT:      -8.0      3.598      5.008
REMARK  Name = 
REMARK  2 active torsions:
REMARK  status: ('A' for Active; 'I' for Inactive)
REMARK    1  A    between atoms: C_5  and  C_7
REMARK    2  A    between atoms: C_10  and  C_11
REMARK                            x       y       z     vdW  Elec       q    Type
REMARK                         _______ _______ _______ _____ _____    ______ ____
ROOT
ATOM      1  C   UNL     1       6.174   4.199  14.549  0.00  0.00    +0.000 A 
ATOM      2  C   UNL     1       5.220   4.099  15.541  0.00  0.00    +0.000 A 
ATOM      3  C   UNL     1       5.635   4.581  16.836  0.00  0.00    +0.000 A 
ATOM      4  C   UNL     1       4.996   4.535  18.124  0.00  0.00    +0.000 A 
ATOM      5  C   UNL     1       5.682   5.140  19.201  0.00  0.00    +0.000 A 
ATOM      6  C   UNL     1       6.890   5.808  19.036  0.00  0.00    +0.000 A 
ATOM      7  C   UNL     1       7.514   5.836  17.795  0.00  0.00    +0.000 A 
ATOM      8  C   UNL     1       6.888   5.195  16.710  0.00  0.00    +0.000 A 
ATOM      9  S   UNL     1       7.538   5.039  15.113  0.00  0.00    +0.000 S 
ENDROOT
BRANCH   1  14
ATOM     10  N   UNL     1       3.162   3.184  11.156  0.00  0.00    +0.000 NA
ATOM     11  C   UNL     1       4.402   3.080  11.467  0.00  0.00    +0.000 C 
ATOM     12  N   UNL     1       5.314   2.492  10.666  0.00  0.00    +0.000 N 
ATOM     13  N   UNL     1       4.756   3.605  12.673  0.00  0.00    +0.000 N 
ATOM     14  C   UNL     1       6.034   3.659  13.204  0.00  0.00    +0.000 C 
ATOM     15  O   UNL     1       7.019   3.306  12.548  0.00  0.00    +0.000 OA
ATOM     16  H   UNL     1       3.014   2.730  10.249  0.00  0.00    +0.000 HD
ATOM     17  H   UNL     1       5.148   2.501   9.668  0.00  0.00    +0.000 HD
ATOM     18  H   UNL     1       6.287   2.679  10.917  0.00  0.00    +0.000 HD
ATOM     19  H   UNL     1       3.985   3.971  13.208  0.00  0.00    +0.000 HD
ENDBRANCH   1  14
BRANCH   4  20
ATOM     20  C   UNL     1       3.687   3.833  18.315  0.00  0.00    +0.000 A 
ATOM     21  C   UNL     1       3.668   2.432  18.513  0.00  0.00    +0.000 A 
ATOM     22  C   UNL     1       2.481   1.700  18.638  0.00  0.00    +0.000 A 
ATOM     23  C   UNL     1       1.262   2.358  18.660  0.00  0.00    +0.000 A 
ATOM     24  C   UNL     1       1.236   3.742  18.530  0.00  0.00    +0.000 A 
ATOM     25  C   UNL     1       2.423   4.470  18.331  0.00  0.00    +0.000 A 
ATOM     26 CL   UNL     1       2.199   6.168  18.053  0.00  0.00    +0.000 Cl
ENDBRANCH   4  20
TORSDOF 2
ENDMDL
MODEL 8
REMARK VINA RESULT:      -8.0      4.738      6.862
REMARK  Name = 
REMARK  2 active torsions:
REMARK  status: ('A' for Active; 'I' for Inactive)
REMARK    1  A    between atoms: C_5  and  C_7
REMARK    2  A    between atoms: C_10  and  C_11
REMARK                            x       y       z     vdW  Elec       q    Type
REMARK                         _______ _______ _______ _____ _____    ______ ____
ROOT
ATOM      1  C   UNL     1       1.982   6.662  20.243  0.00  0.00    +0.000 A 
ATOM      2  C   UNL     1       3.086   6.340  19.481  0.00  0.00    +0.000 A 
ATOM      3  C   UNL     1       3.452   4.944  19.498  0.00  0.00    +0.000 A 
ATOM      4  C   UNL     1       4.585   4.245  18.952  0.00  0.00    +0.000 A 
ATOM      5  C   UNL     1       4.619   2.843  19.130  0.00  0.00    +0.000 A 
ATOM      6  C   UNL     1       3.588   2.144  19.747  0.00  0.00    +0.000 A 
ATOM      7  C   UNL     1       2.504   2.823  20.288  0.00  0.00    +0.000 A 
ATOM      8  C   UNL     1       2.462   4.225  20.181  0.00  0.00    +0.000 A 
ATOM      9  S   UNL     1       1.253   5.259  20.862  0.00  0.00    +0.000 S 
ENDROOT
BRANCH   1  14
ATOM     10  N   UNL     1       0.550   9.657  23.496  0.00  0.00    +0.000 NA
ATOM     11  C   UNL     1       0.697   9.543  22.228  0.00  0.00    +0.000 C 
ATOM     12  N   UNL     1       0.368  10.520  21.358  0.00  0.00    +0.000 N 
ATOM     13  N   UNL     1       1.212   8.358  21.796  0.00  0.00    +0.000 N 
ATOM     14  C   UNL     1       1.507   8.016  20.486  0.00  0.00    +0.000 C 
ATOM     15  O   UNL     1       1.414   8.840  19.571  0.00  0.00    +0.000 OA
ATOM     16  H   UNL     1       0.130  10.572  23.694  0.00  0.00    +0.000 HD
ATOM     17  H   UNL     1       0.401  11.478  21.682  0.00  0.00    +0.000 HD
ATOM     18  H   UNL     1       0.744  10.398  20.415  0.00  0.00    +0.000 HD
ATOM     19  H   UNL     1       1.370   7.684  22.527  0.00  0.00    +0.000 HD
ENDBRANCH   1  14
BRANCH   4  20
ATOM     20  C   UNL     1       5.696   4.982  18.272  0.00  0.00    +0.000 A 
ATOM     21  C   UNL     1       6.656   5.674  19.049  0.00  0.00    +0.000 A 
ATOM     22  C   UNL     1       7.686   6.434  18.483  0.00  0.00    +0.000 A 
ATOM     23  C   UNL     1       7.851   6.459  17.107  0.00  0.00    +0.000 A 
ATOM     24  C   UNL     1       6.968   5.744  16.305  0.00  0.00    +0.000 A 
ATOM     25  C   UNL     1       5.889   5.040  16.870  0.00  0.00    +0.000 A 
ATOM     26 CL   UNL     1       4.809   4.316  15.721  0.00  0.00    +0.000 Cl
ENDBRANCH   4  20
TORSDOF 2
ENDMDL
MODEL 9
REMARK VINA RESULT:      -7.9      3.921      5.063
REMARK  Name = 
REMARK  2 active torsions:
REMARK  status: ('A' for Active; 'I' for Inactive)
REMARK    1  A    between atoms: C_5  and  C_7
REMARK    2  A    between atoms: C_10  and  C_11
REMARK                            x       y       z     vdW  Elec       q    Type
REMARK                         _______ _______ _______ _____ _____    ______ ____
ROOT
ATOM      1  C   UNL     1       6.159   4.190  14.633  0.00  0.00    +0.000 A 
ATOM      2  C   UNL     1       5.186   4.106  15.607  0.00  0.00    +0.000 A 
ATOM      3  C   UNL     1       5.581   4.592  16.907  0.00  0.00    +0.000 A 
ATOM      4  C   UNL     1       4.916   4.560  18.183  0.00  0.00    +0.000 A 
ATOM      5  C   UNL     1       5.588   5.164  19.270  0.00  0.00    +0.000 A 
ATOM      6  C   UNL     1       6.806   5.818  19.125  0.00  0.00    +0.000 A 
ATOM      7  C   UNL     1       7.454   5.833  17.896  0.00  0.00    +0.000 A 
ATOM      8  C   UNL     1       6.843   5.191  16.802  0.00  0.00    +0.000 A 
ATOM      9  S   UNL     1       7.521   5.019  15.219  0.00  0.00    +0.000 S 
ENDROOT
BRANCH   1  14
ATOM     10  N   UNL     1       3.204   3.192  11.187  0.00  0.00    +0.000 NA
ATOM     11  C   UNL     1       4.436   3.075  11.523  0.00  0.00    +0.000 C 
ATOM     12  N   UNL     1       5.357   2.471  10.744  0.00  0.00    +0.000 N 
ATOM     13  N   UNL     1       4.773   3.602  12.733  0.00  0.00    +0.000 N 
ATOM     14  C   UNL     1       6.040   3.644  13.290  0.00  0.00    +0.000 C 
ATOM     15  O   UNL     1       7.033   3.274  12.655  0.00  0.00    +0.000 OA
ATOM     16  H   UNL     1       3.069   2.734  10.279  0.00  0.00    +0.000 HD
ATOM     17  H   UNL     1       5.211   2.476   9.743  0.00  0.00    +0.000 HD
ATOM     18  H   UNL     1       6.327   2.647  11.013  0.00  0.00    +0.000 HD
ATOM     19  H   UNL     1       3.996   3.981  13.250  0.00  0.00    +0.000 HD
ENDBRANCH   1  14
BRANCH   4  20
ATOM     20  C   UNL     1       3.597   3.872  18.353  0.00  0.00    +0.000 A 
ATOM     21  C   UNL     1       2.444   4.409  17.733  0.00  0.00    +0.000 A 
ATOM     22  C   UNL     1       1.168   3.856  17.897  0.00  0.00    +0.000 A 
ATOM     23  C   UNL     1       1.009   2.684  18.619  0.00  0.00    +0.000 A 
ATOM     24  C   UNL     1       2.125   2.087  19.195  0.00  0.00    +0.000 A 
ATOM     25  C   UNL     1       3.396   2.682  19.093  0.00  0.00    +0.000 A 
ATOM     26 CL   UNL     1       4.651   1.879  19.982  0.00  0.00    +0.000 Cl
ENDBRANCH   4  20
TORSDOF 2
ENDMDL
