MODEL 1
REMARK VINA RESULT:      -7.9      0.000      0.000
REMARK  Name = 
REMARK  10 active torsions:
REMARK  status: ('A' for Active; 'I' for Inactive)
REMARK    1  A    between atoms: C_1  and  C_2
REMARK    2  A    between atoms: C_2  and  C_3
REMARK    3  A    between atoms: C_2  and  N_4
REMARK    4  A    between atoms: C_5  and  C_7
REMARK    5  A    between atoms: C_12  and  C_13
REMARK    6  A    between atoms: C_16  and  C_17
REMARK    7  A    between atoms: C_21  and  C_22
REMARK    8  A    between atoms: N_24  and  C_25
REMARK    9  A    between atoms: C_25  and  C_26
REMARK   10  A    between atoms: C_25  and  C_27
REMARK                            x       y       z     vdW  Elec       q    Type
REMARK                         _______ _______ _______ _____ _____    ______ ____
ROOT
ATOM      1  C   UNL     1       1.458   7.707  20.783  0.00  0.00    +0.000 A 
ATOM      2  C   UNL     1       1.248   6.447  21.317  0.00  0.00    +0.000 A 
ATOM      3  C   UNL     1       2.042   5.544  20.578  0.00  0.00    +0.000 A 
ATOM      4  C   UNL     1       2.713   6.277  19.614  0.00  0.00    +0.000 A 
ATOM      5  O   UNL     1       2.353   7.602  19.745  0.00  0.00    +0.000 OA
ENDROOT
BRANCH   1  11
ATOM      6  C   UNL     1      -0.717  13.087  22.043  0.00  0.00    +0.000 A 
ATOM      7  C   UNL     1      -1.461  12.384  23.006  0.00  0.00    +0.000 A 
ATOM      8  C   UNL     1      -1.330  11.001  23.184  0.00  0.00    +0.000 A 
ATOM      9  C   UNL     1      -0.426  10.348  22.346  0.00  0.00    +0.000 A 
ATOM     10  N   UNL     1      -0.057   9.034  22.216  0.00  0.00    +0.000 N 
ATOM     11  C   UNL     1       0.869   8.942  21.212  0.00  0.00    +0.000 A 
ATOM     12  N   UNL     1       1.131  10.128  20.700  0.00  0.00    +0.000 NA
ATOM     13  C   UNL     1       0.328  11.011  21.382  0.00  0.00    +0.000 A 
ATOM     14  C   UNL     1       0.190  12.400  21.218  0.00  0.00    +0.000 A 
ATOM     15  H   UNL     1      -0.414   8.254  22.749  0.00  0.00    +0.000 HD
BRANCH   6  17
ATOM     16  N   UNL     1      -1.533  14.987  20.851  0.00  0.00    +0.000 NA
ATOM     17  C   UNL     1      -0.927  14.578  21.913  0.00  0.00    +0.000 C 
ATOM     18  N   UNL     1      -0.486  15.379  22.937  0.00  0.00    +0.000 N 
ATOM     19  H   UNL     1      -0.894  16.301  22.988  0.00  0.00    +0.000 HD
ATOM     20  H   UNL     1      -0.428  14.934  23.845  0.00  0.00    +0.000 HD
BRANCH  16  22
ATOM     21  C   UNL     1      -1.053  16.823  19.343  0.00  0.00    +0.000 C 
ATOM     22  C   UNL     1      -1.784  16.409  20.618  0.00  0.00    +0.000 C 
ATOM     23  C   UNL     1      -3.285  16.626  20.458  0.00  0.00    +0.000 C 
ENDBRANCH  16  22
ENDBRANCH   6  17
ENDBRANCH   1  11
BRANCH   4  24
ATOM     24  C   UNL     1       3.612   5.788  18.613  0.00  0.00    +0.000 A 
ATOM     25  N   UNL     1       3.292   5.523  17.363  0.00  0.00    +0.000 NA
ATOM     26  C   UNL     1       4.469   5.160  16.745  0.00  0.00    +0.000 A 
ATOM     27  C   UNL     1       4.712   4.795  15.409  0.00  0.00    +0.000 A 
ATOM     28  C   UNL     1       6.027   4.488  15.017  0.00  0.00    +0.000 A 
ATOM     29  C   UNL     1       7.073   4.543  15.950  0.00  0.00    +0.000 A 
ATOM     30  C   UNL     1       6.846   4.900  17.289  0.00  0.00    +0.000 A 
ATOM     31  C   UNL     1       5.529   5.198  17.645  0.00  0.00    +0.000 A 
ATOM     32  N   UNL     1       4.949   5.570  18.833  0.00  0.00    +0.000 N 
ATOM     33  H   UNL     1       5.419   5.698  19.715  0.00  0.00    +0.000 HD
BRANCH  28  34
ATOM     34  C   UNL     1       6.319   4.085  13.592  0.00  0.00    +0.000 C 
ATOM     35  N   UNL     1       7.530   4.464  13.060  0.00  0.00    +0.000 N 
ATOM     36  N   UNL     1       5.415   3.405  12.972  0.00  0.00    +0.000 NA
ATOM     37  H   UNL     1       8.303   4.499  13.716  0.00  0.00    +0.000 HD
ATOM     38  H   UNL     1       7.798   3.993  12.205  0.00  0.00    +0.000 HD
BRANCH  36  39
ATOM     39  C   UNL     1       5.584   3.003  11.574  0.00  0.00    +0.000 C 
ATOM     40  C   UNL     1       6.058   1.554  11.514  0.00  0.00    +0.000 C 
ATOM     41  C   UNL     1       4.236   3.142  10.870  0.00  0.00    +0.000 C 
ENDBRANCH  36  39
ENDBRANCH  28  34
ENDBRANCH   4  24
TORSDOF 6
ENDMDL
MODEL 2
REMARK VINA RESULT:      -7.9      1.935      2.765
REMARK  Name = 
REMARK  10 active torsions:
REMARK  status: ('A' for Active; 'I' for Inactive)
REMARK    1  A    between atoms: C_1  and  C_2
REMARK    2  A    between atoms: C_2  and  C_3
REMARK    3  A    between atoms: C_2  and  N_4
REMARK    4  A    between atoms: C_5  and  C_7
REMARK    5  A    between atoms: C_12  and  C_13
REMARK    6  A    between atoms: C_16  and  C_17
REMARK    7  A    between atoms: C_21  and  C_22
REMARK    8  A    between atoms: N_24  and  C_25
REMARK    9  A    between atoms: C_25  and  C_26
REMARK   10  A    between atoms: C_25  and  C_27
REMARK                            x       y       z     vdW  Elec       q    Type
REMARK                         _______ _______ _______ _____ _____    ______ ____
ROOT
ATOM      1  C   UNL     1       0.918   9.343  20.344  0.00  0.00    +0.000 A 
ATOM      2  C   UNL     1       1.007   8.389  21.343  0.00  0.00    +0.000 A 
ATOM      3  C   UNL     1       1.749   7.308  20.820  0.00  0.00    +0.000 A 
ATOM      4  C   UNL     1       2.089   7.630  19.518  0.00  0.00    +0.000 A 
ATOM      5  O   UNL     1       1.579   8.879  19.232  0.00  0.00    +0.000 OA
ENDROOT
BRANCH   1  11
ATOM      6  C   UNL     1      -2.141  14.374  21.113  0.00  0.00    +0.000 A 
ATOM      7  C   UNL     1      -1.182  14.903  20.234  0.00  0.00    +0.000 A 
ATOM      8  C   UNL     1      -0.163  14.116  19.682  0.00  0.00    +0.000 A 
ATOM      9  C   UNL     1      -0.141  12.773  20.058  0.00  0.00    +0.000 A 
ATOM     10  N   UNL     1       0.695  11.731  19.748  0.00  0.00    +0.000 N 
ATOM     11  C   UNL     1       0.262  10.617  20.414  0.00  0.00    +0.000 A 
ATOM     12  N   UNL     1      -0.817  10.878  21.124  0.00  0.00    +0.000 NA
ATOM     13  C   UNL     1      -1.076  12.214  20.925  0.00  0.00    +0.000 A 
ATOM     14  C   UNL     1      -2.095  13.014  21.466  0.00  0.00    +0.000 A 
ATOM     15  H   UNL     1       1.505  11.770  19.147  0.00  0.00    +0.000 HD
BRANCH   6  17
ATOM     16  N   UNL     1      -3.897  14.852  22.659  0.00  0.00    +0.000 NA
ATOM     17  C   UNL     1      -3.201  15.297  21.668  0.00  0.00    +0.000 C 
ATOM     18  N   UNL     1      -3.328  16.541  21.102  0.00  0.00    +0.000 N 
ATOM     19  H   UNL     1      -3.800  17.239  21.659  0.00  0.00    +0.000 HD
ATOM     20  H   UNL     1      -2.493  16.906  20.658  0.00  0.00    +0.000 HD
BRANCH  16  22
ATOM     21  C   UNL     1      -6.112  14.734  23.636  0.00  0.00    +0.000 C 
ATOM     22  C   UNL     1      -4.953  15.658  23.270  0.00  0.00    +0.000 C 
ATOM     23  C   UNL     1      -4.399  16.329  24.523  0.00  0.00    +0.000 C 
ENDBRANCH  16  22
ENDBRANCH   6  17
ENDBRANCH   1  11
BRANCH   4  24
ATOM     24  C   UNL     1       2.817   6.829  18.582  0.00  0.00    +0.000 A 
ATOM     25  N   UNL     1       3.678   7.284  17.694  0.00  0.00    +0.000 NA
ATOM     26  C   UNL     1       4.195   6.170  17.070  0.00  0.00    +0.000 A 
ATOM     27  C   UNL     1       5.166   6.072  16.057  0.00  0.00    +0.000 A 
ATOM     28  C   UNL     1       5.544   4.796  15.601  0.00  0.00    +0.000 A 
ATOM     29  C   UNL     1       4.955   3.647  16.149  0.00  0.00    +0.000 A 
ATOM     30  C   UNL     1       3.981   3.729  17.156  0.00  0.00    +0.000 A 
ATOM     31  C   UNL     1       3.628   5.010  17.586  0.00  0.00    +0.000 A 
ATOM     32  N   UNL     1       2.732   5.461  18.524  0.00  0.00    +0.000 N 
ATOM     33  H   UNL     1       2.132   4.893  19.102  0.00  0.00    +0.000 HD
BRANCH  28  34
ATOM     34  C   UNL     1       6.577   4.658  14.509  0.00  0.00    +0.000 C 
ATOM     35  N   UNL     1       7.773   5.317  14.679  0.00  0.00    +0.000 N 
ATOM     36  N   UNL     1       6.270   3.924  13.493  0.00  0.00    +0.000 NA
ATOM     37  H   UNL     1       8.096   5.393  15.638  0.00  0.00    +0.000 HD
ATOM     38  H   UNL     1       8.522   5.027  14.063  0.00  0.00    +0.000 HD
BRANCH  36  39
ATOM     39  C   UNL     1       7.187   3.762  12.363  0.00  0.00    +0.000 C 
ATOM     40  C   UNL     1       6.743   2.576  11.512  0.00  0.00    +0.000 C 
ATOM     41  C   UNL     1       7.152   5.044  11.532  0.00  0.00    +0.000 C 
ENDBRANCH  36  39
ENDBRANCH  28  34
ENDBRANCH   4  24
TORSDOF 6
ENDMDL
MODEL 3
REMARK VINA RESULT:      -7.9      1.477     12.733
REMARK  Name = 
REMARK  10 active torsions:
REMARK  status: ('A' for Active; 'I' for Inactive)
REMARK    1  A    between atoms: C_1  and  C_2
REMARK    2  A    between atoms: C_2  and  C_3
REMARK    3  A    between atoms: C_2  and  N_4
REMARK    4  A    between atoms: C_5  and  C_7
REMARK    5  A    between atoms: C_12  and  C_13
REMARK    6  A    between atoms: C_16  and  C_17
REMARK    7  A    between atoms: C_21  and  C_22
REMARK    8  A    between atoms: N_24  and  C_25
REMARK    9  A    between atoms: C_25  and  C_26
REMARK   10  A    between atoms: C_25  and  C_27
REMARK                            x       y       z     vdW  Elec       q    Type
REMARK                         _______ _______ _______ _____ _____    ______ ____
ROOT
ATOM      1  C   UNL     1       2.594   6.519  19.682  0.00  0.00    +0.000 A 
ATOM      2  C   UNL     1       1.956   5.792  20.672  0.00  0.00    +0.000 A 
ATOM      3  C   UNL     1       1.110   6.685  21.364  0.00  0.00    +0.000 A 
ATOM      4  C   UNL     1       1.258   7.931  20.780  0.00  0.00    +0.000 A 
ATOM      5  O   UNL     1       2.167   7.824  19.749  0.00  0.00    +0.000 OA
ENDROOT
BRANCH   1  11
ATOM      6  C   UNL     1       6.134   4.739  15.259  0.00  0.00    +0.000 A 
ATOM      7  C   UNL     1       7.045   4.495  16.301  0.00  0.00    +0.000 A 
ATOM      8  C   UNL     1       6.720   4.728  17.643  0.00  0.00    +0.000 A 
ATOM      9  C   UNL     1       5.443   5.226  17.897  0.00  0.00    +0.000 A 
ATOM     10  N   UNL     1       4.794   5.586  19.051  0.00  0.00    +0.000 N 
ATOM     11  C   UNL     1       3.544   6.034  18.722  0.00  0.00    +0.000 A 
ATOM     12  N   UNL     1       3.343   5.966  17.422  0.00  0.00    +0.000 NA
ATOM     13  C   UNL     1       4.514   5.479  16.891  0.00  0.00    +0.000 A 
ATOM     14  C   UNL     1       4.852   5.236  15.550  0.00  0.00    +0.000 A 
ATOM     15  H   UNL     1       5.170   5.550  19.987  0.00  0.00    +0.000 HD
BRANCH   6  17
ATOM     16  N   UNL     1       5.833   3.668  13.146  0.00  0.00    +0.000 NA
ATOM     17  C   UNL     1       6.571   4.468  13.837  0.00  0.00    +0.000 C 
ATOM     18  N   UNL     1       7.697   5.108  13.381  0.00  0.00    +0.000 N 
ATOM     19  H   UNL     1       7.799   5.168  12.377  0.00  0.00    +0.000 HD
ATOM     20  H   UNL     1       7.919   5.983  13.841  0.00  0.00    +0.000 HD
BRANCH  16  22
ATOM     21  C   UNL     1       6.915   2.001  11.760  0.00  0.00    +0.000 C 
ATOM     22  C   UNL     1       6.165   3.331  11.763  0.00  0.00    +0.000 C 
ATOM     23  C   UNL     1       4.873   3.208  10.961  0.00  0.00    +0.000 C 
ENDBRANCH  16  22
ENDBRANCH   6  17
ENDBRANCH   1  11
BRANCH   4  24
ATOM     24  C   UNL     1       0.623   9.156  21.162  0.00  0.00    +0.000 A 
ATOM     25  N   UNL     1      -0.375   9.264  22.016  0.00  0.00    +0.000 NA
ATOM     26  C   UNL     1      -0.612  10.616  22.144  0.00  0.00    +0.000 A 
ATOM     27  C   UNL     1      -1.550  11.296  22.941  0.00  0.00    +0.000 A 
ATOM     28  C   UNL     1      -1.574  12.702  22.909  0.00  0.00    +0.000 A 
ATOM     29  C   UNL     1      -0.677  13.406  22.093  0.00  0.00    +0.000 A 
ATOM     30  C   UNL     1       0.261  12.741  21.288  0.00  0.00    +0.000 A 
ATOM     31  C   UNL     1       0.259  11.345  21.341  0.00  0.00    +0.000 A 
ATOM     32  N   UNL     1       1.011  10.389  20.704  0.00  0.00    +0.000 N 
ATOM     33  H   UNL     1       1.750  10.554  20.038  0.00  0.00    +0.000 HD
BRANCH  28  34
ATOM     34  C   UNL     1      -2.575  13.461  23.746  0.00  0.00    +0.000 C 
ATOM     35  N   UNL     1      -3.568  12.735  24.363  0.00  0.00    +0.000 N 
ATOM     36  N   UNL     1      -2.427  14.740  23.832  0.00  0.00    +0.000 NA
ATOM     37  H   UNL     1      -3.304  11.801  24.660  0.00  0.00    +0.000 HD
ATOM     38  H   UNL     1      -4.074  13.221  25.092  0.00  0.00    +0.000 HD
BRANCH  36  39
ATOM     39  C   UNL     1      -3.369  15.570  24.584  0.00  0.00    +0.000 C 
ATOM     40  C   UNL     1      -2.605  16.649  25.344  0.00  0.00    +0.000 C 
ATOM     41  C   UNL     1      -4.335  16.215  23.591  0.00  0.00    +0.000 C 
ENDBRANCH  36  39
ENDBRANCH  28  34
ENDBRANCH   4  24
TORSDOF 6
ENDMDL
MODEL 4
REMARK VINA RESULT:      -7.9      1.847     12.753
REMARK  Name = 
REMARK  10 active torsions:
REMARK  status: ('A' for Active; 'I' for Inactive)
REMARK    1  A    between atoms: C_1  and  C_2
REMARK    2  A    between atoms: C_2  and  C_3
REMARK    3  A    between atoms: C_2  and  N_4
REMARK    4  A    between atoms: C_5  and  C_7
REMARK    5  A    between atoms: C_12  and  C_13
REMARK    6  A    between atoms: C_16  and  C_17
REMARK    7  A    between atoms: C_21  and  C_22
REMARK    8  A    between atoms: N_24  and  C_25
REMARK    9  A    between atoms: C_25  and  C_26
REMARK   10  A    between atoms: C_25  and  C_27
REMARK                            x       y       z     vdW  Elec       q    Type
REMARK                         _______ _______ _______ _____ _____    ______ ____
ROOT
ATOM      1  C   UNL     1       2.067   7.531  19.655  0.00  0.00    +0.000 A 
ATOM      2  C   UNL     1       1.480   7.113  20.836  0.00  0.00    +0.000 A 
ATOM      3  C   UNL     1       0.845   8.238  21.406  0.00  0.00    +0.000 A 
ATOM      4  C   UNL     1       1.064   9.310  20.558  0.00  0.00    +0.000 A 
ATOM      5  O   UNL     1       1.812   8.872  19.486  0.00  0.00    +0.000 OA
ENDROOT
BRANCH   1  11
ATOM      6  C   UNL     1       5.488   4.772  15.662  0.00  0.00    +0.000 A 
ATOM      7  C   UNL     1       4.948   3.611  16.238  0.00  0.00    +0.000 A 
ATOM      8  C   UNL     1       4.010   3.663  17.277  0.00  0.00    +0.000 A 
ATOM      9  C   UNL     1       3.643   4.934  17.722  0.00  0.00    +0.000 A 
ATOM     10  N   UNL     1       2.793   5.367  18.706  0.00  0.00    +0.000 N 
ATOM     11  C   UNL     1       2.819   6.736  18.729  0.00  0.00    +0.000 A 
ATOM     12  N   UNL     1       3.627   7.208  17.801  0.00  0.00    +0.000 NA
ATOM     13  C   UNL     1       4.157   6.105  17.174  0.00  0.00    +0.000 A 
ATOM     14  C   UNL     1       5.092   6.038  16.128  0.00  0.00    +0.000 A 
ATOM     15  H   UNL     1       2.248   4.788  19.328  0.00  0.00    +0.000 HD
BRANCH   6  17
ATOM     16  N   UNL     1       6.158   3.893  13.546  0.00  0.00    +0.000 NA
ATOM     17  C   UNL     1       6.502   4.624  14.550  0.00  0.00    +0.000 C 
ATOM     18  N   UNL     1       7.694   5.293  14.677  0.00  0.00    +0.000 N 
ATOM     19  H   UNL     1       8.215   5.440  13.824  0.00  0.00    +0.000 HD
ATOM     20  H   UNL     1       7.668   6.124  15.258  0.00  0.00    +0.000 HD
BRANCH  16  22
ATOM     21  C   UNL     1       6.545   2.488  11.608  0.00  0.00    +0.000 C 
ATOM     22  C   UNL     1       7.063   3.675  12.418  0.00  0.00    +0.000 C 
ATOM     23  C   UNL     1       7.085   4.931  11.553  0.00  0.00    +0.000 C 
ENDBRANCH  16  22
ENDBRANCH   6  17
ENDBRANCH   1  11
BRANCH   4  24
ATOM     24  C   UNL     1       0.635  10.665  20.734  0.00  0.00    +0.000 A 
ATOM     25  N   UNL     1       0.073  11.152  21.822  0.00  0.00    +0.000 NA
ATOM     26  C   UNL     1      -0.096  12.499  21.583  0.00  0.00    +0.000 A 
ATOM     27  C   UNL     1      -0.630  13.502  22.410  0.00  0.00    +0.000 A 
ATOM     28  C   UNL     1      -0.671  14.825  21.934  0.00  0.00    +0.000 A 
ATOM     29  C   UNL     1      -0.189  15.129  20.652  0.00  0.00    +0.000 A 
ATOM     30  C   UNL     1       0.341  14.138  19.812  0.00  0.00    +0.000 A 
ATOM     31  C   UNL     1       0.367  12.835  20.315  0.00  0.00    +0.000 A 
ATOM     32  N   UNL     1       0.797  11.643  19.786  0.00  0.00    +0.000 N 
ATOM     33  H   UNL     1       1.198  11.503  18.872  0.00  0.00    +0.000 HD
BRANCH  28  34
ATOM     34  C   UNL     1      -1.246  15.923  22.795  0.00  0.00    +0.000 C 
ATOM     35  N   UNL     1      -1.613  17.093  22.171  0.00  0.00    +0.000 N 
ATOM     36  N   UNL     1      -1.361  15.686  24.058  0.00  0.00    +0.000 NA
ATOM     37  H   UNL     1      -1.966  16.991  21.225  0.00  0.00    +0.000 HD
ATOM     38  H   UNL     1      -2.200  17.712  22.715  0.00  0.00    +0.000 HD
BRANCH  36  39
ATOM     39  C   UNL     1      -1.868  16.702  24.984  0.00  0.00    +0.000 C 
ATOM     40  C   UNL     1      -3.358  16.480  25.218  0.00  0.00    +0.000 C 
ATOM     41  C   UNL     1      -1.105  16.570  26.301  0.00  0.00    +0.000 C 
ENDBRANCH  36  39
ENDBRANCH  28  34
ENDBRANCH   4  24
TORSDOF 6
ENDMDL
MODEL 5
REMARK VINA RESULT:      -7.8      1.201      1.505
REMARK  Name = 
REMARK  10 active torsions:
REMARK  status: ('A' for Active; 'I' for Inactive)
REMARK    1  A    between atoms: C_1  and  C_2
REMARK    2  A    between atoms: C_2  and  C_3
REMARK    3  A    between atoms: C_2  and  N_4
REMARK    4  A    between atoms: C_5  and  C_7
REMARK    5  A    between atoms: C_12  and  C_13
REMARK    6  A    between atoms: C_16  and  C_17
REMARK    7  A    between atoms: C_21  and  C_22
REMARK    8  A    between atoms: N_24  and  C_25
REMARK    9  A    between atoms: C_25  and  C_26
REMARK   10  A    between atoms: C_25  and  C_27
REMARK                            x       y       z     vdW  Elec       q    Type
REMARK                         _______ _______ _______ _____ _____    ______ ____
ROOT
ATOM      1  C   UNL     1       1.442   7.638  20.684  0.00  0.00    +0.000 A 
ATOM      2  C   UNL     1       1.535   6.470  21.420  0.00  0.00    +0.000 A 
ATOM      3  C   UNL     1       2.417   5.612  20.729  0.00  0.00    +0.000 A 
ATOM      4  C   UNL     1       2.835   6.279  19.590  0.00  0.00    +0.000 A 
ATOM      5  O   UNL     1       2.236   7.521  19.568  0.00  0.00    +0.000 OA
ENDROOT
BRANCH   1  11
ATOM      6  C   UNL     1      -1.859  12.530  21.348  0.00  0.00    +0.000 A 
ATOM      7  C   UNL     1      -1.832  12.170  22.706  0.00  0.00    +0.000 A 
ATOM      8  C   UNL     1      -1.139  11.042  23.163  0.00  0.00    +0.000 A 
ATOM      9  C   UNL     1      -0.480  10.282  22.197  0.00  0.00    +0.000 A 
ATOM     10  N   UNL     1       0.262   9.131  22.262  0.00  0.00    +0.000 N 
ATOM     11  C   UNL     1       0.665   8.803  20.996  0.00  0.00    +0.000 A 
ATOM     12  N   UNL     1       0.238   9.690  20.119  0.00  0.00    +0.000 NA
ATOM     13  C   UNL     1      -0.484  10.609  20.844  0.00  0.00    +0.000 A 
ATOM     14  C   UNL     1      -1.179  11.746  20.400  0.00  0.00    +0.000 A 
ATOM     15  H   UNL     1       0.468   8.595  23.093  0.00  0.00    +0.000 HD
BRANCH   6  17
ATOM     16  N   UNL     1      -3.903  13.754  21.196  0.00  0.00    +0.000 NA
ATOM     17  C   UNL     1      -2.639  13.759  20.941  0.00  0.00    +0.000 C 
ATOM     18  N   UNL     1      -1.948  14.792  20.358  0.00  0.00    +0.000 N 
ATOM     19  H   UNL     1      -2.399  15.696  20.377  0.00  0.00    +0.000 HD
ATOM     20  H   UNL     1      -0.964  14.849  20.597  0.00  0.00    +0.000 HD
BRANCH  16  22
ATOM     21  C   UNL     1      -6.004  14.350  20.145  0.00  0.00    +0.000 C 
ATOM     22  C   UNL     1      -4.755  14.888  20.839  0.00  0.00    +0.000 C 
ATOM     23  C   UNL     1      -5.142  15.634  22.112  0.00  0.00    +0.000 C 
ENDBRANCH  16  22
ENDBRANCH   6  17
ENDBRANCH   1  11
BRANCH   4  24
ATOM     24  C   UNL     1       3.713   5.795  18.567  0.00  0.00    +0.000 A 
ATOM     25  N   UNL     1       3.352   5.469  17.343  0.00  0.00    +0.000 NA
ATOM     26  C   UNL     1       4.518   5.140  16.686  0.00  0.00    +0.000 A 
ATOM     27  C   UNL     1       4.720   4.738  15.354  0.00  0.00    +0.000 A 
ATOM     28  C   UNL     1       6.031   4.479  14.915  0.00  0.00    +0.000 A 
ATOM     29  C   UNL     1       7.111   4.617  15.797  0.00  0.00    +0.000 A 
ATOM     30  C   UNL     1       6.925   5.012  17.131  0.00  0.00    +0.000 A 
ATOM     31  C   UNL     1       5.612   5.261  17.536  0.00  0.00    +0.000 A 
ATOM     32  N   UNL     1       5.066   5.649  18.735  0.00  0.00    +0.000 N 
ATOM     33  H   UNL     1       5.568   5.832  19.590  0.00  0.00    +0.000 HD
BRANCH  28  34
ATOM     34  C   UNL     1       6.280   4.037  13.492  0.00  0.00    +0.000 C 
ATOM     35  N   UNL     1       7.479   4.391  12.919  0.00  0.00    +0.000 N 
ATOM     36  N   UNL     1       5.352   3.351  12.915  0.00  0.00    +0.000 NA
ATOM     37  H   UNL     1       8.270   4.434  13.553  0.00  0.00    +0.000 HD
ATOM     38  H   UNL     1       7.719   3.896  12.069  0.00  0.00    +0.000 HD
BRANCH  36  39
ATOM     39  C   UNL     1       5.480   2.912  11.524  0.00  0.00    +0.000 C 
ATOM     40  C   UNL     1       5.803   1.422  11.486  0.00  0.00    +0.000 C 
ATOM     41  C   UNL     1       4.153   3.178  10.815  0.00  0.00    +0.000 C 
ENDBRANCH  36  39
ENDBRANCH  28  34
ENDBRANCH   4  24
TORSDOF 6
ENDMDL
MODEL 6
REMARK VINA RESULT:      -7.7      0.922      1.257
REMARK  Name = 
REMARK  10 active torsions:
REMARK  status: ('A' for Active; 'I' for Inactive)
REMARK    1  A    between atoms: C_1  and  C_2
REMARK    2  A    between atoms: C_2  and  C_3
REMARK    3  A    between atoms: C_2  and  N_4
REMARK    4  A    between atoms: C_5  and  C_7
REMARK    5  A    between atoms: C_12  and  C_13
REMARK    6  A    between atoms: C_16  and  C_17
REMARK    7  A    between atoms: C_21  and  C_22
REMARK    8  A    between atoms: N_24  and  C_25
REMARK    9  A    between atoms: C_25  and  C_26
REMARK   10  A    between atoms: C_25  and  C_27
REMARK                            x       y       z     vdW  Elec       q    Type
REMARK                         _______ _______ _______ _____ _____    ______ ____
ROOT
ATOM      1  C   UNL     1       1.351   7.934  20.825  0.00  0.00    +0.000 A 
ATOM      2  C   UNL     1       1.213   6.700  21.436  0.00  0.00    +0.000 A 
ATOM      3  C   UNL     1       2.065   5.802  20.758  0.00  0.00    +0.000 A 
ATOM      4  C   UNL     1       2.697   6.512  19.752  0.00  0.00    +0.000 A 
ATOM      5  O   UNL     1       2.258   7.818  19.798  0.00  0.00    +0.000 OA
ENDROOT
BRANCH   1  11
ATOM      6  C   UNL     1      -1.317  13.173  21.659  0.00  0.00    +0.000 A 
ATOM      7  C   UNL     1      -1.679  12.611  22.895  0.00  0.00    +0.000 A 
ATOM      8  C   UNL     1      -1.282  11.321  23.271  0.00  0.00    +0.000 A 
ATOM      9  C   UNL     1      -0.512  10.613  22.348  0.00  0.00    +0.000 A 
ATOM     10  N   UNL     1       0.028   9.353  22.356  0.00  0.00    +0.000 N 
ATOM     11  C   UNL     1       0.687   9.156  21.173  0.00  0.00    +0.000 A 
ATOM     12  N   UNL     1       0.616  10.228  20.409  0.00  0.00    +0.000 NA
ATOM     13  C   UNL     1      -0.134  11.138  21.116  0.00  0.00    +0.000 A 
ATOM     14  C   UNL     1      -0.535  12.435  20.754  0.00  0.00    +0.000 A 
ATOM     15  H   UNL     1      -0.055   8.669  23.094  0.00  0.00    +0.000 HD
BRANCH   6  17
ATOM     16  N   UNL     1      -2.181  15.297  22.322  0.00  0.00    +0.000 NA
ATOM     17  C   UNL     1      -1.797  14.568  21.330  0.00  0.00    +0.000 C 
ATOM     18  N   UNL     1      -1.765  14.963  20.016  0.00  0.00    +0.000 N 
ATOM     19  H   UNL     1      -1.786  15.960  19.850  0.00  0.00    +0.000 HD
ATOM     20  H   UNL     1      -1.081  14.492  19.435  0.00  0.00    +0.000 HD
BRANCH  16  22
ATOM     21  C   UNL     1      -4.124  16.723  22.584  0.00  0.00    +0.000 C 
ATOM     22  C   UNL     1      -2.671  16.660  22.119  0.00  0.00    +0.000 C 
ATOM     23  C   UNL     1      -1.814  17.620  22.939  0.00  0.00    +0.000 C 
ENDBRANCH  16  22
ENDBRANCH   6  17
ENDBRANCH   1  11
BRANCH   4  24
ATOM     24  C   UNL     1       3.631   6.015  18.787  0.00  0.00    +0.000 A 
ATOM     25  N   UNL     1       3.418   5.933  17.489  0.00  0.00    +0.000 NA
ATOM     26  C   UNL     1       4.600   5.482  16.944  0.00  0.00    +0.000 A 
ATOM     27  C   UNL     1       4.938   5.234  15.602  0.00  0.00    +0.000 A 
ATOM     28  C   UNL     1       6.239   4.794  15.300  0.00  0.00    +0.000 A 
ATOM     29  C   UNL     1       7.176   4.604  16.327  0.00  0.00    +0.000 A 
ATOM     30  C   UNL     1       6.852   4.841  17.671  0.00  0.00    +0.000 A 
ATOM     31  C   UNL     1       5.552   5.276  17.937  0.00  0.00    +0.000 A 
ATOM     32  N   UNL     1       4.898   5.593  19.102  0.00  0.00    +0.000 N 
ATOM     33  H   UNL     1       5.283   5.560  20.034  0.00  0.00    +0.000 HD
BRANCH  28  34
ATOM     34  C   UNL     1       6.631   4.511  13.870  0.00  0.00    +0.000 C 
ATOM     35  N   UNL     1       7.741   5.157  13.376  0.00  0.00    +0.000 N 
ATOM     36  N   UNL     1       5.901   3.676  13.210  0.00  0.00    +0.000 NA
ATOM     37  H   UNL     1       8.479   5.333  14.050  0.00  0.00    +0.000 HD
ATOM     38  H   UNL     1       8.115   4.783  12.513  0.00  0.00    +0.000 HD
BRANCH  36  39
ATOM     39  C   UNL     1       6.173   3.368  11.805  0.00  0.00    +0.000 C 
ATOM     40  C   UNL     1       7.280   2.323  11.717  0.00  0.00    +0.000 C 
ATOM     41  C   UNL     1       4.889   2.825  11.179  0.00  0.00    +0.000 C 
ENDBRANCH  36  39
ENDBRANCH  28  34
ENDBRANCH   4  24
TORSDOF 6
ENDMDL
MODEL 7
REMARK VINA RESULT:      -7.7      1.398      1.837
REMARK  Name = 
REMARK  10 active torsions:
REMARK  status: ('A' for Active; 'I' for Inactive)
REMARK    1  A    between atoms: C_1  and  C_2
REMARK    2  A    between atoms: C_2  and  C_3
REMARK    3  A    between atoms: C_2  and  N_4
REMARK    4  A    between atoms: C_5  and  C_7
REMARK    5  A    between atoms: C_12  and  C_13
REMARK    6  A    between atoms: C_16  and  C_17
REMARK    7  A    between atoms: C_21  and  C_22
REMARK    8  A    between atoms: N_24  and  C_25
REMARK    9  A    between atoms: C_25  and  C_26
REMARK   10  A    between atoms: C_25  and  C_27
REMARK                            x       y       z     vdW  Elec       q    Type
REMARK                         _______ _______ _______ _____ _____    ______ ____
ROOT
ATOM      1  C   UNL     1       1.204   8.278  20.650  0.00  0.00    +0.000 A 
ATOM      2  C   UNL     1       1.084   7.103  21.372  0.00  0.00    +0.000 A 
ATOM      3  C   UNL     1       1.927   6.151  20.760  0.00  0.00    +0.000 A 
ATOM      4  C   UNL     1       2.536   6.770  19.682  0.00  0.00    +0.000 A 
ATOM      5  O   UNL     1       2.091   8.073  19.620  0.00  0.00    +0.000 OA
ENDROOT
BRANCH   1  11
ATOM      6  C   UNL     1      -1.531  13.282  22.306  0.00  0.00    +0.000 A 
ATOM      7  C   UNL     1      -1.293  13.663  20.975  0.00  0.00    +0.000 A 
ATOM      8  C   UNL     1      -0.659  12.813  20.060  0.00  0.00    +0.000 A 
ATOM      9  C   UNL     1      -0.262  11.566  20.540  0.00  0.00    +0.000 A 
ATOM     10  N   UNL     1       0.387  10.507  19.960  0.00  0.00    +0.000 N 
ATOM     11  C   UNL     1       0.541   9.525  20.901  0.00  0.00    +0.000 A 
ATOM     12  N   UNL     1       0.011   9.886  22.052  0.00  0.00    +0.000 NA
ATOM     13  C   UNL     1      -0.482  11.154  21.851  0.00  0.00    +0.000 A 
ATOM     14  C   UNL     1      -1.125  12.014  22.757  0.00  0.00    +0.000 A 
ATOM     15  H   UNL     1       0.718  10.453  19.007  0.00  0.00    +0.000 HD
BRANCH   6  17
ATOM     16  N   UNL     1      -3.326  14.771  22.816  0.00  0.00    +0.000 NA
ATOM     17  C   UNL     1      -2.215  14.264  23.229  0.00  0.00    +0.000 C 
ATOM     18  N   UNL     1      -1.622  14.525  24.440  0.00  0.00    +0.000 N 
ATOM     19  H   UNL     1      -2.219  14.921  25.152  0.00  0.00    +0.000 HD
ATOM     20  H   UNL     1      -1.029  13.787  24.803  0.00  0.00    +0.000 HD
BRANCH  16  22
ATOM     21  C   UNL     1      -4.149  17.050  22.851  0.00  0.00    +0.000 C 
ATOM     22  C   UNL     1      -4.069  15.737  23.625  0.00  0.00    +0.000 C 
ATOM     23  C   UNL     1      -5.470  15.191  23.882  0.00  0.00    +0.000 C 
ENDBRANCH  16  22
ENDBRANCH   6  17
ENDBRANCH   1  11
BRANCH   4  24
ATOM     24  C   UNL     1       3.453   6.191  18.746  0.00  0.00    +0.000 A 
ATOM     25  N   UNL     1       3.294   6.164  17.439  0.00  0.00    +0.000 NA
ATOM     26  C   UNL     1       4.442   5.592  16.935  0.00  0.00    +0.000 A 
ATOM     27  C   UNL     1       4.815   5.338  15.603  0.00  0.00    +0.000 A 
ATOM     28  C   UNL     1       6.071   4.759  15.349  0.00  0.00    +0.000 A 
ATOM     29  C   UNL     1       6.930   4.440  16.411  0.00  0.00    +0.000 A 
ATOM     30  C   UNL     1       6.570   4.682  17.745  0.00  0.00    +0.000 A 
ATOM     31  C   UNL     1       5.316   5.257  17.964  0.00  0.00    +0.000 A 
ATOM     32  N   UNL     1       4.647   5.620  19.107  0.00  0.00    +0.000 N 
ATOM     33  H   UNL     1       4.980   5.522  20.054  0.00  0.00    +0.000 HD
BRANCH  28  34
ATOM     34  C   UNL     1       6.496   4.466  13.930  0.00  0.00    +0.000 C 
ATOM     35  N   UNL     1       7.615   5.112  13.457  0.00  0.00    +0.000 N 
ATOM     36  N   UNL     1       5.785   3.623  13.261  0.00  0.00    +0.000 NA
ATOM     37  H   UNL     1       8.337   5.295  14.146  0.00  0.00    +0.000 HD
ATOM     38  H   UNL     1       8.010   4.732  12.606  0.00  0.00    +0.000 HD
BRANCH  36  39
ATOM     39  C   UNL     1       6.090   3.304  11.865  0.00  0.00    +0.000 C 
ATOM     40  C   UNL     1       6.858   1.988  11.798  0.00  0.00    +0.000 C 
ATOM     41  C   UNL     1       4.771   3.179  11.104  0.00  0.00    +0.000 C 
ENDBRANCH  36  39
ENDBRANCH  28  34
ENDBRANCH   4  24
TORSDOF 6
ENDMDL
MODEL 8
REMARK VINA RESULT:      -7.7      1.038     12.505
REMARK  Name = 
REMARK  10 active torsions:
REMARK  status: ('A' for Active; 'I' for Inactive)
REMARK    1  A    between atoms: C_1  and  C_2
REMARK    2  A    between atoms: C_2  and  C_3
REMARK    3  A    between atoms: C_2  and  N_4
REMARK    4  A    between atoms: C_5  and  C_7
REMARK    5  A    between atoms: C_12  and  C_13
REMARK    6  A    between atoms: C_16  and  C_17
REMARK    7  A    between atoms: C_21  and  C_22
REMARK    8  A    between atoms: N_24  and  C_25
REMARK    9  A    between atoms: C_25  and  C_26
REMARK   10  A    between atoms: C_25  and  C_27
REMARK                            x       y       z     vdW  Elec       q    Type
REMARK                         _______ _______ _______ _____ _____    ______ ____
ROOT
ATOM      1  C   UNL     1       2.866   6.216  19.451  0.00  0.00    +0.000 A 
ATOM      2  C   UNL     1       2.383   5.480  20.519  0.00  0.00    +0.000 A 
ATOM      3  C   UNL     1       1.530   6.329  21.257  0.00  0.00    +0.000 A 
ATOM      4  C   UNL     1       1.519   7.559  20.620  0.00  0.00    +0.000 A 
ATOM      5  O   UNL     1       2.338   7.483  19.514  0.00  0.00    +0.000 OA
ENDROOT
BRANCH   1  11
ATOM      6  C   UNL     1       6.091   4.427  14.797  0.00  0.00    +0.000 A 
ATOM      7  C   UNL     1       7.167   4.580  15.687  0.00  0.00    +0.000 A 
ATOM      8  C   UNL     1       6.983   4.987  17.015  0.00  0.00    +0.000 A 
ATOM      9  C   UNL     1       5.670   5.243  17.410  0.00  0.00    +0.000 A 
ATOM     10  N   UNL     1       5.118   5.668  18.592  0.00  0.00    +0.000 N 
ATOM     11  C   UNL     1       3.764   5.771  18.424  0.00  0.00    +0.000 A 
ATOM     12  N   UNL     1       3.410   5.420  17.204  0.00  0.00    +0.000 NA
ATOM     13  C   UNL     1       4.580   5.100  16.557  0.00  0.00    +0.000 A 
ATOM     14  C   UNL     1       4.780   4.687  15.229  0.00  0.00    +0.000 A 
ATOM     15  H   UNL     1       5.616   5.888  19.442  0.00  0.00    +0.000 HD
BRANCH   6  17
ATOM     16  N   UNL     1       5.495   3.253  12.805  0.00  0.00    +0.000 NA
ATOM     17  C   UNL     1       6.382   3.993  13.378  0.00  0.00    +0.000 C 
ATOM     18  N   UNL     1       7.545   4.435  12.799  0.00  0.00    +0.000 N 
ATOM     19  H   UNL     1       7.580   4.405  11.790  0.00  0.00    +0.000 HD
ATOM     20  H   UNL     1       7.915   5.303  13.169  0.00  0.00    +0.000 HD
BRANCH  16  22
ATOM     21  C   UNL     1       6.139   1.316  11.498  0.00  0.00    +0.000 C 
ATOM     22  C   UNL     1       5.677   2.770  11.437  0.00  0.00    +0.000 C 
ATOM     23  C   UNL     1       4.345   2.867  10.699  0.00  0.00    +0.000 C 
ENDBRANCH  16  22
ENDBRANCH   6  17
ENDBRANCH   1  11
BRANCH   4  24
ATOM     24  C   UNL     1       0.819   8.742  21.019  0.00  0.00    +0.000 A 
ATOM     25  N   UNL     1       0.566   9.777  20.244  0.00  0.00    +0.000 NA
ATOM     26  C   UNL     1      -0.192  10.638  21.007  0.00  0.00    +0.000 A 
ATOM     27  C   UNL     1      -0.753  11.884  20.674  0.00  0.00    +0.000 A 
ATOM     28  C   UNL     1      -1.517  12.564  21.639  0.00  0.00    +0.000 A 
ATOM     29  C   UNL     1      -1.708  12.005  22.911  0.00  0.00    +0.000 A 
ATOM     30  C   UNL     1      -1.151  10.766  23.261  0.00  0.00    +0.000 A 
ATOM     31  C   UNL     1      -0.397  10.116  22.280  0.00  0.00    +0.000 A 
ATOM     32  N   UNL     1       0.284   8.924  22.269  0.00  0.00    +0.000 N 
ATOM     33  H   UNL     1       0.357   8.268  23.032  0.00  0.00    +0.000 HD
BRANCH  28  34
ATOM     34  C   UNL     1      -2.125  13.908  21.315  0.00  0.00    +0.000 C 
ATOM     35  N   UNL     1      -1.885  14.428  20.063  0.00  0.00    +0.000 N 
ATOM     36  N   UNL     1      -2.836  14.473  22.231  0.00  0.00    +0.000 NA
ATOM     37  H   UNL     1      -1.801  13.746  19.317  0.00  0.00    +0.000 HD
ATOM     38  H   UNL     1      -2.481  15.198  19.790  0.00  0.00    +0.000 HD
BRANCH  36  39
ATOM     39  C   UNL     1      -3.432  15.795  22.030  0.00  0.00    +0.000 C 
ATOM     40  C   UNL     1      -4.862  15.795  22.561  0.00  0.00    +0.000 C 
ATOM     41  C   UNL     1      -2.591  16.819  22.790  0.00  0.00    +0.000 C 
ENDBRANCH  36  39
ENDBRANCH  28  34
ENDBRANCH   4  24
TORSDOF 6
ENDMDL
MODEL 9
REMARK VINA RESULT:      -7.6      1.548      2.030
REMARK  Name = 
REMARK  10 active torsions:
REMARK  status: ('A' for Active; 'I' for Inactive)
REMARK    1  A    between atoms: C_1  and  C_2
REMARK    2  A    between atoms: C_2  and  C_3
REMARK    3  A    between atoms: C_2  and  N_4
REMARK    4  A    between atoms: C_5  and  C_7
REMARK    5  A    between atoms: C_12  and  C_13
REMARK    6  A    between atoms: C_16  and  C_17
REMARK    7  A    between atoms: C_21  and  C_22
REMARK    8  A    between atoms: N_24  and  C_25
REMARK    9  A    between atoms: C_25  and  C_26
REMARK   10  A    between atoms: C_25  and  C_27
REMARK                            x       y       z     vdW  Elec       q    Type
REMARK                         _______ _______ _______ _____ _____    ______ ____
ROOT
ATOM      1  C   UNL     1       1.190   8.486  20.580  0.00  0.00    +0.000 A 
ATOM      2  C   UNL     1       1.138   7.368  21.393  0.00  0.00    +0.000 A 
ATOM      3  C   UNL     1       1.991   6.399  20.822  0.00  0.00    +0.000 A 
ATOM      4  C   UNL     1       2.537   6.952  19.676  0.00  0.00    +0.000 A 
ATOM      5  O   UNL     1       2.044   8.231  19.533  0.00  0.00    +0.000 OA
ENDROOT
BRANCH   1  11
ATOM      6  C   UNL     1      -1.306  13.729  21.822  0.00  0.00    +0.000 A 
ATOM      7  C   UNL     1      -1.956  13.530  20.593  0.00  0.00    +0.000 A 
ATOM      8  C   UNL     1      -1.752  12.380  19.821  0.00  0.00    +0.000 A 
ATOM      9  C   UNL     1      -0.857  11.439  20.330  0.00  0.00    +0.000 A 
ATOM     10  N   UNL     1      -0.402  10.235  19.858  0.00  0.00    +0.000 N 
ATOM     11  C   UNL     1       0.492   9.726  20.761  0.00  0.00    +0.000 A 
ATOM     12  N   UNL     1       0.624  10.528  21.799  0.00  0.00    +0.000 NA
ATOM     13  C   UNL     1      -0.196  11.602  21.544  0.00  0.00    +0.000 A 
ATOM     14  C   UNL     1      -0.415  12.759  22.310  0.00  0.00    +0.000 A 
ATOM     15  H   UNL     1      -0.658   9.795  18.986  0.00  0.00    +0.000 HD
BRANCH   6  17
ATOM     16  N   UNL     1      -2.316  14.904  23.639  0.00  0.00    +0.000 NA
ATOM     17  C   UNL     1      -1.578  15.005  22.586  0.00  0.00    +0.000 C 
ATOM     18  N   UNL     1      -1.003  16.163  22.125  0.00  0.00    +0.000 N 
ATOM     19  H   UNL     1      -0.932  16.920  22.790  0.00  0.00    +0.000 HD
ATOM     20  H   UNL     1      -0.152  16.044  21.587  0.00  0.00    +0.000 HD
BRANCH  16  22
ATOM     21  C   UNL     1      -4.165  16.123  24.623  0.00  0.00    +0.000 C 
ATOM     22  C   UNL     1      -2.649  16.074  24.449  0.00  0.00    +0.000 C 
ATOM     23  C   UNL     1      -1.968  15.943  25.808  0.00  0.00    +0.000 C 
ENDBRANCH  16  22
ENDBRANCH   6  17
ENDBRANCH   1  11
BRANCH   4  24
ATOM     24  C   UNL     1       3.438   6.333  18.752  0.00  0.00    +0.000 A 
ATOM     25  N   UNL     1       3.307   6.334  17.441  0.00  0.00    +0.000 NA
ATOM     26  C   UNL     1       4.430   5.703  16.953  0.00  0.00    +0.000 A 
ATOM     27  C   UNL     1       4.816   5.446  15.625  0.00  0.00    +0.000 A 
ATOM     28  C   UNL     1       6.041   4.796  15.388  0.00  0.00    +0.000 A 
ATOM     29  C   UNL     1       6.855   4.410  16.463  0.00  0.00    +0.000 A 
ATOM     30  C   UNL     1       6.481   4.654  17.793  0.00  0.00    +0.000 A 
ATOM     31  C   UNL     1       5.259   5.300  17.994  0.00  0.00    +0.000 A 
ATOM     32  N   UNL     1       4.588   5.686  19.128  0.00  0.00    +0.000 N 
ATOM     33  H   UNL     1       4.893   5.554  20.080  0.00  0.00    +0.000 HD
BRANCH  28  34
ATOM     34  C   UNL     1       6.480   4.499  13.974  0.00  0.00    +0.000 C 
ATOM     35  N   UNL     1       7.604   5.143  13.510  0.00  0.00    +0.000 N 
ATOM     36  N   UNL     1       5.774   3.655  13.300  0.00  0.00    +0.000 NA
ATOM     37  H   UNL     1       8.319   5.328  14.205  0.00  0.00    +0.000 HD
ATOM     38  H   UNL     1       8.006   4.760  12.664  0.00  0.00    +0.000 HD
BRANCH  36  39
ATOM     39  C   UNL     1       6.092   3.332  11.908  0.00  0.00    +0.000 C 
ATOM     40  C   UNL     1       6.821   1.994  11.849  0.00  0.00    +0.000 C 
ATOM     41  C   UNL     1       4.782   3.250  11.126  0.00  0.00    +0.000 C 
ENDBRANCH  36  39
ENDBRANCH  28  34
ENDBRANCH   4  24
TORSDOF 6
ENDMDL
