MODEL 1
REMARK VINA RESULT:      -8.6      0.000      0.000
REMARK  Name = 
REMARK  11 active torsions:
REMARK  status: ('A' for Active; 'I' for Inactive)
REMARK    1  A    between atoms: C_1  and  C_2
REMARK    2  A    between atoms: C_2  and  C_4
REMARK    3  A    between atoms: C_8  and  N_9
REMARK    4  A    between atoms: C_10  and  C_12
REMARK    5  A    between atoms: C_12  and  C_13
REMARK    6  A    between atoms: C_12  and  O_14
REMARK    7  A    between atoms: O_14  and  C_15
REMARK    8  A    between atoms: C_15  and  C_17
REMARK    9  A    between atoms: C_17  and  C_18
REMARK   10  A    between atoms: C_18  and  C_19
REMARK   11  A    between atoms: C_21  and  O_22
REMARK                            x       y       z     vdW  Elec       q    Type
REMARK                         _______ _______ _______ _____ _____    ______ ____
ROOT
ATOM      1  O   UNL     1       1.043   4.358  18.925  0.00  0.00    +0.000 OA
ENDROOT
BRANCH   1   2
ATOM      2  C   UNL     1       1.414   3.178  18.189  0.00  0.00    +0.000 C 
ATOM      3  C   UNL     1       0.888   1.961  18.964  0.00  0.00    +0.000 C 
BRANCH   2   5
ATOM      4  N   UNL     1       3.529   4.082  17.218  0.00  0.00    +0.000 N 
ATOM      5  C   UNL     1       2.951   3.050  17.963  0.00  0.00    +0.000 C 
ATOM      6  O   UNL     1       3.561   2.065  18.380  0.00  0.00    +0.000 OA
ATOM      7  H   UNL     1       2.917   4.866  17.035  0.00  0.00    +0.000 HD
BRANCH   4  12
ATOM      8  C   UNL     1       6.670   4.477  15.187  0.00  0.00    +0.000 A 
ATOM      9  C   UNL     1       7.612   4.766  16.165  0.00  0.00    +0.000 A 
ATOM     10  C   UNL     1       7.231   4.704  17.506  0.00  0.00    +0.000 A 
ATOM     11  C   UNL     1       5.895   4.469  17.867  0.00  0.00    +0.000 A 
ATOM     12  C   UNL     1       4.920   4.214  16.908  0.00  0.00    +0.000 A 
ATOM     13  C   UNL     1       5.370   4.106  15.585  0.00  0.00    +0.000 A 
BRANCH   8  15
ATOM     14  C   UNL     1       6.210   3.714  12.747  0.00  0.00    +0.000 C 
ATOM     15  C   UNL     1       6.958   4.578  13.721  0.00  0.00    +0.000 C 
ATOM     16  O   UNL     1       7.761   5.409  13.307  0.00  0.00    +0.000 OA
ENDBRANCH   8  15
ENDBRANCH   4  12
ENDBRANCH   2   5
ENDBRANCH   1   2
BRANCH   1  17
ATOM     17  C   UNL     1       1.542   4.481  20.183  0.00  0.00    +0.000 C 
ATOM     18  O   UNL     1       1.157   3.822  21.145  0.00  0.00    +0.000 OA
BRANCH  17  19
ATOM     19  C   UNL     1       2.600   5.557  20.337  0.00  0.00    +0.000 C 
BRANCH  19  20
ATOM     20  C   UNL     1       2.602   6.765  19.379  0.00  0.00    +0.000 C 
BRANCH  20  21
ATOM     21  C   UNL     1       1.816   7.962  19.861  0.00  0.00    +0.000 A 
ATOM     22  N   UNL     1       1.580   8.887  18.941  0.00  0.00    +0.000 NA
ATOM     23  C   UNL     1       0.746   9.855  19.312  0.00  0.00    +0.000 A 
ATOM     24  C   UNL     1       0.181  10.038  20.531  0.00  0.00    +0.000 A 
ATOM     25  C   UNL     1      -0.619  11.169  20.829  0.00  0.00    +0.000 A 
ATOM     26  C   UNL     1      -1.121  11.356  22.095  0.00  0.00    +0.000 A 
ATOM     27  C   UNL     1      -0.817  10.396  23.053  0.00  0.00    +0.000 A 
ATOM     28  C   UNL     1      -0.019   9.276  22.738  0.00  0.00    +0.000 A 
ATOM     29  C   UNL     1       0.517   9.069  21.462  0.00  0.00    +0.000 A 
ATOM     30  N   UNL     1       1.318   8.012  21.122  0.00  0.00    +0.000 NA
BRANCH  23  31
ATOM     31  O   UNL     1       0.581  10.713  18.303  0.00  0.00    +0.000 OA
ATOM     32  H   UNL     1       1.457  10.590  17.909  0.00  0.00    +0.000 HD
ENDBRANCH  23  31
ENDBRANCH  20  21
ENDBRANCH  19  20
ENDBRANCH  17  19
ENDBRANCH   1  17
TORSDOF 9
ENDMDL
MODEL 2
REMARK VINA RESULT:      -8.5      1.793      8.342
REMARK  Name = 
REMARK  11 active torsions:
REMARK  status: ('A' for Active; 'I' for Inactive)
REMARK    1  A    between atoms: C_1  and  C_2
REMARK    2  A    between atoms: C_2  and  C_4
REMARK    3  A    between atoms: C_8  and  N_9
REMARK    4  A    between atoms: C_10  and  C_12
REMARK    5  A    between atoms: C_12  and  C_13
REMARK    6  A    between atoms: C_12  and  O_14
REMARK    7  A    between atoms: O_14  and  C_15
REMARK    8  A    between atoms: C_15  and  C_17
REMARK    9  A    between atoms: C_17  and  C_18
REMARK   10  A    between atoms: C_18  and  C_19
REMARK   11  A    between atoms: C_21  and  O_22
REMARK                            x       y       z     vdW  Elec       q    Type
REMARK                         _______ _______ _______ _____ _____    ______ ____
ROOT
ATOM      1  O   UNL     1       2.741   2.144  20.322  0.00  0.00    +0.000 OA
ENDROOT
BRANCH   1   2
ATOM      2  C   UNL     1       2.344   3.134  21.289  0.00  0.00    +0.000 C 
ATOM      3  C   UNL     1       1.392   2.456  22.284  0.00  0.00    +0.000 C 
BRANCH   2   5
ATOM      4  N   UNL     1       2.402   5.563  20.717  0.00  0.00    +0.000 N 
ATOM      5  C   UNL     1       1.660   4.380  20.651  0.00  0.00    +0.000 C 
ATOM      6  O   UNL     1       0.524   4.295  20.183  0.00  0.00    +0.000 OA
ATOM      7  H   UNL     1       3.354   5.448  21.038  0.00  0.00    +0.000 HD
BRANCH   4  12
ATOM      8  C   UNL     1       1.082   9.082  20.559  0.00  0.00    +0.000 A 
ATOM      9  C   UNL     1       1.461   9.476  19.283  0.00  0.00    +0.000 A 
ATOM     10  C   UNL     1       2.041   8.533  18.432  0.00  0.00    +0.000 A 
ATOM     11  C   UNL     1       2.345   7.241  18.886  0.00  0.00    +0.000 A 
ATOM     12  C   UNL     1       2.012   6.828  20.172  0.00  0.00    +0.000 A 
ATOM     13  C   UNL     1       1.272   7.738  20.939  0.00  0.00    +0.000 A 
BRANCH   8  15
ATOM     14  C   UNL     1      -0.385   9.516  22.658  0.00  0.00    +0.000 C 
ATOM     15  C   UNL     1       0.513  10.028  21.570  0.00  0.00    +0.000 C 
ATOM     16  O   UNL     1       0.829  11.215  21.549  0.00  0.00    +0.000 OA
ENDBRANCH   8  15
ENDBRANCH   4  12
ENDBRANCH   2   5
ENDBRANCH   1   2
BRANCH   1  17
ATOM     17  C   UNL     1       3.998   2.250  19.814  0.00  0.00    +0.000 C 
ATOM     18  O   UNL     1       5.005   1.826  20.373  0.00  0.00    +0.000 OA
BRANCH  17  19
ATOM     19  C   UNL     1       4.083   2.996  18.497  0.00  0.00    +0.000 C 
BRANCH  19  20
ATOM     20  C   UNL     1       4.880   4.315  18.420  0.00  0.00    +0.000 C 
BRANCH  20  21
ATOM     21  C   UNL     1       5.511   4.602  17.078  0.00  0.00    +0.000 A 
ATOM     22  N   UNL     1       6.414   5.573  17.077  0.00  0.00    +0.000 NA
ATOM     23  C   UNL     1       7.094   5.712  15.942  0.00  0.00    +0.000 A 
ATOM     24  C   UNL     1       6.916   5.034  14.782  0.00  0.00    +0.000 A 
ATOM     25  C   UNL     1       7.646   5.344  13.608  0.00  0.00    +0.000 A 
ATOM     26  C   UNL     1       7.393   4.680  12.432  0.00  0.00    +0.000 A 
ATOM     27  C   UNL     1       6.407   3.699  12.449  0.00  0.00    +0.000 A 
ATOM     28  C   UNL     1       5.691   3.403  13.628  0.00  0.00    +0.000 A 
ATOM     29  C   UNL     1       5.917   4.076  14.834  0.00  0.00    +0.000 A 
ATOM     30  N   UNL     1       5.227   3.839  15.992  0.00  0.00    +0.000 NA
BRANCH  23  31
ATOM     31  O   UNL     1       7.973   6.709  16.069  0.00  0.00    +0.000 OA
ATOM     32  H   UNL     1       8.769   6.171  15.948  0.00  0.00    +0.000 HD
ENDBRANCH  23  31
ENDBRANCH  20  21
ENDBRANCH  19  20
ENDBRANCH  17  19
ENDBRANCH   1  17
TORSDOF 9
ENDMDL
MODEL 3
REMARK VINA RESULT:      -8.3      2.088      7.058
REMARK  Name = 
REMARK  11 active torsions:
REMARK  status: ('A' for Active; 'I' for Inactive)
REMARK    1  A    between atoms: C_1  and  C_2
REMARK    2  A    between atoms: C_2  and  C_4
REMARK    3  A    between atoms: C_8  and  N_9
REMARK    4  A    between atoms: C_10  and  C_12
REMARK    5  A    between atoms: C_12  and  C_13
REMARK    6  A    between atoms: C_12  and  O_14
REMARK    7  A    between atoms: O_14  and  C_15
REMARK    8  A    between atoms: C_15  and  C_17
REMARK    9  A    between atoms: C_17  and  C_18
REMARK   10  A    between atoms: C_18  and  C_19
REMARK   11  A    between atoms: C_21  and  O_22
REMARK                            x       y       z     vdW  Elec       q    Type
REMARK                         _______ _______ _______ _____ _____    ______ ____
ROOT
ATOM      1  O   UNL     1       2.401   1.829  20.119  0.00  0.00    +0.000 OA
ENDROOT
BRANCH   1   2
ATOM      2  C   UNL     1       2.552   2.976  20.976  0.00  0.00    +0.000 C 
ATOM      3  C   UNL     1       1.988   2.604  22.355  0.00  0.00    +0.000 C 
BRANCH   2   5
ATOM      4  N   UNL     1       2.686   5.342  20.192  0.00  0.00    +0.000 N 
ATOM      5  C   UNL     1       1.843   4.252  20.430  0.00  0.00    +0.000 C 
ATOM      6  O   UNL     1       0.621   4.271  20.288  0.00  0.00    +0.000 OA
ATOM      7  H   UNL     1       3.673   5.136  20.261  0.00  0.00    +0.000 HD
BRANCH   4  12
ATOM      8  C   UNL     1       1.365   8.862  20.065  0.00  0.00    +0.000 A 
ATOM      9  C   UNL     1       1.720   9.258  18.782  0.00  0.00    +0.000 A 
ATOM     10  C   UNL     1       2.282   8.316  17.919  0.00  0.00    +0.000 A 
ATOM     11  C   UNL     1       2.595   7.022  18.365  0.00  0.00    +0.000 A 
ATOM     12  C   UNL     1       2.286   6.607  19.656  0.00  0.00    +0.000 A 
ATOM     13  C   UNL     1       1.561   7.517  20.439  0.00  0.00    +0.000 A 
BRANCH   8  15
ATOM     14  C   UNL     1      -0.458  10.553  20.816  0.00  0.00    +0.000 C 
ATOM     15  C   UNL     1       0.816   9.807  21.088  0.00  0.00    +0.000 C 
ATOM     16  O   UNL     1       1.373   9.927  22.176  0.00  0.00    +0.000 OA
ENDBRANCH   8  15
ENDBRANCH   4  12
ENDBRANCH   2   5
ENDBRANCH   1   2
BRANCH   1  17
ATOM     17  C   UNL     1       1.920   2.055  18.868  0.00  0.00    +0.000 C 
ATOM     18  O   UNL     1       0.726   2.134  18.593  0.00  0.00    +0.000 OA
BRANCH  17  19
ATOM     19  C   UNL     1       2.985   2.152  17.793  0.00  0.00    +0.000 C 
BRANCH  19  20
ATOM     20  C   UNL     1       3.018   3.381  16.863  0.00  0.00    +0.000 C 
BRANCH  20  21
ATOM     21  C   UNL     1       4.229   4.270  17.021  0.00  0.00    +0.000 A 
ATOM     22  N   UNL     1       4.433   5.126  16.030  0.00  0.00    +0.000 NA
ATOM     23  C   UNL     1       5.391   6.024  16.245  0.00  0.00    +0.000 A 
ATOM     24  C   UNL     1       6.220   6.109  17.314  0.00  0.00    +0.000 A 
ATOM     25  C   UNL     1       7.270   7.059  17.381  0.00  0.00    +0.000 A 
ATOM     26  C   UNL     1       8.132   7.073  18.450  0.00  0.00    +0.000 A 
ATOM     27  C   UNL     1       7.926   6.132  19.453  0.00  0.00    +0.000 A 
ATOM     28  C   UNL     1       6.875   5.195  19.371  0.00  0.00    +0.000 A 
ATOM     29  C   UNL     1       5.992   5.148  18.285  0.00  0.00    +0.000 A 
ATOM     30  N   UNL     1       4.978   4.238  18.153  0.00  0.00    +0.000 NA
BRANCH  23  31
ATOM     31  O   UNL     1       5.492   6.830  15.186  0.00  0.00    +0.000 OA
ATOM     32  H   UNL     1       6.457   6.909  15.199  0.00  0.00    +0.000 HD
ENDBRANCH  23  31
ENDBRANCH  20  21
ENDBRANCH  19  20
ENDBRANCH  17  19
ENDBRANCH   1  17
TORSDOF 9
ENDMDL
MODEL 4
REMARK VINA RESULT:      -8.2      1.358      1.659
REMARK  Name = 
REMARK  11 active torsions:
REMARK  status: ('A' for Active; 'I' for Inactive)
REMARK    1  A    between atoms: C_1  and  C_2
REMARK    2  A    between atoms: C_2  and  C_4
REMARK    3  A    between atoms: C_8  and  N_9
REMARK    4  A    between atoms: C_10  and  C_12
REMARK    5  A    between atoms: C_12  and  C_13
REMARK    6  A    between atoms: C_12  and  O_14
REMARK    7  A    between atoms: O_14  and  C_15
REMARK    8  A    between atoms: C_15  and  C_17
REMARK    9  A    between atoms: C_17  and  C_18
REMARK   10  A    between atoms: C_18  and  C_19
REMARK   11  A    between atoms: C_21  and  O_22
REMARK                            x       y       z     vdW  Elec       q    Type
REMARK                         _______ _______ _______ _____ _____    ______ ____
ROOT
ATOM      1  O   UNL     1       2.903   3.840  20.139  0.00  0.00    +0.000 OA
ENDROOT
BRANCH   1   2
ATOM      2  C   UNL     1       3.784   2.900  19.496  0.00  0.00    +0.000 C 
ATOM      3  C   UNL     1       4.392   2.010  20.589  0.00  0.00    +0.000 C 
BRANCH   2   5
ATOM      4  N   UNL     1       4.811   3.418  17.281  0.00  0.00    +0.000 N 
ATOM      5  C   UNL     1       4.913   3.581  18.665  0.00  0.00    +0.000 C 
ATOM      6  O   UNL     1       5.838   4.162  19.233  0.00  0.00    +0.000 OA
ATOM      7  H   UNL     1       3.943   3.005  16.966  0.00  0.00    +0.000 HD
BRANCH   4  12
ATOM      8  C   UNL     1       6.399   4.107  13.941  0.00  0.00    +0.000 A 
ATOM      9  C   UNL     1       7.191   5.213  14.220  0.00  0.00    +0.000 A 
ATOM     10  C   UNL     1       7.295   5.650  15.542  0.00  0.00    +0.000 A 
ATOM     11  C   UNL     1       6.527   5.062  16.559  0.00  0.00    +0.000 A 
ATOM     12  C   UNL     1       5.696   3.977  16.305  0.00  0.00    +0.000 A 
ATOM     13  C   UNL     1       5.751   3.450  15.006  0.00  0.00    +0.000 A 
BRANCH   8  15
ATOM     14  C   UNL     1       4.781   3.241  12.102  0.00  0.00    +0.000 C 
ATOM     15  C   UNL     1       6.169   3.597  12.552  0.00  0.00    +0.000 C 
ATOM     16  O   UNL     1       7.103   3.527  11.760  0.00  0.00    +0.000 OA
ENDBRANCH   8  15
ENDBRANCH   4  12
ENDBRANCH   2   5
ENDBRANCH   1   2
BRANCH   1  17
ATOM     17  C   UNL     1       1.773   4.184  19.465  0.00  0.00    +0.000 C 
ATOM     18  O   UNL     1       0.699   3.600  19.579  0.00  0.00    +0.000 OA
BRANCH  17  19
ATOM     19  C   UNL     1       1.945   5.336  18.494  0.00  0.00    +0.000 C 
BRANCH  19  20
ATOM     20  C   UNL     1       2.837   6.532  18.885  0.00  0.00    +0.000 C 
BRANCH  20  21
ATOM     21  C   UNL     1       2.094   7.736  19.414  0.00  0.00    +0.000 A 
ATOM     22  N   UNL     1       1.853   8.686  18.521  0.00  0.00    +0.000 NA
ATOM     23  C   UNL     1       1.053   9.664  18.937  0.00  0.00    +0.000 A 
ATOM     24  C   UNL     1       0.529   9.835  20.176  0.00  0.00    +0.000 A 
ATOM     25  C   UNL     1      -0.235  10.977  20.521  0.00  0.00    +0.000 A 
ATOM     26  C   UNL     1      -0.694  11.148  21.805  0.00  0.00    +0.000 A 
ATOM     27  C   UNL     1      -0.386  10.160  22.734  0.00  0.00    +0.000 A 
ATOM     28  C   UNL     1       0.376   9.029  22.372  0.00  0.00    +0.000 A 
ATOM     29  C   UNL     1       0.870   8.838  21.076  0.00  0.00    +0.000 A 
ATOM     30  N   UNL     1       1.635   7.771  20.691  0.00  0.00    +0.000 NA
BRANCH  23  31
ATOM     31  O   UNL     1       0.880  10.548  17.952  0.00  0.00    +0.000 OA
ATOM     32  H   UNL     1      -0.049  10.337  17.777  0.00  0.00    +0.000 HD
ENDBRANCH  23  31
ENDBRANCH  20  21
ENDBRANCH  19  20
ENDBRANCH  17  19
ENDBRANCH   1  17
TORSDOF 9
ENDMDL
MODEL 5
REMARK VINA RESULT:      -8.1      2.445      3.562
REMARK  Name = 
REMARK  11 active torsions:
REMARK  status: ('A' for Active; 'I' for Inactive)
REMARK    1  A    between atoms: C_1  and  C_2
REMARK    2  A    between atoms: C_2  and  C_4
REMARK    3  A    between atoms: C_8  and  N_9
REMARK    4  A    between atoms: C_10  and  C_12
REMARK    5  A    between atoms: C_12  and  C_13
REMARK    6  A    between atoms: C_12  and  O_14
REMARK    7  A    between atoms: O_14  and  C_15
REMARK    8  A    between atoms: C_15  and  C_17
REMARK    9  A    between atoms: C_17  and  C_18
REMARK   10  A    between atoms: C_18  and  C_19
REMARK   11  A    between atoms: C_21  and  O_22
REMARK                            x       y       z     vdW  Elec       q    Type
REMARK                         _______ _______ _______ _____ _____    ______ ____
ROOT
ATOM      1  O   UNL     1       5.336   5.680  18.882  0.00  0.00    +0.000 OA
ENDROOT
BRANCH   1   2
ATOM      2  C   UNL     1       6.618   5.178  18.459  0.00  0.00    +0.000 C 
ATOM      3  C   UNL     1       7.687   5.816  19.357  0.00  0.00    +0.000 C 
BRANCH   2   5
ATOM      4  N   UNL     1       6.802   4.371  16.104  0.00  0.00    +0.000 N 
ATOM      5  C   UNL     1       6.930   5.469  16.960  0.00  0.00    +0.000 C 
ATOM      6  O   UNL     1       7.312   6.585  16.610  0.00  0.00    +0.000 OA
ATOM      7  H   UNL     1       6.382   3.553  16.525  0.00  0.00    +0.000 HD
BRANCH   4  12
ATOM      8  C   UNL     1       6.260   3.610  12.460  0.00  0.00    +0.000 A 
ATOM      9  C   UNL     1       7.075   4.549  11.844  0.00  0.00    +0.000 A 
ATOM     10  C   UNL     1       7.900   5.349  12.638  0.00  0.00    +0.000 A 
ATOM     11  C   UNL     1       7.829   5.293  14.039  0.00  0.00    +0.000 A 
ATOM     12  C   UNL     1       6.994   4.388  14.686  0.00  0.00    +0.000 A 
ATOM     13  C   UNL     1       6.314   3.479  13.862  0.00  0.00    +0.000 A 
BRANCH   8  15
ATOM     14  C   UNL     1       3.978   3.315  11.255  0.00  0.00    +0.000 C 
ATOM     15  C   UNL     1       5.293   2.750  11.708  0.00  0.00    +0.000 C 
ATOM     16  O   UNL     1       5.598   1.600  11.406  0.00  0.00    +0.000 OA
ENDBRANCH   8  15
ENDBRANCH   4  12
ENDBRANCH   2   5
ENDBRANCH   1   2
BRANCH   1  17
ATOM     17  C   UNL     1       4.410   5.899  17.911  0.00  0.00    +0.000 C 
ATOM     18  O   UNL     1       3.949   5.020  17.188  0.00  0.00    +0.000 OA
BRANCH  17  19
ATOM     19  C   UNL     1       4.012   7.352  17.738  0.00  0.00    +0.000 C 
BRANCH  19  20
ATOM     20  C   UNL     1       2.547   7.705  17.409  0.00  0.00    +0.000 C 
BRANCH  20  21
ATOM     21  C   UNL     1       1.849   8.560  18.440  0.00  0.00    +0.000 A 
ATOM     22  N   UNL     1       1.198   9.608  17.955  0.00  0.00    +0.000 NA
ATOM     23  C   UNL     1       0.443  10.261  18.834  0.00  0.00    +0.000 A 
ATOM     24  C   UNL     1       0.328  10.025  20.164  0.00  0.00    +0.000 A 
ATOM     25  C   UNL     1      -0.441  10.858  21.014  0.00  0.00    +0.000 A 
ATOM     26  C   UNL     1      -0.481  10.628  22.368  0.00  0.00    +0.000 A 
ATOM     27  C   UNL     1       0.251   9.551  22.857  0.00  0.00    +0.000 A 
ATOM     28  C   UNL     1       1.010   8.731  21.996  0.00  0.00    +0.000 A 
ATOM     29  C   UNL     1       1.081   8.954  20.615  0.00  0.00    +0.000 A 
ATOM     30  N   UNL     1       1.827   8.201  19.749  0.00  0.00    +0.000 NA
BRANCH  23  31
ATOM     31  O   UNL     1      -0.166  11.282  18.226  0.00  0.00    +0.000 OA
ATOM     32  H   UNL     1      -1.066  11.051  18.497  0.00  0.00    +0.000 HD
ENDBRANCH  23  31
ENDBRANCH  20  21
ENDBRANCH  19  20
ENDBRANCH  17  19
ENDBRANCH   1  17
TORSDOF 9
ENDMDL
MODEL 6
REMARK VINA RESULT:      -8.1      1.468      1.758
REMARK  Name = 
REMARK  11 active torsions:
REMARK  status: ('A' for Active; 'I' for Inactive)
REMARK    1  A    between atoms: C_1  and  C_2
REMARK    2  A    between atoms: C_2  and  C_4
REMARK    3  A    between atoms: C_8  and  N_9
REMARK    4  A    between atoms: C_10  and  C_12
REMARK    5  A    between atoms: C_12  and  C_13
REMARK    6  A    between atoms: C_12  and  O_14
REMARK    7  A    between atoms: O_14  and  C_15
REMARK    8  A    between atoms: C_15  and  C_17
REMARK    9  A    between atoms: C_17  and  C_18
REMARK   10  A    between atoms: C_18  and  C_19
REMARK   11  A    between atoms: C_21  and  O_22
REMARK                            x       y       z     vdW  Elec       q    Type
REMARK                         _______ _______ _______ _____ _____    ______ ____
ROOT
ATOM      1  O   UNL     1       3.409   2.690  20.721  0.00  0.00    +0.000 OA
ENDROOT
BRANCH   1   2
ATOM      2  C   UNL     1       3.401   2.209  19.365  0.00  0.00    +0.000 C 
ATOM      3  C   UNL     1       4.094   0.839  19.353  0.00  0.00    +0.000 C 
BRANCH   2   5
ATOM      4  N   UNL     1       5.272   3.774  18.834  0.00  0.00    +0.000 N 
ATOM      5  C   UNL     1       4.100   3.176  18.362  0.00  0.00    +0.000 C 
ATOM      6  O   UNL     1       3.590   3.409  17.266  0.00  0.00    +0.000 OA
ATOM      7  H   UNL     1       5.613   3.403  19.711  0.00  0.00    +0.000 HD
BRANCH   4  12
ATOM      8  C   UNL     1       7.069   5.323  15.915  0.00  0.00    +0.000 A 
ATOM      9  C   UNL     1       7.521   6.519  16.455  0.00  0.00    +0.000 A 
ATOM     10  C   UNL     1       7.340   6.752  17.820  0.00  0.00    +0.000 A 
ATOM     11  C   UNL     1       6.612   5.853  18.616  0.00  0.00    +0.000 A 
ATOM     12  C   UNL     1       6.114   4.664  18.095  0.00  0.00    +0.000 A 
ATOM     13  C   UNL     1       6.467   4.377  16.769  0.00  0.00    +0.000 A 
BRANCH   8  15
ATOM     14  C   UNL     1       6.245   3.969  13.857  0.00  0.00    +0.000 C 
ATOM     15  C   UNL     1       7.156   5.002  14.455  0.00  0.00    +0.000 C 
ATOM     16  O   UNL     1       7.928   5.626  13.733  0.00  0.00    +0.000 OA
ENDBRANCH   8  15
ENDBRANCH   4  12
ENDBRANCH   2   5
ENDBRANCH   1   2
BRANCH   1  17
ATOM     17  C   UNL     1       2.260   3.253  21.182  0.00  0.00    +0.000 C 
ATOM     18  O   UNL     1       1.281   2.613  21.553  0.00  0.00    +0.000 OA
BRANCH  17  19
ATOM     19  C   UNL     1       2.247   4.769  21.154  0.00  0.00    +0.000 C 
BRANCH  19  20
ATOM     20  C   UNL     1       2.447   5.507  19.815  0.00  0.00    +0.000 C 
BRANCH  20  21
ATOM     21  C   UNL     1       2.053   6.965  19.824  0.00  0.00    +0.000 A 
ATOM     22  N   UNL     1       2.287   7.619  18.695  0.00  0.00    +0.000 NA
ATOM     23  C   UNL     1       1.787   8.850  18.639  0.00  0.00    +0.000 A 
ATOM     24  C   UNL     1       1.143   9.527  19.622  0.00  0.00    +0.000 A 
ATOM     25  C   UNL     1       0.741  10.877  19.469  0.00  0.00    +0.000 A 
ATOM     26  C   UNL     1       0.151  11.553  20.510  0.00  0.00    +0.000 A 
ATOM     27  C   UNL     1      -0.038  10.858  21.700  0.00  0.00    +0.000 A 
ATOM     28  C   UNL     1       0.368   9.514  21.834  0.00  0.00    +0.000 A 
ATOM     29  C   UNL     1       0.987   8.808  20.795  0.00  0.00    +0.000 A 
ATOM     30  N   UNL     1       1.420   7.513  20.892  0.00  0.00    +0.000 NA
BRANCH  23  31
ATOM     31  O   UNL     1       2.077   9.397  17.457  0.00  0.00    +0.000 OA
ATOM     32  H   UNL     1       2.894   9.835  17.735  0.00  0.00    +0.000 HD
ENDBRANCH  23  31
ENDBRANCH  20  21
ENDBRANCH  19  20
ENDBRANCH  17  19
ENDBRANCH   1  17
TORSDOF 9
ENDMDL
MODEL 7
REMARK VINA RESULT:      -8.1      1.217      1.627
REMARK  Name = 
REMARK  11 active torsions:
REMARK  status: ('A' for Active; 'I' for Inactive)
REMARK    1  A    between atoms: C_1  and  C_2
REMARK    2  A    between atoms: C_2  and  C_4
REMARK    3  A    between atoms: C_8  and  N_9
REMARK    4  A    between atoms: C_10  and  C_12
REMARK    5  A    between atoms: C_12  and  C_13
REMARK    6  A    between atoms: C_12  and  O_14
REMARK    7  A    between atoms: O_14  and  C_15
REMARK    8  A    between atoms: C_15  and  C_17
REMARK    9  A    between atoms: C_17  and  C_18
REMARK   10  A    between atoms: C_18  and  C_19
REMARK   11  A    between atoms: C_21  and  O_22
REMARK                            x       y       z     vdW  Elec       q    Type
REMARK                         _______ _______ _______ _____ _____    ______ ____
ROOT
ATOM      1  O   UNL     1       0.825   4.242  19.968  0.00  0.00    +0.000 OA
ENDROOT
BRANCH   1   2
ATOM      2  C   UNL     1       1.241   3.494  18.811  0.00  0.00    +0.000 C 
ATOM      3  C   UNL     1       0.610   2.098  18.907  0.00  0.00    +0.000 C 
BRANCH   2   5
ATOM      4  N   UNL     1       3.389   4.355  17.874  0.00  0.00    +0.000 N 
ATOM      5  C   UNL     1       2.789   3.379  18.674  0.00  0.00    +0.000 C 
ATOM      6  O   UNL     1       3.391   2.445  19.205  0.00  0.00    +0.000 OA
ATOM      7  H   UNL     1       2.775   5.108  17.594  0.00  0.00    +0.000 HD
BRANCH   4  12
ATOM      8  C   UNL     1       6.620   4.696  15.978  0.00  0.00    +0.000 A 
ATOM      9  C   UNL     1       7.512   5.036  16.985  0.00  0.00    +0.000 A 
ATOM     10  C   UNL     1       7.068   5.028  18.309  0.00  0.00    +0.000 A 
ATOM     11  C   UNL     1       5.718   4.794  18.616  0.00  0.00    +0.000 A 
ATOM     12  C   UNL     1       4.792   4.488  17.625  0.00  0.00    +0.000 A 
ATOM     13  C   UNL     1       5.305   4.329  16.330  0.00  0.00    +0.000 A 
BRANCH   8  15
ATOM     14  C   UNL     1       6.237   3.872  13.544  0.00  0.00    +0.000 C 
ATOM     15  C   UNL     1       6.976   4.737  14.524  0.00  0.00    +0.000 C 
ATOM     16  O   UNL     1       7.829   5.522  14.121  0.00  0.00    +0.000 OA
ENDBRANCH   8  15
ENDBRANCH   4  12
ENDBRANCH   2   5
ENDBRANCH   1   2
BRANCH   1  17
ATOM     17  C   UNL     1       1.786   4.947  20.624  0.00  0.00    +0.000 C 
ATOM     18  O   UNL     1       2.489   4.486  21.518  0.00  0.00    +0.000 OA
BRANCH  17  19
ATOM     19  C   UNL     1       1.898   6.399  20.202  0.00  0.00    +0.000 C 
BRANCH  19  20
ATOM     20  C   UNL     1       1.470   7.511  21.181  0.00  0.00    +0.000 C 
BRANCH  20  21
ATOM     21  C   UNL     1       1.053   8.809  20.531  0.00  0.00    +0.000 A 
ATOM     22  N   UNL     1       1.531   9.006  19.310  0.00  0.00    +0.000 NA
ATOM     23  C   UNL     1       1.030  10.059  18.669  0.00  0.00    +0.000 A 
ATOM     24  C   UNL     1       0.158  10.980  19.147  0.00  0.00    +0.000 A 
ATOM     25  C   UNL     1      -0.227  12.116  18.392  0.00  0.00    +0.000 A 
ATOM     26  C   UNL     1      -1.061  13.065  18.933  0.00  0.00    +0.000 A 
ATOM     27  C   UNL     1      -1.510  12.858  20.233  0.00  0.00    +0.000 A 
ATOM     28  C   UNL     1      -1.116  11.720  20.970  0.00  0.00    +0.000 A 
ATOM     29  C   UNL     1      -0.255  10.748  20.448  0.00  0.00    +0.000 A 
ATOM     30  N   UNL     1       0.173   9.645  21.138  0.00  0.00    +0.000 NA
BRANCH  23  31
ATOM     31  O   UNL     1       1.579  10.144  17.456  0.00  0.00    +0.000 OA
ATOM     32  H   UNL     1       2.397  10.581  17.734  0.00  0.00    +0.000 HD
ENDBRANCH  23  31
ENDBRANCH  20  21
ENDBRANCH  19  20
ENDBRANCH  17  19
ENDBRANCH   1  17
TORSDOF 9
ENDMDL
MODEL 8
REMARK VINA RESULT:      -8.0      1.774      8.500
REMARK  Name = 
REMARK  11 active torsions:
REMARK  status: ('A' for Active; 'I' for Inactive)
REMARK    1  A    between atoms: C_1  and  C_2
REMARK    2  A    between atoms: C_2  and  C_4
REMARK    3  A    between atoms: C_8  and  N_9
REMARK    4  A    between atoms: C_10  and  C_12
REMARK    5  A    between atoms: C_12  and  C_13
REMARK    6  A    between atoms: C_12  and  O_14
REMARK    7  A    between atoms: O_14  and  C_15
REMARK    8  A    between atoms: C_15  and  C_17
REMARK    9  A    between atoms: C_17  and  C_18
REMARK   10  A    between atoms: C_18  and  C_19
REMARK   11  A    between atoms: C_21  and  O_22
REMARK                            x       y       z     vdW  Elec       q    Type
REMARK                         _______ _______ _______ _____ _____    ______ ____
ROOT
ATOM      1  O   UNL     1       2.734   2.462  19.844  0.00  0.00    +0.000 OA
ENDROOT
BRANCH   1   2
ATOM      2  C   UNL     1       2.469   3.347  20.948  0.00  0.00    +0.000 C 
ATOM      3  C   UNL     1       1.695   2.550  22.008  0.00  0.00    +0.000 C 
BRANCH   2   5
ATOM      4  N   UNL     1       2.413   5.803  20.504  0.00  0.00    +0.000 N 
ATOM      5  C   UNL     1       1.668   4.620  20.540  0.00  0.00    +0.000 C 
ATOM      6  O   UNL     1       0.457   4.552  20.328  0.00  0.00    +0.000 OA
ATOM      7  H   UNL     1       3.411   5.678  20.603  0.00  0.00    +0.000 HD
BRANCH   4  12
ATOM      8  C   UNL     1       0.921   9.242  20.810  0.00  0.00    +0.000 A 
ATOM      9  C   UNL     1       1.173   9.780  19.556  0.00  0.00    +0.000 A 
ATOM     10  C   UNL     1       1.723   8.958  18.570  0.00  0.00    +0.000 A 
ATOM     11  C   UNL     1       2.124   7.646  18.864  0.00  0.00    +0.000 A 
ATOM     12  C   UNL     1       1.920   7.091  20.123  0.00  0.00    +0.000 A 
ATOM     13  C   UNL     1       1.205   7.880  21.035  0.00  0.00    +0.000 A 
BRANCH   8  15
ATOM     14  C   UNL     1      -0.703  11.050  21.728  0.00  0.00    +0.000 C 
ATOM     15  C   UNL     1       0.395  10.052  21.955  0.00  0.00    +0.000 C 
ATOM     16  O   UNL     1       0.817   9.858  23.091  0.00  0.00    +0.000 OA
ENDBRANCH   8  15
ENDBRANCH   4  12
ENDBRANCH   2   5
ENDBRANCH   1   2
BRANCH   1  17
ATOM     17  C   UNL     1       2.327   2.874  18.614  0.00  0.00    +0.000 C 
ATOM     18  O   UNL     1       1.372   2.396  18.009  0.00  0.00    +0.000 OA
BRANCH  17  19
ATOM     19  C   UNL     1       3.189   3.958  17.996  0.00  0.00    +0.000 C 
BRANCH  19  20
ATOM     20  C   UNL     1       4.725   3.822  18.035  0.00  0.00    +0.000 C 
BRANCH  20  21
ATOM     21  C   UNL     1       5.439   4.281  16.785  0.00  0.00    +0.000 A 
ATOM     22  N   UNL     1       6.266   5.304  16.952  0.00  0.00    +0.000 NA
ATOM     23  C   UNL     1       7.022   5.598  15.898  0.00  0.00    +0.000 A 
ATOM     24  C   UNL     1       6.986   5.029  14.668  0.00  0.00    +0.000 A 
ATOM     25  C   UNL     1       7.782   5.500  13.595  0.00  0.00    +0.000 A 
ATOM     26  C   UNL     1       7.671   4.942  12.345  0.00  0.00    +0.000 A 
ATOM     27  C   UNL     1       6.760   3.903  12.185  0.00  0.00    +0.000 A 
ATOM     28  C   UNL     1       5.976   3.446  13.265  0.00  0.00    +0.000 A 
ATOM     29  C   UNL     1       6.058   4.008  14.545  0.00  0.00    +0.000 A 
ATOM     30  N   UNL     1       5.297   3.613  15.612  0.00  0.00    +0.000 NA
BRANCH  23  31
ATOM     31  O   UNL     1       7.814   6.632  16.193  0.00  0.00    +0.000 OA
ATOM     32  H   UNL     1       8.649   6.202  15.955  0.00  0.00    +0.000 HD
ENDBRANCH  23  31
ENDBRANCH  20  21
ENDBRANCH  19  20
ENDBRANCH  17  19
ENDBRANCH   1  17
TORSDOF 9
ENDMDL
MODEL 9
REMARK VINA RESULT:      -8.0      5.464      8.040
REMARK  Name = 
REMARK  11 active torsions:
REMARK  status: ('A' for Active; 'I' for Inactive)
REMARK    1  A    between atoms: C_1  and  C_2
REMARK    2  A    between atoms: C_2  and  C_4
REMARK    3  A    between atoms: C_8  and  N_9
REMARK    4  A    between atoms: C_10  and  C_12
REMARK    5  A    between atoms: C_12  and  C_13
REMARK    6  A    between atoms: C_12  and  O_14
REMARK    7  A    between atoms: O_14  and  C_15
REMARK    8  A    between atoms: C_15  and  C_17
REMARK    9  A    between atoms: C_17  and  C_18
REMARK   10  A    between atoms: C_18  and  C_19
REMARK   11  A    between atoms: C_21  and  O_22
REMARK                            x       y       z     vdW  Elec       q    Type
REMARK                         _______ _______ _______ _____ _____    ______ ____
ROOT
ATOM      1  O   UNL     1       6.363   7.364  17.529  0.00  0.00    +0.000 OA
ENDROOT
BRANCH   1   2
ATOM      2  C   UNL     1       7.770   7.576  17.746  0.00  0.00    +0.000 C 
ATOM      3  C   UNL     1       8.198   6.688  18.924  0.00  0.00    +0.000 C 
BRANCH   2   5
ATOM      4  N   UNL     1       9.057   9.261  19.063  0.00  0.00    +0.000 N 
ATOM      5  C   UNL     1       8.134   9.064  18.032  0.00  0.00    +0.000 C 
ATOM      6  O   UNL     1       7.581   9.969  17.407  0.00  0.00    +0.000 OA
ATOM      7  H   UNL     1       9.493   8.417  19.407  0.00  0.00    +0.000 HD
BRANCH   4  12
ATOM      8  C   UNL     1      10.598  12.688  18.873  0.00  0.00    +0.000 A 
ATOM      9  C   UNL     1      10.382  13.174  20.155  0.00  0.00    +0.000 A 
ATOM     10  C   UNL     1       9.840  12.318  21.116  0.00  0.00    +0.000 A 
ATOM     11  C   UNL     1       9.411  11.026  20.774  0.00  0.00    +0.000 A 
ATOM     12  C   UNL     1       9.579  10.524  19.488  0.00  0.00    +0.000 A 
ATOM     13  C   UNL     1      10.287  11.341  18.595  0.00  0.00    +0.000 A 
BRANCH   8  15
ATOM     14  C   UNL     1      11.428  14.986  17.992  0.00  0.00    +0.000 C 
ATOM     15  C   UNL     1      11.112  13.538  17.753  0.00  0.00    +0.000 C 
ATOM     16  O   UNL     1      11.336  13.039  16.654  0.00  0.00    +0.000 OA
ENDBRANCH   8  15
ENDBRANCH   4  12
ENDBRANCH   2   5
ENDBRANCH   1   2
BRANCH   1  17
ATOM     17  C   UNL     1       6.011   6.661  16.420  0.00  0.00    +0.000 C 
ATOM     18  O   UNL     1       5.193   7.047  15.590  0.00  0.00    +0.000 OA
BRANCH  17  19
ATOM     19  C   UNL     1       6.673   5.301  16.300  0.00  0.00    +0.000 C 
BRANCH  19  20
ATOM     20  C   UNL     1       6.500   4.268  17.432  0.00  0.00    +0.000 C 
BRANCH  20  21
ATOM     21  C   UNL     1       5.080   4.081  17.913  0.00  0.00    +0.000 A 
ATOM     22  N   UNL     1       4.199   3.787  16.967  0.00  0.00    +0.000 NA
ATOM     23  C   UNL     1       2.989   3.452  17.404  0.00  0.00    +0.000 A 
ATOM     24  C   UNL     1       2.542   3.453  18.684  0.00  0.00    +0.000 A 
ATOM     25  C   UNL     1       1.194   3.166  19.013  0.00  0.00    +0.000 A 
ATOM     26  C   UNL     1       0.760   3.241  20.315  0.00  0.00    +0.000 A 
ATOM     27  C   UNL     1       1.694   3.599  21.281  0.00  0.00    +0.000 A 
ATOM     28  C   UNL     1       3.032   3.880  20.936  0.00  0.00    +0.000 A 
ATOM     29  C   UNL     1       3.496   3.827  19.616  0.00  0.00    +0.000 A 
ATOM     30  N   UNL     1       4.777   4.119  19.235  0.00  0.00    +0.000 NA
BRANCH  23  31
ATOM     31  O   UNL     1       2.201   3.171  16.364  0.00  0.00    +0.000 OA
ATOM     32  H   UNL     1       1.386   3.534  16.742  0.00  0.00    +0.000 HD
ENDBRANCH  23  31
ENDBRANCH  20  21
ENDBRANCH  19  20
ENDBRANCH  17  19
ENDBRANCH   1  17
TORSDOF 9
ENDMDL
