MODEL 1
REMARK VINA RESULT:      -8.2      0.000      0.000
REMARK  Name = 
REMARK  4 active torsions:
REMARK  status: ('A' for Active; 'I' for Inactive)
REMARK    1  A    between atoms: C_1  and  C_2
REMARK    2  A    between atoms: C_7  and  C_9
REMARK    3  A    between atoms: C_14  and  S_15
REMARK    4  A    between atoms: S_15  and  N_18
REMARK                            x       y       z     vdW  Elec       q    Type
REMARK                         _______ _______ _______ _____ _____    ______ ____
ROOT
ATOM      1  C   UNL     1       2.068   6.493  19.948  0.00  0.00    +0.000 A 
ATOM      2  C   UNL     1       1.389   5.668  20.859  0.00  0.00    +0.000 A 
ATOM      3  C   UNL     1       1.689   4.309  20.941  0.00  0.00    +0.000 A 
ATOM      4  C   UNL     1       2.667   3.765  20.111  0.00  0.00    +0.000 A 
ATOM      5  F   UNL     1       2.911   2.453  20.209  0.00  0.00    +0.000 F 
ATOM      6  C   UNL     1       3.340   4.569  19.196  0.00  0.00    +0.000 A 
ATOM      7  C   UNL     1       3.044   5.938  19.109  0.00  0.00    +0.000 A 
ENDROOT
BRANCH   1  14
ATOM      8  C   UNL     1      -0.925  12.791  22.824  0.00  0.00    +0.000 C 
ATOM      9  C   UNL     1      -0.383  11.724  21.948  0.00  0.00    +0.000 A 
ATOM     10  C   UNL     1       0.148  11.824  20.678  0.00  0.00    +0.000 A 
ATOM     11  N   UNL     1       0.651  10.655  20.149  0.00  0.00    +0.000 NA
ATOM     12  C   UNL     1       0.472   9.681  21.001  0.00  0.00    +0.000 A 
ATOM     13  N   UNL     1       0.860   8.371  20.914  0.00  0.00    +0.000 N 
ATOM     14  C   UNL     1       1.679   7.933  19.898  0.00  0.00    +0.000 C 
ATOM     15  O   UNL     1       2.123   8.598  18.969  0.00  0.00    +0.000 OA
ATOM     16  S   UNL     1      -0.331  10.084  22.454  0.00  0.00    +0.000 S 
ATOM     17  H   UNL     1       0.518   7.764  21.640  0.00  0.00    +0.000 HD
ENDBRANCH   1  14
BRANCH   6  18
ATOM     18  S   UNL     1       4.718   3.920  18.293  0.00  0.00    +0.000 S 
ATOM     19  O   UNL     1       5.767   3.697  19.273  0.00  0.00    +0.000 OA
ATOM     20  O   UNL     1       4.247   2.825  17.474  0.00  0.00    +0.000 OA
BRANCH  18  21
ATOM     21  N   UNL     1       5.220   5.157  17.290  0.00  0.00    +0.000 NA
ATOM     22  C   UNL     1       5.322   5.004  15.823  0.00  0.00    +0.000 C 
ATOM     23  C   UNL     1       6.774   5.092  15.340  0.00  0.00    +0.000 C 
ATOM     24  O   UNL     1       7.478   6.215  15.887  0.00  0.00    +0.000 OA
ATOM     25  C   UNL     1       7.435   6.217  17.322  0.00  0.00    +0.000 C 
ATOM     26  C   UNL     1       5.991   6.301  17.817  0.00  0.00    +0.000 C 
ENDBRANCH  18  21
ENDBRANCH   6  18
TORSDOF 3
ENDMDL
MODEL 2
REMARK VINA RESULT:      -8.2      1.260      1.325
REMARK  Name = 
REMARK  4 active torsions:
REMARK  status: ('A' for Active; 'I' for Inactive)
REMARK    1  A    between atoms: C_1  and  C_2
REMARK    2  A    between atoms: C_7  and  C_9
REMARK    3  A    between atoms: C_14  and  S_15
REMARK    4  A    between atoms: S_15  and  N_18
REMARK                            x       y       z     vdW  Elec       q    Type
REMARK                         _______ _______ _______ _____ _____    ______ ____
ROOT
ATOM      1  C   UNL     1       2.212   6.829  19.466  0.00  0.00    +0.000 A 
ATOM      2  C   UNL     1       1.464   6.371  20.563  0.00  0.00    +0.000 A 
ATOM      3  C   UNL     1       1.568   5.046  20.985  0.00  0.00    +0.000 A 
ATOM      4  C   UNL     1       2.417   4.170  20.312  0.00  0.00    +0.000 A 
ATOM      5  F   UNL     1       2.474   2.902  20.738  0.00  0.00    +0.000 F 
ATOM      6  C   UNL     1       3.157   4.608  19.217  0.00  0.00    +0.000 A 
ATOM      7  C   UNL     1       3.059   5.940  18.788  0.00  0.00    +0.000 A 
ENDROOT
BRANCH   1  14
ATOM      8  C   UNL     1       0.000  13.956  20.566  0.00  0.00    +0.000 C 
ATOM      9  C   UNL     1       0.430  12.651  20.006  0.00  0.00    +0.000 A 
ATOM     10  C   UNL     1       1.033  12.378  18.794  0.00  0.00    +0.000 A 
ATOM     11  N   UNL     1       1.390  11.063  18.591  0.00  0.00    +0.000 NA
ATOM     12  C   UNL     1       1.033  10.350  19.626  0.00  0.00    +0.000 A 
ATOM     13  N   UNL     1       1.236   9.020  19.874  0.00  0.00    +0.000 N 
ATOM     14  C   UNL     1       2.034   8.252  19.056  0.00  0.00    +0.000 C 
ATOM     15  O   UNL     1       2.614   8.615  18.039  0.00  0.00    +0.000 OA
ATOM     16  S   UNL     1       0.224  11.186  20.877  0.00  0.00    +0.000 S 
ATOM     17  H   UNL     1       0.775   8.651  20.689  0.00  0.00    +0.000 HD
ENDBRANCH   1  14
BRANCH   6  18
ATOM     18  S   UNL     1       4.384   3.553  18.498  0.00  0.00    +0.000 S 
ATOM     19  O   UNL     1       5.205   3.086  19.602  0.00  0.00    +0.000 OA
ATOM     20  O   UNL     1       3.714   2.600  17.640  0.00  0.00    +0.000 OA
BRANCH  18  21
ATOM     21  N   UNL     1       5.331   4.549  17.549  0.00  0.00    +0.000 NA
ATOM     22  C   UNL     1       5.276   4.533  16.072  0.00  0.00    +0.000 C 
ATOM     23  C   UNL     1       6.585   4.028  15.457  0.00  0.00    +0.000 C 
ATOM     24  O   UNL     1       7.745   4.658  16.018  0.00  0.00    +0.000 OA
ATOM     25  C   UNL     1       7.784   4.515  17.445  0.00  0.00    +0.000 C 
ATOM     26  C   UNL     1       6.559   5.169  18.085  0.00  0.00    +0.000 C 
ENDBRANCH  18  21
ENDBRANCH   6  18
TORSDOF 3
ENDMDL
MODEL 3
REMARK VINA RESULT:      -8.1      2.267      3.882
REMARK  Name = 
REMARK  4 active torsions:
REMARK  status: ('A' for Active; 'I' for Inactive)
REMARK    1  A    between atoms: C_1  and  C_2
REMARK    2  A    between atoms: C_7  and  C_9
REMARK    3  A    between atoms: C_14  and  S_15
REMARK    4  A    between atoms: S_15  and  N_18
REMARK                            x       y       z     vdW  Elec       q    Type
REMARK                         _______ _______ _______ _____ _____    ______ ____
ROOT
ATOM      1  C   UNL     1       2.413   7.228  19.421  0.00  0.00    +0.000 A 
ATOM      2  C   UNL     1       2.531   8.025  18.271  0.00  0.00    +0.000 A 
ATOM      3  C   UNL     1       3.333   7.615  17.206  0.00  0.00    +0.000 A 
ATOM      4  C   UNL     1       4.024   6.408  17.286  0.00  0.00    +0.000 A 
ATOM      5  F   UNL     1       4.797   6.060  16.250  0.00  0.00    +0.000 F 
ATOM      6  C   UNL     1       3.925   5.612  18.423  0.00  0.00    +0.000 A 
ATOM      7  C   UNL     1       3.118   6.018  19.498  0.00  0.00    +0.000 A 
ENDROOT
BRANCH   1  14
ATOM      8  C   UNL     1      -1.638  12.528  22.940  0.00  0.00    +0.000 C 
ATOM      9  C   UNL     1      -0.843  11.332  22.571  0.00  0.00    +0.000 A 
ATOM     10  C   UNL     1      -0.795  10.094  23.180  0.00  0.00    +0.000 A 
ATOM     11  N   UNL     1      -0.015   9.150  22.548  0.00  0.00    +0.000 NA
ATOM     12  C   UNL     1       0.541   9.681  21.493  0.00  0.00    +0.000 A 
ATOM     13  N   UNL     1       1.346   9.100  20.550  0.00  0.00    +0.000 N 
ATOM     14  C   UNL     1       1.556   7.739  20.530  0.00  0.00    +0.000 C 
ATOM     15  O   UNL     1       1.111   6.912  21.317  0.00  0.00    +0.000 OA
ATOM     16  S   UNL     1       0.204  11.332  21.209  0.00  0.00    +0.000 S 
ATOM     17  H   UNL     1       1.757   9.726  19.879  0.00  0.00    +0.000 HD
ENDBRANCH   1  14
BRANCH   6  18
ATOM     18  S   UNL     1       4.636   3.992  18.437  0.00  0.00    +0.000 S 
ATOM     19  O   UNL     1       4.854   3.641  17.044  0.00  0.00    +0.000 OA
ATOM     20  O   UNL     1       5.745   3.992  19.366  0.00  0.00    +0.000 OA
BRANCH  18  21
ATOM     21  N   UNL     1       3.444   2.983  19.030  0.00  0.00    +0.000 NA
ATOM     22  C   UNL     1       2.126   2.834  18.378  0.00  0.00    +0.000 C 
ATOM     23  C   UNL     1       0.992   3.379  19.252  0.00  0.00    +0.000 C 
ATOM     24  O   UNL     1       1.059   2.914  20.608  0.00  0.00    +0.000 OA
ATOM     25  C   UNL     1       2.329   3.212  21.205  0.00  0.00    +0.000 C 
ATOM     26  C   UNL     1       3.460   2.530  20.436  0.00  0.00    +0.000 C 
ENDBRANCH  18  21
ENDBRANCH   6  18
TORSDOF 3
ENDMDL
MODEL 4
REMARK VINA RESULT:      -7.9      2.801      4.036
REMARK  Name = 
REMARK  4 active torsions:
REMARK  status: ('A' for Active; 'I' for Inactive)
REMARK    1  A    between atoms: C_1  and  C_2
REMARK    2  A    between atoms: C_7  and  C_9
REMARK    3  A    between atoms: C_14  and  S_15
REMARK    4  A    between atoms: S_15  and  N_18
REMARK                            x       y       z     vdW  Elec       q    Type
REMARK                         _______ _______ _______ _____ _____    ______ ____
ROOT
ATOM      1  C   UNL     1       1.120   8.865  20.138  0.00  0.00    +0.000 A 
ATOM      2  C   UNL     1       1.249   9.447  18.867  0.00  0.00    +0.000 A 
ATOM      3  C   UNL     1       2.029   8.836  17.886  0.00  0.00    +0.000 A 
ATOM      4  C   UNL     1       2.687   7.642  18.170  0.00  0.00    +0.000 A 
ATOM      5  F   UNL     1       3.440   7.098  17.207  0.00  0.00    +0.000 F 
ATOM      6  C   UNL     1       2.577   7.059  19.429  0.00  0.00    +0.000 A 
ATOM      7  C   UNL     1       1.792   7.668  20.421  0.00  0.00    +0.000 A 
ENDROOT
BRANCH   1  14
ATOM      8  C   UNL     1      -4.073  13.910  22.254  0.00  0.00    +0.000 C 
ATOM      9  C   UNL     1      -2.956  12.937  22.182  0.00  0.00    +0.000 A 
ATOM     10  C   UNL     1      -2.387  12.186  23.190  0.00  0.00    +0.000 A 
ATOM     11  N   UNL     1      -1.409  11.301  22.793  0.00  0.00    +0.000 NA
ATOM     12  C   UNL     1      -1.223  11.407  21.504  0.00  0.00    +0.000 A 
ATOM     13  N   UNL     1      -0.393  10.691  20.685  0.00  0.00    +0.000 N 
ATOM     14  C   UNL     1       0.288   9.586  21.146  0.00  0.00    +0.000 C 
ATOM     15  O   UNL     1       0.277   9.134  22.285  0.00  0.00    +0.000 OA
ATOM     16  S   UNL     1      -2.166  12.582  20.699  0.00  0.00    +0.000 S 
ATOM     17  H   UNL     1      -0.326  11.017  19.736  0.00  0.00    +0.000 HD
ENDBRANCH   1  14
BRANCH   6  18
ATOM     18  S   UNL     1       3.243   5.445  19.720  0.00  0.00    +0.000 S 
ATOM     19  O   UNL     1       4.684   5.581  19.594  0.00  0.00    +0.000 OA
ATOM     20  O   UNL     1       2.668   4.932  20.944  0.00  0.00    +0.000 OA
BRANCH  18  21
ATOM     21  N   UNL     1       2.712   4.504  18.447  0.00  0.00    +0.000 NA
ATOM     22  C   UNL     1       1.346   3.941  18.385  0.00  0.00    +0.000 C 
ATOM     23  C   UNL     1       1.355   2.411  18.475  0.00  0.00    +0.000 C 
ATOM     24  O   UNL     1       2.305   1.805  17.588  0.00  0.00    +0.000 OA
ATOM     25  C   UNL     1       3.628   2.319  17.803  0.00  0.00    +0.000 C 
ATOM     26  C   UNL     1       3.668   3.825  17.549  0.00  0.00    +0.000 C 
ENDBRANCH  18  21
ENDBRANCH   6  18
TORSDOF 3
ENDMDL
MODEL 5
REMARK VINA RESULT:      -7.9      2.418      3.844
REMARK  Name = 
REMARK  4 active torsions:
REMARK  status: ('A' for Active; 'I' for Inactive)
REMARK    1  A    between atoms: C_1  and  C_2
REMARK    2  A    between atoms: C_7  and  C_9
REMARK    3  A    between atoms: C_14  and  S_15
REMARK    4  A    between atoms: S_15  and  N_18
REMARK                            x       y       z     vdW  Elec       q    Type
REMARK                         _______ _______ _______ _____ _____    ______ ____
ROOT
ATOM      1  C   UNL     1       2.779   7.284  18.101  0.00  0.00    +0.000 A 
ATOM      2  C   UNL     1       4.157   7.331  17.839  0.00  0.00    +0.000 A 
ATOM      3  C   UNL     1       4.865   6.161  17.565  0.00  0.00    +0.000 A 
ATOM      4  C   UNL     1       4.200   4.937  17.555  0.00  0.00    +0.000 A 
ATOM      5  F   UNL     1       4.920   3.837  17.306  0.00  0.00    +0.000 F 
ATOM      6  C   UNL     1       2.836   4.874  17.824  0.00  0.00    +0.000 A 
ATOM      7  C   UNL     1       2.117   6.048  18.098  0.00  0.00    +0.000 A 
ENDROOT
BRANCH   1  14
ATOM      8  C   UNL     1      -0.853  12.093  22.637  0.00  0.00    +0.000 C 
ATOM      9  C   UNL     1      -0.281  11.351  21.487  0.00  0.00    +0.000 A 
ATOM     10  C   UNL     1      -0.048  11.784  20.198  0.00  0.00    +0.000 A 
ATOM     11  N   UNL     1       0.577  10.877  19.369  0.00  0.00    +0.000 NA
ATOM     12  C   UNL     1       0.783   9.764  20.020  0.00  0.00    +0.000 A 
ATOM     13  N   UNL     1       1.416   8.623  19.608  0.00  0.00    +0.000 N 
ATOM     14  C   UNL     1       2.090   8.572  18.408  0.00  0.00    +0.000 C 
ATOM     15  O   UNL     1       2.188   9.468  17.578  0.00  0.00    +0.000 OA
ATOM     16  S   UNL     1       0.219   9.714  21.632  0.00  0.00    +0.000 S 
ATOM     17  H   UNL     1       1.363   7.840  20.238  0.00  0.00    +0.000 HD
ENDBRANCH   1  14
BRANCH   6  18
ATOM     18  S   UNL     1       1.960   3.350  17.608  0.00  0.00    +0.000 S 
ATOM     19  O   UNL     1       0.550   3.700  17.595  0.00  0.00    +0.000 OA
ATOM     20  O   UNL     1       2.543   2.649  16.486  0.00  0.00    +0.000 OA
BRANCH  18  21
ATOM     21  N   UNL     1       2.248   2.467  18.997  0.00  0.00    +0.000 NA
ATOM     22  C   UNL     1       1.536   2.721  20.267  0.00  0.00    +0.000 C 
ATOM     23  C   UNL     1       2.480   3.244  21.355  0.00  0.00    +0.000 C 
ATOM     24  O   UNL     1       3.680   2.468  21.473  0.00  0.00    +0.000 OA
ATOM     25  C   UNL     1       4.375   2.379  20.220  0.00  0.00    +0.000 C 
ATOM     26  C   UNL     1       3.499   1.701  19.167  0.00  0.00    +0.000 C 
ENDBRANCH  18  21
ENDBRANCH   6  18
TORSDOF 3
ENDMDL
MODEL 6
REMARK VINA RESULT:      -7.8      1.810      2.312
REMARK  Name = 
REMARK  4 active torsions:
REMARK  status: ('A' for Active; 'I' for Inactive)
REMARK    1  A    between atoms: C_1  and  C_2
REMARK    2  A    between atoms: C_7  and  C_9
REMARK    3  A    between atoms: C_14  and  S_15
REMARK    4  A    between atoms: S_15  and  N_18
REMARK                            x       y       z     vdW  Elec       q    Type
REMARK                         _______ _______ _______ _____ _____    ______ ____
ROOT
ATOM      1  C   UNL     1       2.856   7.222  18.420  0.00  0.00    +0.000 A 
ATOM      2  C   UNL     1       2.704   6.350  19.511  0.00  0.00    +0.000 A 
ATOM      3  C   UNL     1       3.358   5.119  19.527  0.00  0.00    +0.000 A 
ATOM      4  C   UNL     1       4.165   4.749  18.452  0.00  0.00    +0.000 A 
ATOM      5  F   UNL     1       4.760   3.552  18.500  0.00  0.00    +0.000 F 
ATOM      6  C   UNL     1       4.316   5.599  17.360  0.00  0.00    +0.000 A 
ATOM      7  C   UNL     1       3.661   6.841  17.338  0.00  0.00    +0.000 A 
ENDROOT
BRANCH   1  14
ATOM      8  C   UNL     1      -0.819  12.801  21.921  0.00  0.00    +0.000 C 
ATOM      9  C   UNL     1      -0.264  11.834  20.944  0.00  0.00    +0.000 A 
ATOM     10  C   UNL     1      -0.123  11.958  19.576  0.00  0.00    +0.000 A 
ATOM     11  N   UNL     1       0.511  10.909  18.946  0.00  0.00    +0.000 NA
ATOM     12  C   UNL     1       0.817   9.993  19.826  0.00  0.00    +0.000 A 
ATOM     13  N   UNL     1       1.494   8.817  19.654  0.00  0.00    +0.000 N 
ATOM     14  C   UNL     1       2.108   8.513  18.460  0.00  0.00    +0.000 C 
ATOM     15  O   UNL     1       2.110   9.189  17.437  0.00  0.00    +0.000 OA
ATOM     16  S   UNL     1       0.340  10.303  21.437  0.00  0.00    +0.000 S 
ATOM     17  H   UNL     1       1.520   8.205  20.452  0.00  0.00    +0.000 HD
ENDBRANCH   1  14
BRANCH   6  18
ATOM     18  S   UNL     1       5.498   5.218  16.098  0.00  0.00    +0.000 S 
ATOM     19  O   UNL     1       5.443   3.777  15.924  0.00  0.00    +0.000 OA
ATOM     20  O   UNL     1       5.255   6.094  14.973  0.00  0.00    +0.000 OA
BRANCH  18  21
ATOM     21  N   UNL     1       6.989   5.592  16.752  0.00  0.00    +0.000 NA
ATOM     22  C   UNL     1       7.600   4.808  17.847  0.00  0.00    +0.000 C 
ATOM     23  C   UNL     1       7.714   5.625  19.138  0.00  0.00    +0.000 C 
ATOM     24  O   UNL     1       8.282   6.925  18.928  0.00  0.00    +0.000 OA
ATOM     25  C   UNL     1       7.551   7.666  17.940  0.00  0.00    +0.000 C 
ATOM     26  C   UNL     1       7.574   6.938  16.595  0.00  0.00    +0.000 C 
ENDBRANCH  18  21
ENDBRANCH   6  18
TORSDOF 3
ENDMDL
MODEL 7
REMARK VINA RESULT:      -7.7      2.253      4.009
REMARK  Name = 
REMARK  4 active torsions:
REMARK  status: ('A' for Active; 'I' for Inactive)
REMARK    1  A    between atoms: C_1  and  C_2
REMARK    2  A    between atoms: C_7  and  C_9
REMARK    3  A    between atoms: C_14  and  S_15
REMARK    4  A    between atoms: S_15  and  N_18
REMARK                            x       y       z     vdW  Elec       q    Type
REMARK                         _______ _______ _______ _____ _____    ______ ____
ROOT
ATOM      1  C   UNL     1       3.245   6.995  17.928  0.00  0.00    +0.000 A 
ATOM      2  C   UNL     1       4.555   7.303  17.528  0.00  0.00    +0.000 A 
ATOM      3  C   UNL     1       5.453   6.285  17.206  0.00  0.00    +0.000 A 
ATOM      4  C   UNL     1       5.048   4.955  17.285  0.00  0.00    +0.000 A 
ATOM      5  F   UNL     1       5.946   4.009  16.986  0.00  0.00    +0.000 F 
ATOM      6  C   UNL     1       3.756   4.634  17.690  0.00  0.00    +0.000 A 
ATOM      7  C   UNL     1       2.846   5.653  18.014  0.00  0.00    +0.000 A 
ENDROOT
BRANCH   1  14
ATOM      8  C   UNL     1      -0.770  11.205  22.729  0.00  0.00    +0.000 C 
ATOM      9  C   UNL     1      -0.189  10.534  21.540  0.00  0.00    +0.000 A 
ATOM     10  C   UNL     1      -0.194  10.939  20.220  0.00  0.00    +0.000 A 
ATOM     11  N   UNL     1       0.507  10.134  19.349  0.00  0.00    +0.000 NA
ATOM     12  C   UNL     1       1.008   9.120  20.001  0.00  0.00    +0.000 A 
ATOM     13  N   UNL     1       1.812   8.109  19.548  0.00  0.00    +0.000 N 
ATOM     14  C   UNL     1       2.345   8.132  18.279  0.00  0.00    +0.000 C 
ATOM     15  O   UNL     1       2.164   8.986  17.418  0.00  0.00    +0.000 OA
ATOM     16  S   UNL     1       0.649   9.041  21.670  0.00  0.00    +0.000 S 
ATOM     17  H   UNL     1       1.991   7.365  20.202  0.00  0.00    +0.000 HD
ENDBRANCH   1  14
BRANCH   6  18
ATOM     18  S   UNL     1       3.186   2.961  17.591  0.00  0.00    +0.000 S 
ATOM     19  O   UNL     1       2.082   2.972  16.646  0.00  0.00    +0.000 OA
ATOM     20  O   UNL     1       4.329   2.107  17.361  0.00  0.00    +0.000 OA
BRANCH  18  21
ATOM     21  N   UNL     1       2.556   2.612  19.099  0.00  0.00    +0.000 NA
ATOM     22  C   UNL     1       1.104   2.621  19.380  0.00  0.00    +0.000 C 
ATOM     23  C   UNL     1       0.719   3.739  20.354  0.00  0.00    +0.000 C 
ATOM     24  O   UNL     1       1.565   3.788  21.511  0.00  0.00    +0.000 OA
ATOM     25  C   UNL     1       2.948   3.907  21.148  0.00  0.00    +0.000 C 
ATOM     26  C   UNL     1       3.391   2.705  20.314  0.00  0.00    +0.000 C 
ENDBRANCH  18  21
ENDBRANCH   6  18
TORSDOF 3
ENDMDL
MODEL 8
REMARK VINA RESULT:      -7.6      1.955      2.655
REMARK  Name = 
REMARK  4 active torsions:
REMARK  status: ('A' for Active; 'I' for Inactive)
REMARK    1  A    between atoms: C_1  and  C_2
REMARK    2  A    between atoms: C_7  and  C_9
REMARK    3  A    between atoms: C_14  and  S_15
REMARK    4  A    between atoms: S_15  and  N_18
REMARK                            x       y       z     vdW  Elec       q    Type
REMARK                         _______ _______ _______ _____ _____    ______ ____
ROOT
ATOM      1  C   UNL     1       2.184   7.629  19.431  0.00  0.00    +0.000 A 
ATOM      2  C   UNL     1       2.250   8.456  18.298  0.00  0.00    +0.000 A 
ATOM      3  C   UNL     1       3.007   8.079  17.190  0.00  0.00    +0.000 A 
ATOM      4  C   UNL     1       3.706   6.873  17.207  0.00  0.00    +0.000 A 
ATOM      5  F   UNL     1       4.434   6.557  16.130  0.00  0.00    +0.000 F 
ATOM      6  C   UNL     1       3.658   6.048  18.327  0.00  0.00    +0.000 A 
ATOM      7  C   UNL     1       2.897   6.421  19.445  0.00  0.00    +0.000 A 
ENDROOT
BRANCH   1  14
ATOM      8  C   UNL     1      -2.089  12.666  23.071  0.00  0.00    +0.000 C 
ATOM      9  C   UNL     1      -1.208  11.538  22.683  0.00  0.00    +0.000 A 
ATOM     10  C   UNL     1      -0.980  10.344  23.336  0.00  0.00    +0.000 A 
ATOM     11  N   UNL     1      -0.161   9.452  22.677  0.00  0.00    +0.000 NA
ATOM     12  C   UNL     1       0.247   9.983  21.556  0.00  0.00    +0.000 A 
ATOM     13  N   UNL     1       1.026   9.439  20.571  0.00  0.00    +0.000 N 
ATOM     14  C   UNL     1       1.374   8.107  20.589  0.00  0.00    +0.000 C 
ATOM     15  O   UNL     1       1.085   7.279  21.446  0.00  0.00    +0.000 OA
ATOM     16  S   UNL     1      -0.284  11.576  21.236  0.00  0.00    +0.000 S 
ATOM     17  H   UNL     1       1.312  10.068  19.841  0.00  0.00    +0.000 HD
ENDBRANCH   1  14
BRANCH   6  18
ATOM     18  S   UNL     1       4.376   4.431  18.266  0.00  0.00    +0.000 S 
ATOM     19  O   UNL     1       4.252   3.890  19.609  0.00  0.00    +0.000 OA
ATOM     20  O   UNL     1       3.801   3.723  17.143  0.00  0.00    +0.000 OA
BRANCH  18  21
ATOM     21  N   UNL     1       6.002   4.672  17.967  0.00  0.00    +0.000 NA
ATOM     22  C   UNL     1       6.796   5.708  18.661  0.00  0.00    +0.000 C 
ATOM     23  C   UNL     1       7.269   6.803  17.699  0.00  0.00    +0.000 C 
ATOM     24  O   UNL     1       7.862   6.278  16.503  0.00  0.00    +0.000 OA
ATOM     25  C   UNL     1       6.973   5.378  15.826  0.00  0.00    +0.000 C 
ATOM     26  C   UNL     1       6.628   4.188  16.721  0.00  0.00    +0.000 C 
ENDBRANCH  18  21
ENDBRANCH   6  18
TORSDOF 3
ENDMDL
MODEL 9
REMARK VINA RESULT:      -7.6      1.500      1.720
REMARK  Name = 
REMARK  4 active torsions:
REMARK  status: ('A' for Active; 'I' for Inactive)
REMARK    1  A    between atoms: C_1  and  C_2
REMARK    2  A    between atoms: C_7  and  C_9
REMARK    3  A    between atoms: C_14  and  S_15
REMARK    4  A    between atoms: S_15  and  N_18
REMARK                            x       y       z     vdW  Elec       q    Type
REMARK                         _______ _______ _______ _____ _____    ______ ____
ROOT
ATOM      1  C   UNL     1       1.787   6.013  20.245  0.00  0.00    +0.000 A 
ATOM      2  C   UNL     1       0.904   5.033  20.727  0.00  0.00    +0.000 A 
ATOM      3  C   UNL     1       1.120   3.685  20.441  0.00  0.00    +0.000 A 
ATOM      4  C   UNL     1       2.217   3.309  19.669  0.00  0.00    +0.000 A 
ATOM      5  F   UNL     1       2.378   2.007  19.403  0.00  0.00    +0.000 F 
ATOM      6  C   UNL     1       3.095   4.270  19.177  0.00  0.00    +0.000 A 
ATOM      7  C   UNL     1       2.884   5.628  19.462  0.00  0.00    +0.000 A 
ENDROOT
BRANCH   1  14
ATOM      8  C   UNL     1       0.593  13.246  18.472  0.00  0.00    +0.000 C 
ATOM      9  C   UNL     1       0.883  11.958  19.147  0.00  0.00    +0.000 A 
ATOM     10  C   UNL     1       0.780  11.631  20.484  0.00  0.00    +0.000 A 
ATOM     11  N   UNL     1       1.045  10.316  20.797  0.00  0.00    +0.000 NA
ATOM     12  C   UNL     1       1.373   9.668  19.712  0.00  0.00    +0.000 A 
ATOM     13  N   UNL     1       1.662   8.340  19.548  0.00  0.00    +0.000 N 
ATOM     14  C   UNL     1       1.481   7.437  20.570  0.00  0.00    +0.000 C 
ATOM     15  O   UNL     1       1.093   7.677  21.708  0.00  0.00    +0.000 OA
ATOM     16  S   UNL     1       1.423  10.584  18.270  0.00  0.00    +0.000 S 
ATOM     17  H   UNL     1       2.001   8.075  18.638  0.00  0.00    +0.000 HD
ENDBRANCH   1  14
BRANCH   6  18
ATOM     18  S   UNL     1       4.594   3.774  18.376  0.00  0.00    +0.000 S 
ATOM     19  O   UNL     1       5.508   3.398  19.440  0.00  0.00    +0.000 OA
ATOM     20  O   UNL     1       4.259   2.824  17.339  0.00  0.00    +0.000 OA
BRANCH  18  21
ATOM     21  N   UNL     1       5.197   5.156  17.657  0.00  0.00    +0.000 NA
ATOM     22  C   UNL     1       5.109   5.403  16.202  0.00  0.00    +0.000 C 
ATOM     23  C   UNL     1       6.491   5.411  15.541  0.00  0.00    +0.000 C 
ATOM     24  O   UNL     1       7.441   6.226  16.242  0.00  0.00    +0.000 OA
ATOM     25  C   UNL     1       7.556   5.835  17.618  0.00  0.00    +0.000 C 
ATOM     26  C   UNL     1       6.214   5.986  18.334  0.00  0.00    +0.000 C 
ENDBRANCH  18  21
ENDBRANCH   6  18
TORSDOF 3
ENDMDL
