MODEL 1
REMARK VINA RESULT:      -7.5      0.000      0.000
REMARK  Name = 
REMARK  14 active torsions:
REMARK  status: ('A' for Active; 'I' for Inactive)
REMARK    1  A    between atoms: C_1  and  S_2
REMARK    2  A    between atoms: S_2  and  C_3
REMARK    3  A    between atoms: C_8  and  O_9
REMARK    4  A    between atoms: O_9  and  C_10
REMARK    5  A    between atoms: C_10  and  C_11
REMARK    6  A    between atoms: C_10  and  C_12
REMARK    7  A    between atoms: C_10  and  C_13
REMARK    8  A    between atoms: C_16  and  C_17
REMARK    9  A    between atoms: C_17  and  C_18
REMARK   10  A    between atoms: C_19  and  C_20
REMARK   11  A    between atoms: C_20  and  C_21
REMARK   12  A    between atoms: C_21  and  C_22
REMARK   13  A    between atoms: C_22  and  O_24
REMARK   14  A    between atoms: C_25  and  C_26
REMARK                            x       y       z     vdW  Elec       q    Type
REMARK                         _______ _______ _______ _____ _____    ______ ____
ROOT
ATOM      1  C   UNL     1       2.331   7.749  19.086  0.00  0.00    +0.000 C 
ATOM      2  O   UNL     1       2.046   8.180  17.756  0.00  0.00    +0.000 OA
ATOM      3  C   UNL     1       2.066   9.601  17.670  0.00  0.00    +0.000 C 
ATOM      4  C   UNL     1       1.067  10.236  18.641  0.00  0.00    +0.000 C 
ATOM      5  C   UNL     1       1.338   9.670  20.053  0.00  0.00    +0.000 C 
ATOM      6  O   UNL     1       1.341   8.240  19.989  0.00  0.00    +0.000 OA
ENDROOT
BRANCH   5   7
ATOM      7  C   UNL     1       0.418  10.115  21.174  0.00  0.00    +0.000 A 
ATOM      8  C   UNL     1       0.107  11.470  21.361  0.00  0.00    +0.000 A 
ATOM      9  C   UNL     1      -0.706  11.870  22.417  0.00  0.00    +0.000 A 
ATOM     10  C   UNL     1      -1.218  10.895  23.252  0.00  0.00    +0.000 A 
ATOM     11  N   UNL     1      -1.009   9.575  23.069  0.00  0.00    +0.000 NA
ATOM     12  C   UNL     1      -0.209   9.220  22.037  0.00  0.00    +0.000 A 
ENDBRANCH   5   7
BRANCH   1  13
ATOM     13  C   UNL     1       2.492   6.170  19.215  0.00  0.00    +0.000 C 
ATOM     14  C   UNL     1       1.774   5.644  17.949  0.00  0.00    +0.000 C 
ATOM     15  C   UNL     1       1.902   5.809  20.595  0.00  0.00    +0.000 C 
BRANCH  13  16
ATOM     16  O   UNL     1       3.875   5.770  19.192  0.00  0.00    +0.000 OA
BRANCH  16  22
ATOM     17  C   UNL     1       4.612   3.973  17.506  0.00  0.00    +0.000 A 
ATOM     18  C   UNL     1       5.363   3.805  16.319  0.00  0.00    +0.000 A 
ATOM     19  C   UNL     1       6.086   4.847  15.745  0.00  0.00    +0.000 A 
ATOM     20  C   UNL     1       6.072   6.094  16.348  0.00  0.00    +0.000 A 
ATOM     21  C   UNL     1       5.311   6.295  17.501  0.00  0.00    +0.000 A 
ATOM     22  C   UNL     1       4.550   5.266  18.097  0.00  0.00    +0.000 A 
BRANCH  17  24
ATOM     23  C   UNL     1       4.231   2.327  19.758  0.00  0.00    +0.000 C 
ATOM     24  S   UNL     1       3.773   2.451  18.011  0.00  0.00    +0.000 S 
ENDBRANCH  17  24
ENDBRANCH  16  22
ENDBRANCH  13  16
ENDBRANCH   1  13
BRANCH   4  25
ATOM     25  C   UNL     1      -0.382  10.055  18.123  0.00  0.00    +0.000 C 
BRANCH  25  26
ATOM     26  C   UNL     1      -1.322  11.231  18.196  0.00  0.00    +0.000 C 
ATOM     27  C   UNL     1      -2.508  11.313  17.574  0.00  0.00    +0.000 C 
BRANCH  27  28
ATOM     28  C   UNL     1      -3.124  10.217  16.754  0.00  0.00    +0.000 C 
BRANCH  28  29
ATOM     29  C   UNL     1      -4.008  10.757  15.637  0.00  0.00    +0.000 C 
BRANCH  29  30
ATOM     30  C   UNL     1      -3.658  10.091  14.326  0.00  0.00    +0.000 C 
ATOM     31  O   UNL     1      -4.452   9.761  13.461  0.00  0.00    +0.000 OA
BRANCH  30  32
ATOM     32  O   UNL     1      -2.327   9.893  14.187  0.00  0.00    +0.000 OA
ATOM     33  H   UNL     1      -1.943   9.324  14.878  0.00  0.00    +0.000 HD
ENDBRANCH  30  32
ENDBRANCH  29  30
ENDBRANCH  28  29
ENDBRANCH  27  28
ENDBRANCH  25  26
ENDBRANCH   4  25
TORSDOF 11
ENDMDL
MODEL 2
REMARK VINA RESULT:      -7.5      3.591      8.435
REMARK  Name = 
REMARK  14 active torsions:
REMARK  status: ('A' for Active; 'I' for Inactive)
REMARK    1  A    between atoms: C_1  and  S_2
REMARK    2  A    between atoms: S_2  and  C_3
REMARK    3  A    between atoms: C_8  and  O_9
REMARK    4  A    between atoms: O_9  and  C_10
REMARK    5  A    between atoms: C_10  and  C_11
REMARK    6  A    between atoms: C_10  and  C_12
REMARK    7  A    between atoms: C_10  and  C_13
REMARK    8  A    between atoms: C_16  and  C_17
REMARK    9  A    between atoms: C_17  and  C_18
REMARK   10  A    between atoms: C_19  and  C_20
REMARK   11  A    between atoms: C_20  and  C_21
REMARK   12  A    between atoms: C_21  and  C_22
REMARK   13  A    between atoms: C_22  and  O_24
REMARK   14  A    between atoms: C_25  and  C_26
REMARK                            x       y       z     vdW  Elec       q    Type
REMARK                         _______ _______ _______ _____ _____    ______ ____
ROOT
ATOM      1  C   UNL     1       2.068   8.270  18.044  0.00  0.00    +0.000 C 
ATOM      2  O   UNL     1       3.403   8.435  17.565  0.00  0.00    +0.000 OA
ATOM      3  C   UNL     1       3.837   7.273  16.868  0.00  0.00    +0.000 C 
ATOM      4  C   UNL     1       3.759   6.025  17.753  0.00  0.00    +0.000 C 
ATOM      5  C   UNL     1       2.331   5.934  18.336  0.00  0.00    +0.000 C 
ATOM      6  O   UNL     1       2.002   7.179  18.961  0.00  0.00    +0.000 OA
ENDROOT
BRANCH   5   7
ATOM      7  C   UNL     1       2.041   4.801  19.302  0.00  0.00    +0.000 A 
ATOM      8  C   UNL     1       1.543   3.571  18.848  0.00  0.00    +0.000 A 
ATOM      9  C   UNL     1       1.243   2.553  19.747  0.00  0.00    +0.000 A 
ATOM     10  C   UNL     1       1.476   2.780  21.090  0.00  0.00    +0.000 A 
ATOM     11  N   UNL     1       2.023   3.917  21.569  0.00  0.00    +0.000 NA
ATOM     12  C   UNL     1       2.298   4.889  20.668  0.00  0.00    +0.000 A 
ENDBRANCH   5   7
BRANCH   1  13
ATOM     13  C   UNL     1       1.462   9.596  18.684  0.00  0.00    +0.000 C 
ATOM     14  C   UNL     1      -0.046   9.481  18.357  0.00  0.00    +0.000 C 
ATOM     15  C   UNL     1       2.261  10.758  18.056  0.00  0.00    +0.000 C 
BRANCH  13  16
ATOM     16  O   UNL     1       1.649   9.634  20.112  0.00  0.00    +0.000 OA
BRANCH  16  22
ATOM     17  C   UNL     1       0.278  11.516  21.203  0.00  0.00    +0.000 A 
ATOM     18  C   UNL     1      -0.680  11.747  22.219  0.00  0.00    +0.000 A 
ATOM     19  C   UNL     1      -1.105  10.740  23.081  0.00  0.00    +0.000 A 
ATOM     20  C   UNL     1      -0.580   9.465  22.944  0.00  0.00    +0.000 A 
ATOM     21  C   UNL     1       0.341   9.203  21.928  0.00  0.00    +0.000 A 
ATOM     22  C   UNL     1       0.777  10.196  21.024  0.00  0.00    +0.000 A 
BRANCH  17  24
ATOM     23  C   UNL     1      -0.808  13.093  19.140  0.00  0.00    +0.000 C 
ATOM     24  S   UNL     1       0.630  13.005  20.237  0.00  0.00    +0.000 S 
ENDBRANCH  17  24
ENDBRANCH  16  22
ENDBRANCH  13  16
ENDBRANCH   1  13
BRANCH   4  25
ATOM     25  C   UNL     1       4.902   6.032  18.799  0.00  0.00    +0.000 C 
BRANCH  25  26
ATOM     26  C   UNL     1       5.783   4.814  18.907  0.00  0.00    +0.000 C 
ATOM     27  C   UNL     1       6.579   4.347  17.932  0.00  0.00    +0.000 C 
BRANCH  27  28
ATOM     28  C   UNL     1       6.771   5.001  16.595  0.00  0.00    +0.000 C 
BRANCH  28  29
ATOM     29  C   UNL     1       6.102   4.223  15.468  0.00  0.00    +0.000 C 
BRANCH  29  30
ATOM     30  C   UNL     1       6.781   4.524  14.152  0.00  0.00    +0.000 C 
ATOM     31  O   UNL     1       6.517   4.005  13.079  0.00  0.00    +0.000 OA
BRANCH  30  32
ATOM     32  O   UNL     1       7.744   5.467  14.271  0.00  0.00    +0.000 OA
ATOM     33  H   UNL     1       7.752   6.111  13.541  0.00  0.00    +0.000 HD
ENDBRANCH  30  32
ENDBRANCH  29  30
ENDBRANCH  28  29
ENDBRANCH  27  28
ENDBRANCH  25  26
ENDBRANCH   4  25
TORSDOF 11
ENDMDL
MODEL 3
REMARK VINA RESULT:      -7.4      0.740      1.066
REMARK  Name = 
REMARK  14 active torsions:
REMARK  status: ('A' for Active; 'I' for Inactive)
REMARK    1  A    between atoms: C_1  and  S_2
REMARK    2  A    between atoms: S_2  and  C_3
REMARK    3  A    between atoms: C_8  and  O_9
REMARK    4  A    between atoms: O_9  and  C_10
REMARK    5  A    between atoms: C_10  and  C_11
REMARK    6  A    between atoms: C_10  and  C_12
REMARK    7  A    between atoms: C_10  and  C_13
REMARK    8  A    between atoms: C_16  and  C_17
REMARK    9  A    between atoms: C_17  and  C_18
REMARK   10  A    between atoms: C_19  and  C_20
REMARK   11  A    between atoms: C_20  and  C_21
REMARK   12  A    between atoms: C_21  and  C_22
REMARK   13  A    between atoms: C_22  and  O_24
REMARK   14  A    between atoms: C_25  and  C_26
REMARK                            x       y       z     vdW  Elec       q    Type
REMARK                         _______ _______ _______ _____ _____    ______ ____
ROOT
ATOM      1  C   UNL     1       2.366   7.553  19.104  0.00  0.00    +0.000 C 
ATOM      2  O   UNL     1       1.975   7.906  17.777  0.00  0.00    +0.000 OA
ATOM      3  C   UNL     1       1.968   9.320  17.612  0.00  0.00    +0.000 C 
ATOM      4  C   UNL     1       1.037   9.999  18.621  0.00  0.00    +0.000 C 
ATOM      5  C   UNL     1       1.423   9.515  20.037  0.00  0.00    +0.000 C 
ATOM      6  O   UNL     1       1.441   8.084  20.052  0.00  0.00    +0.000 OA
ENDROOT
BRANCH   5   7
ATOM      7  C   UNL     1       0.584  10.014  21.199  0.00  0.00    +0.000 A 
ATOM      8  C   UNL     1       0.074   9.126  22.157  0.00  0.00    +0.000 A 
ATOM      9  C   UNL     1      -0.727   9.590  23.196  0.00  0.00    +0.000 A 
ATOM     10  C   UNL     1      -0.979  10.947  23.269  0.00  0.00    +0.000 A 
ATOM     11  N   UNL     1      -0.452  11.849  22.415  0.00  0.00    +0.000 NA
ATOM     12  C   UNL     1       0.318  11.364  21.413  0.00  0.00    +0.000 A 
ENDBRANCH   5   7
BRANCH   1  13
ATOM     13  C   UNL     1       2.559   5.985  19.306  0.00  0.00    +0.000 C 
ATOM     14  C   UNL     1       1.792   5.383  18.104  0.00  0.00    +0.000 C 
ATOM     15  C   UNL     1       2.038   5.689  20.729  0.00  0.00    +0.000 C 
BRANCH  13  16
ATOM     16  O   UNL     1       3.946   5.604  19.240  0.00  0.00    +0.000 OA
BRANCH  16  22
ATOM     17  C   UNL     1       4.634   3.818  17.524  0.00  0.00    +0.000 A 
ATOM     18  C   UNL     1       5.356   3.656  16.317  0.00  0.00    +0.000 A 
ATOM     19  C   UNL     1       6.071   4.699  15.735  0.00  0.00    +0.000 A 
ATOM     20  C   UNL     1       6.078   5.940  16.348  0.00  0.00    +0.000 A 
ATOM     21  C   UNL     1       5.345   6.136  17.521  0.00  0.00    +0.000 A 
ATOM     22  C   UNL     1       4.592   5.106  18.126  0.00  0.00    +0.000 A 
BRANCH  17  24
ATOM     23  C   UNL     1       4.159   2.243  19.809  0.00  0.00    +0.000 C 
ATOM     24  S   UNL     1       3.799   2.296  18.035  0.00  0.00    +0.000 S 
ENDBRANCH  17  24
ENDBRANCH  16  22
ENDBRANCH  13  16
ENDBRANCH   1  13
BRANCH   4  25
ATOM     25  C   UNL     1      -0.444   9.775  18.226  0.00  0.00    +0.000 C 
BRANCH  25  26
ATOM     26  C   UNL     1      -1.302  10.982  17.947  0.00  0.00    +0.000 C 
ATOM     27  C   UNL     1      -2.322  11.022  17.075  0.00  0.00    +0.000 C 
BRANCH  27  28
ATOM     28  C   UNL     1      -2.816   9.849  16.280  0.00  0.00    +0.000 C 
BRANCH  28  29
ATOM     29  C   UNL     1      -2.505   9.984  14.794  0.00  0.00    +0.000 C 
BRANCH  29  30
ATOM     30  C   UNL     1      -3.785  10.129  14.004  0.00  0.00    +0.000 C 
ATOM     31  O   UNL     1      -3.929   9.852  12.824  0.00  0.00    +0.000 OA
BRANCH  30  32
ATOM     32  O   UNL     1      -4.805  10.604  14.756  0.00  0.00    +0.000 OA
ATOM     33  H   UNL     1      -4.514  11.159  15.502  0.00  0.00    +0.000 HD
ENDBRANCH  30  32
ENDBRANCH  29  30
ENDBRANCH  28  29
ENDBRANCH  27  28
ENDBRANCH  25  26
ENDBRANCH   4  25
TORSDOF 11
ENDMDL
MODEL 4
REMARK VINA RESULT:      -7.3      1.739      2.435
REMARK  Name = 
REMARK  14 active torsions:
REMARK  status: ('A' for Active; 'I' for Inactive)
REMARK    1  A    between atoms: C_1  and  S_2
REMARK    2  A    between atoms: S_2  and  C_3
REMARK    3  A    between atoms: C_8  and  O_9
REMARK    4  A    between atoms: O_9  and  C_10
REMARK    5  A    between atoms: C_10  and  C_11
REMARK    6  A    between atoms: C_10  and  C_12
REMARK    7  A    between atoms: C_10  and  C_13
REMARK    8  A    between atoms: C_16  and  C_17
REMARK    9  A    between atoms: C_17  and  C_18
REMARK   10  A    between atoms: C_19  and  C_20
REMARK   11  A    between atoms: C_20  and  C_21
REMARK   12  A    between atoms: C_21  and  C_22
REMARK   13  A    between atoms: C_22  and  O_24
REMARK   14  A    between atoms: C_25  and  C_26
REMARK                            x       y       z     vdW  Elec       q    Type
REMARK                         _______ _______ _______ _____ _____    ______ ____
ROOT
ATOM      1  C   UNL     1       2.766   6.151  18.936  0.00  0.00    +0.000 C 
ATOM      2  O   UNL     1       2.682   6.797  17.666  0.00  0.00    +0.000 OA
ATOM      3  C   UNL     1       2.999   8.181  17.781  0.00  0.00    +0.000 C 
ATOM      4  C   UNL     1       2.077   8.887  18.779  0.00  0.00    +0.000 C 
ATOM      5  C   UNL     1       2.114   8.103  20.110  0.00  0.00    +0.000 C 
ATOM      6  O   UNL     1       1.830   6.725  19.847  0.00  0.00    +0.000 OA
ENDROOT
BRANCH   5   7
ATOM      7  C   UNL     1       1.218   8.590  21.233  0.00  0.00    +0.000 A 
ATOM      8  C   UNL     1      -0.154   8.302  21.242  0.00  0.00    +0.000 A 
ATOM      9  C   UNL     1      -0.973   8.787  22.257  0.00  0.00    +0.000 A 
ATOM     10  C   UNL     1      -0.391   9.533  23.264  0.00  0.00    +0.000 A 
ATOM     11  N   UNL     1       0.935   9.774  23.340  0.00  0.00    +0.000 NA
ATOM     12  C   UNL     1       1.702   9.293  22.334  0.00  0.00    +0.000 A 
ENDBRANCH   5   7
BRANCH   1  13
ATOM     13  C   UNL     1       2.590   4.571  18.851  0.00  0.00    +0.000 C 
ATOM     14  C   UNL     1       1.730   4.386  17.578  0.00  0.00    +0.000 C 
ATOM     15  C   UNL     1       1.988   4.152  20.209  0.00  0.00    +0.000 C 
BRANCH  13  16
ATOM     16  O   UNL     1       3.854   3.900  18.687  0.00  0.00    +0.000 OA
BRANCH  16  22
ATOM     17  C   UNL     1       5.683   4.738  17.085  0.00  0.00    +0.000 A 
ATOM     18  C   UNL     1       6.899   5.463  17.068  0.00  0.00    +0.000 A 
ATOM     19  C   UNL     1       7.517   5.902  18.236  0.00  0.00    +0.000 A 
ATOM     20  C   UNL     1       6.927   5.628  19.459  0.00  0.00    +0.000 A 
ATOM     21  C   UNL     1       5.710   4.944  19.501  0.00  0.00    +0.000 A 
ATOM     22  C   UNL     1       5.046   4.504  18.335  0.00  0.00    +0.000 A 
BRANCH  17  24
ATOM     23  C   UNL     1       6.618   4.537  14.437  0.00  0.00    +0.000 C 
ATOM     24  S   UNL     1       5.116   4.308  15.422  0.00  0.00    +0.000 S 
ENDBRANCH  17  24
ENDBRANCH  16  22
ENDBRANCH  13  16
ENDBRANCH   1  13
BRANCH   4  25
ATOM     25  C   UNL     1       0.668   9.086  18.167  0.00  0.00    +0.000 C 
BRANCH  25  26
ATOM     26  C   UNL     1      -0.016  10.415  18.359  0.00  0.00    +0.000 C 
ATOM     27  C   UNL     1      -1.295  10.679  18.047  0.00  0.00    +0.000 C 
BRANCH  27  28
ATOM     28  C   UNL     1      -2.273   9.673  17.515  0.00  0.00    +0.000 C 
BRANCH  28  29
ATOM     29  C   UNL     1      -3.718  10.118  17.700  0.00  0.00    +0.000 C 
BRANCH  29  30
ATOM     30  C   UNL     1      -4.160  10.956  16.522  0.00  0.00    +0.000 C 
ATOM     31  O   UNL     1      -3.479  11.229  15.547  0.00  0.00    +0.000 OA
BRANCH  30  32
ATOM     32  O   UNL     1      -5.437  11.388  16.646  0.00  0.00    +0.000 OA
ATOM     33  H   UNL     1      -5.688  11.606  17.561  0.00  0.00    +0.000 HD
ENDBRANCH  30  32
ENDBRANCH  29  30
ENDBRANCH  28  29
ENDBRANCH  27  28
ENDBRANCH  25  26
ENDBRANCH   4  25
TORSDOF 11
ENDMDL
MODEL 5
REMARK VINA RESULT:      -7.2      1.202      1.318
REMARK  Name = 
REMARK  14 active torsions:
REMARK  status: ('A' for Active; 'I' for Inactive)
REMARK    1  A    between atoms: C_1  and  S_2
REMARK    2  A    between atoms: S_2  and  C_3
REMARK    3  A    between atoms: C_8  and  O_9
REMARK    4  A    between atoms: O_9  and  C_10
REMARK    5  A    between atoms: C_10  and  C_11
REMARK    6  A    between atoms: C_10  and  C_12
REMARK    7  A    between atoms: C_10  and  C_13
REMARK    8  A    between atoms: C_16  and  C_17
REMARK    9  A    between atoms: C_17  and  C_18
REMARK   10  A    between atoms: C_19  and  C_20
REMARK   11  A    between atoms: C_20  and  C_21
REMARK   12  A    between atoms: C_21  and  C_22
REMARK   13  A    between atoms: C_22  and  O_24
REMARK   14  A    between atoms: C_25  and  C_26
REMARK                            x       y       z     vdW  Elec       q    Type
REMARK                         _______ _______ _______ _____ _____    ______ ____
ROOT
ATOM      1  C   UNL     1       2.344   7.599  19.084  0.00  0.00    +0.000 C 
ATOM      2  O   UNL     1       2.041   8.010  17.751  0.00  0.00    +0.000 OA
ATOM      3  C   UNL     1       2.073   9.429  17.639  0.00  0.00    +0.000 C 
ATOM      4  C   UNL     1       1.095  10.090  18.615  0.00  0.00    +0.000 C 
ATOM      5  C   UNL     1       1.384   9.546  20.032  0.00  0.00    +0.000 C 
ATOM      6  O   UNL     1       1.373   8.116  19.993  0.00  0.00    +0.000 OA
ENDROOT
BRANCH   5   7
ATOM      7  C   UNL     1       0.485  10.019  21.159  0.00  0.00    +0.000 A 
ATOM      8  C   UNL     1       0.181  11.379  21.322  0.00  0.00    +0.000 A 
ATOM      9  C   UNL     1      -0.612  11.805  22.383  0.00  0.00    +0.000 A 
ATOM     10  C   UNL     1      -1.109  10.850  23.249  0.00  0.00    +0.000 A 
ATOM     11  N   UNL     1      -0.907   9.526  23.093  0.00  0.00    +0.000 NA
ATOM     12  C   UNL     1      -0.127   9.145  22.054  0.00  0.00    +0.000 A 
ENDBRANCH   5   7
BRANCH   1  13
ATOM     13  C   UNL     1       2.493   6.021  19.237  0.00  0.00    +0.000 C 
ATOM     14  C   UNL     1       1.725   5.479  18.009  0.00  0.00    +0.000 C 
ATOM     15  C   UNL     1       1.949   5.694  20.645  0.00  0.00    +0.000 C 
BRANCH  13  16
ATOM     16  O   UNL     1       3.871   5.606  19.174  0.00  0.00    +0.000 OA
BRANCH  16  22
ATOM     17  C   UNL     1       4.575   3.850  17.432  0.00  0.00    +0.000 A 
ATOM     18  C   UNL     1       5.291   3.713  16.220  0.00  0.00    +0.000 A 
ATOM     19  C   UNL     1       5.986   4.773  15.645  0.00  0.00    +0.000 A 
ATOM     20  C   UNL     1       5.977   6.008  16.271  0.00  0.00    +0.000 A 
ATOM     21  C   UNL     1       5.249   6.179  17.451  0.00  0.00    +0.000 A 
ATOM     22  C   UNL     1       4.517   5.130  18.049  0.00  0.00    +0.000 A 
BRANCH  17  24
ATOM     23  C   UNL     1       4.022   2.313  19.725  0.00  0.00    +0.000 C 
ATOM     24  S   UNL     1       3.768   2.309  17.933  0.00  0.00    +0.000 S 
ENDBRANCH  17  24
ENDBRANCH  16  22
ENDBRANCH  13  16
ENDBRANCH   1  13
BRANCH   4  25
ATOM     25  C   UNL     1      -0.364   9.913  18.123  0.00  0.00    +0.000 C 
BRANCH  25  26
ATOM     26  C   UNL     1      -1.371  10.980  18.466  0.00  0.00    +0.000 C 
ATOM     27  C   UNL     1      -2.290  11.476  17.623  0.00  0.00    +0.000 C 
BRANCH  27  28
ATOM     28  C   UNL     1      -2.509  11.000  16.217  0.00  0.00    +0.000 C 
BRANCH  28  29
ATOM     29  C   UNL     1      -3.970  10.665  15.941  0.00  0.00    +0.000 C 
BRANCH  29  30
ATOM     30  C   UNL     1      -4.858  11.302  16.985  0.00  0.00    +0.000 C 
ATOM     31  O   UNL     1      -5.332  10.737  17.957  0.00  0.00    +0.000 OA
BRANCH  30  32
ATOM     32  O   UNL     1      -5.083  12.614  16.741  0.00  0.00    +0.000 OA
ATOM     33  H   UNL     1      -4.339  13.190  16.991  0.00  0.00    +0.000 HD
ENDBRANCH  30  32
ENDBRANCH  29  30
ENDBRANCH  28  29
ENDBRANCH  27  28
ENDBRANCH  25  26
ENDBRANCH   4  25
TORSDOF 11
ENDMDL
MODEL 6
REMARK VINA RESULT:      -7.2      3.638      8.589
REMARK  Name = 
REMARK  14 active torsions:
REMARK  status: ('A' for Active; 'I' for Inactive)
REMARK    1  A    between atoms: C_1  and  S_2
REMARK    2  A    between atoms: S_2  and  C_3
REMARK    3  A    between atoms: C_8  and  O_9
REMARK    4  A    between atoms: O_9  and  C_10
REMARK    5  A    between atoms: C_10  and  C_11
REMARK    6  A    between atoms: C_10  and  C_12
REMARK    7  A    between atoms: C_10  and  C_13
REMARK    8  A    between atoms: C_16  and  C_17
REMARK    9  A    between atoms: C_17  and  C_18
REMARK   10  A    between atoms: C_19  and  C_20
REMARK   11  A    between atoms: C_20  and  C_21
REMARK   12  A    between atoms: C_21  and  C_22
REMARK   13  A    between atoms: C_22  and  O_24
REMARK   14  A    between atoms: C_25  and  C_26
REMARK                            x       y       z     vdW  Elec       q    Type
REMARK                         _______ _______ _______ _____ _____    ______ ____
ROOT
ATOM      1  C   UNL     1       2.002   8.376  18.042  0.00  0.00    +0.000 C 
ATOM      2  O   UNL     1       3.359   8.538  17.630  0.00  0.00    +0.000 OA
ATOM      3  C   UNL     1       3.801   7.404  16.890  0.00  0.00    +0.000 C 
ATOM      4  C   UNL     1       3.661   6.115  17.704  0.00  0.00    +0.000 C 
ATOM      5  C   UNL     1       2.208   6.023  18.220  0.00  0.00    +0.000 C 
ATOM      6  O   UNL     1       1.876   7.240  18.896  0.00  0.00    +0.000 OA
ENDROOT
BRANCH   5   7
ATOM      7  C   UNL     1       1.855   4.847  19.111  0.00  0.00    +0.000 A 
ATOM      8  C   UNL     1       1.498   3.605  18.565  0.00  0.00    +0.000 A 
ATOM      9  C   UNL     1       1.138   2.546  19.392  0.00  0.00    +0.000 A 
ATOM     10  C   UNL     1       1.169   2.746  20.759  0.00  0.00    +0.000 A 
ATOM     11  N   UNL     1       1.576   3.896  21.334  0.00  0.00    +0.000 NA
ATOM     12  C   UNL     1       1.915   4.909  20.501  0.00  0.00    +0.000 A 
ENDBRANCH   5   7
BRANCH   1  13
ATOM     13  C   UNL     1       1.393   9.679  18.725  0.00  0.00    +0.000 C 
ATOM     14  C   UNL     1      -0.117   9.566  18.404  0.00  0.00    +0.000 C 
ATOM     15  C   UNL     1       2.182  10.863  18.127  0.00  0.00    +0.000 C 
BRANCH  13  16
ATOM     16  O   UNL     1       1.589   9.675  20.152  0.00  0.00    +0.000 OA
BRANCH  16  22
ATOM     17  C   UNL     1       0.224  11.531  21.294  0.00  0.00    +0.000 A 
ATOM     18  C   UNL     1      -0.723  11.739  22.326  0.00  0.00    +0.000 A 
ATOM     19  C   UNL     1      -1.132  10.715  23.174  0.00  0.00    +0.000 A 
ATOM     20  C   UNL     1      -0.604   9.445  23.009  0.00  0.00    +0.000 A 
ATOM     21  C   UNL     1       0.305   9.205  21.977  0.00  0.00    +0.000 A 
ATOM     22  C   UNL     1       0.726  10.216  21.085  0.00  0.00    +0.000 A 
BRANCH  17  24
ATOM     23  C   UNL     1      -0.950  13.206  19.360  0.00  0.00    +0.000 C 
ATOM     24  S   UNL     1       0.556  13.038  20.350  0.00  0.00    +0.000 S 
ENDBRANCH  17  24
ENDBRANCH  16  22
ENDBRANCH  13  16
ENDBRANCH   1  13
BRANCH   4  25
ATOM     25  C   UNL     1       4.757   6.042  18.797  0.00  0.00    +0.000 C 
BRANCH  25  26
ATOM     26  C   UNL     1       5.495   4.742  18.988  0.00  0.00    +0.000 C 
ATOM     27  C   UNL     1       6.728   4.478  18.527  0.00  0.00    +0.000 C 
BRANCH  27  28
ATOM     28  C   UNL     1       7.601   5.459  17.801  0.00  0.00    +0.000 C 
BRANCH  28  29
ATOM     29  C   UNL     1       8.063   6.599  18.701  0.00  0.00    +0.000 C 
BRANCH  29  30
ATOM     30  C   UNL     1       7.967   7.916  17.966  0.00  0.00    +0.000 C 
ATOM     31  O   UNL     1       8.428   8.979  18.347  0.00  0.00    +0.000 OA
BRANCH  30  32
ATOM     32  O   UNL     1       7.302   7.804  16.792  0.00  0.00    +0.000 OA
ATOM     33  H   UNL     1       6.436   8.248  16.791  0.00  0.00    +0.000 HD
ENDBRANCH  30  32
ENDBRANCH  29  30
ENDBRANCH  28  29
ENDBRANCH  27  28
ENDBRANCH  25  26
ENDBRANCH   4  25
TORSDOF 11
ENDMDL
MODEL 7
REMARK VINA RESULT:      -7.2      3.610      8.403
REMARK  Name = 
REMARK  14 active torsions:
REMARK  status: ('A' for Active; 'I' for Inactive)
REMARK    1  A    between atoms: C_1  and  S_2
REMARK    2  A    between atoms: S_2  and  C_3
REMARK    3  A    between atoms: C_8  and  O_9
REMARK    4  A    between atoms: O_9  and  C_10
REMARK    5  A    between atoms: C_10  and  C_11
REMARK    6  A    between atoms: C_10  and  C_12
REMARK    7  A    between atoms: C_10  and  C_13
REMARK    8  A    between atoms: C_16  and  C_17
REMARK    9  A    between atoms: C_17  and  C_18
REMARK   10  A    between atoms: C_19  and  C_20
REMARK   11  A    between atoms: C_20  and  C_21
REMARK   12  A    between atoms: C_21  and  C_22
REMARK   13  A    between atoms: C_22  and  O_24
REMARK   14  A    between atoms: C_25  and  C_26
REMARK                            x       y       z     vdW  Elec       q    Type
REMARK                         _______ _______ _______ _____ _____    ______ ____
ROOT
ATOM      1  C   UNL     1       2.178   8.087  17.957  0.00  0.00    +0.000 C 
ATOM      2  O   UNL     1       3.511   8.238  17.471  0.00  0.00    +0.000 OA
ATOM      3  C   UNL     1       3.921   7.079  16.752  0.00  0.00    +0.000 C 
ATOM      4  C   UNL     1       3.829   5.820  17.619  0.00  0.00    +0.000 C 
ATOM      5  C   UNL     1       2.405   5.742  18.211  0.00  0.00    +0.000 C 
ATOM      6  O   UNL     1       2.101   6.982  18.858  0.00  0.00    +0.000 OA
ENDROOT
BRANCH   5   7
ATOM      7  C   UNL     1       2.104   4.599  19.162  0.00  0.00    +0.000 A 
ATOM      8  C   UNL     1       1.818   3.313  18.682  0.00  0.00    +0.000 A 
ATOM      9  C   UNL     1       1.505   2.282  19.562  0.00  0.00    +0.000 A 
ATOM     10  C   UNL     1       1.510   2.557  20.916  0.00  0.00    +0.000 A 
ATOM     11  N   UNL     1       1.850   3.756  21.431  0.00  0.00    +0.000 NA
ATOM     12  C   UNL     1       2.145   4.739  20.547  0.00  0.00    +0.000 A 
ENDBRANCH   5   7
BRANCH   1  13
ATOM     13  C   UNL     1       1.597   9.412  18.623  0.00  0.00    +0.000 C 
ATOM     14  C   UNL     1       0.092   9.345  18.273  0.00  0.00    +0.000 C 
ATOM     15  C   UNL     1       2.436  10.567  18.034  0.00  0.00    +0.000 C 
BRANCH  13  16
ATOM     16  O   UNL     1       1.766   9.410  20.053  0.00  0.00    +0.000 OA
BRANCH  16  22
ATOM     17  C   UNL     1       0.485  11.325  21.195  0.00  0.00    +0.000 A 
ATOM     18  C   UNL     1      -0.487  11.571  22.193  0.00  0.00    +0.000 A 
ATOM     19  C   UNL     1      -1.002  10.555  22.994  0.00  0.00    +0.000 A 
ATOM     20  C   UNL     1      -0.556   9.257  22.811  0.00  0.00    +0.000 A 
ATOM     21  C   UNL     1       0.377   8.982  21.810  0.00  0.00    +0.000 A 
ATOM     22  C   UNL     1       0.904   9.985  20.966  0.00  0.00    +0.000 A 
BRANCH  17  24
ATOM     23  C   UNL     1       0.515  14.124  21.498  0.00  0.00    +0.000 C 
ATOM     24  S   UNL     1       0.961  12.831  20.311  0.00  0.00    +0.000 S 
ENDBRANCH  17  24
ENDBRANCH  16  22
ENDBRANCH  13  16
ENDBRANCH   1  13
BRANCH   4  25
ATOM     25  C   UNL     1       4.980   5.792  18.657  0.00  0.00    +0.000 C 
BRANCH  25  26
ATOM     26  C   UNL     1       6.239   6.563  18.352  0.00  0.00    +0.000 C 
ATOM     27  C   UNL     1       7.316   6.066  17.724  0.00  0.00    +0.000 C 
BRANCH  27  28
ATOM     28  C   UNL     1       7.418   4.679  17.162  0.00  0.00    +0.000 C 
BRANCH  28  29
ATOM     29  C   UNL     1       7.250   4.654  15.648  0.00  0.00    +0.000 C 
BRANCH  29  30
ATOM     30  C   UNL     1       5.960   3.959  15.278  0.00  0.00    +0.000 C 
ATOM     31  O   UNL     1       5.343   4.111  14.236  0.00  0.00    +0.000 OA
BRANCH  30  32
ATOM     32  O   UNL     1       5.536   3.109  16.242  0.00  0.00    +0.000 OA
ATOM     33  H   UNL     1       4.693   3.372  16.651  0.00  0.00    +0.000 HD
ENDBRANCH  30  32
ENDBRANCH  29  30
ENDBRANCH  28  29
ENDBRANCH  27  28
ENDBRANCH  25  26
ENDBRANCH   4  25
TORSDOF 11
ENDMDL
MODEL 8
REMARK VINA RESULT:      -7.1      3.782      8.647
REMARK  Name = 
REMARK  14 active torsions:
REMARK  status: ('A' for Active; 'I' for Inactive)
REMARK    1  A    between atoms: C_1  and  S_2
REMARK    2  A    between atoms: S_2  and  C_3
REMARK    3  A    between atoms: C_8  and  O_9
REMARK    4  A    between atoms: O_9  and  C_10
REMARK    5  A    between atoms: C_10  and  C_11
REMARK    6  A    between atoms: C_10  and  C_12
REMARK    7  A    between atoms: C_10  and  C_13
REMARK    8  A    between atoms: C_16  and  C_17
REMARK    9  A    between atoms: C_17  and  C_18
REMARK   10  A    between atoms: C_19  and  C_20
REMARK   11  A    between atoms: C_20  and  C_21
REMARK   12  A    between atoms: C_21  and  C_22
REMARK   13  A    between atoms: C_22  and  O_24
REMARK   14  A    between atoms: C_25  and  C_26
REMARK                            x       y       z     vdW  Elec       q    Type
REMARK                         _______ _______ _______ _____ _____    ______ ____
ROOT
ATOM      1  C   UNL     1       2.171   8.092  17.933  0.00  0.00    +0.000 C 
ATOM      2  O   UNL     1       3.524   8.258  17.512  0.00  0.00    +0.000 OA
ATOM      3  C   UNL     1       3.964   7.129  16.764  0.00  0.00    +0.000 C 
ATOM      4  C   UNL     1       3.832   5.836  17.573  0.00  0.00    +0.000 C 
ATOM      5  C   UNL     1       2.383   5.738  18.099  0.00  0.00    +0.000 C 
ATOM      6  O   UNL     1       2.053   6.951  18.782  0.00  0.00    +0.000 OA
ENDROOT
BRANCH   5   7
ATOM      7  C   UNL     1       2.039   4.557  18.987  0.00  0.00    +0.000 A 
ATOM      8  C   UNL     1       1.650   4.744  20.322  0.00  0.00    +0.000 A 
ATOM      9  C   UNL     1       1.375   3.651  21.138  0.00  0.00    +0.000 A 
ATOM     10  C   UNL     1       1.470   2.387  20.589  0.00  0.00    +0.000 A 
ATOM     11  N   UNL     1       1.767   2.159  19.292  0.00  0.00    +0.000 NA
ATOM     12  C   UNL     1       2.034   3.243  18.527  0.00  0.00    +0.000 A 
ENDBRANCH   5   7
BRANCH   1  13
ATOM     13  C   UNL     1       1.563   9.390  18.627  0.00  0.00    +0.000 C 
ATOM     14  C   UNL     1       0.063   9.312  18.255  0.00  0.00    +0.000 C 
ATOM     15  C   UNL     1       2.393  10.572  18.081  0.00  0.00    +0.000 C 
BRANCH  13  16
ATOM     16  O   UNL     1       1.714   9.351  20.059  0.00  0.00    +0.000 OA
BRANCH  16  22
ATOM     17  C   UNL     1       0.413  11.273  21.166  0.00  0.00    +0.000 A 
ATOM     18  C   UNL     1      -0.538  11.530  22.181  0.00  0.00    +0.000 A 
ATOM     19  C   UNL     1      -1.004  10.532  23.031  0.00  0.00    +0.000 A 
ATOM     20  C   UNL     1      -0.529   9.239  22.883  0.00  0.00    +0.000 A 
ATOM     21  C   UNL     1       0.384   8.952  21.867  0.00  0.00    +0.000 A 
ATOM     22  C   UNL     1       0.861   9.936  20.974  0.00  0.00    +0.000 A 
BRANCH  17  24
ATOM     23  C   UNL     1       0.760  14.048  21.483  0.00  0.00    +0.000 C 
ATOM     24  S   UNL     1       0.825  12.757  20.216  0.00  0.00    +0.000 S 
ENDBRANCH  17  24
ENDBRANCH  16  22
ENDBRANCH  13  16
ENDBRANCH   1  13
BRANCH   4  25
ATOM     25  C   UNL     1       4.936   5.761  18.658  0.00  0.00    +0.000 C 
BRANCH  25  26
ATOM     26  C   UNL     1       6.235   5.078  18.314  0.00  0.00    +0.000 C 
ATOM     27  C   UNL     1       7.331   5.694  17.844  0.00  0.00    +0.000 C 
BRANCH  27  28
ATOM     28  C   UNL     1       7.465   7.176  17.647  0.00  0.00    +0.000 C 
BRANCH  28  29
ATOM     29  C   UNL     1       8.446   7.804  18.629  0.00  0.00    +0.000 C 
BRANCH  29  30
ATOM     30  C   UNL     1       8.510   9.300  18.418  0.00  0.00    +0.000 C 
ATOM     31  O   UNL     1       7.974   9.914  17.510  0.00  0.00    +0.000 OA
BRANCH  30  32
ATOM     32  O   UNL     1       9.238   9.925  19.371  0.00  0.00    +0.000 OA
ATOM     33  H   UNL     1       9.312  10.887  19.238  0.00  0.00    +0.000 HD
ENDBRANCH  30  32
ENDBRANCH  29  30
ENDBRANCH  28  29
ENDBRANCH  27  28
ENDBRANCH  25  26
ENDBRANCH   4  25
TORSDOF 11
ENDMDL
MODEL 9
REMARK VINA RESULT:      -6.9      3.718      8.522
REMARK  Name = 
REMARK  14 active torsions:
REMARK  status: ('A' for Active; 'I' for Inactive)
REMARK    1  A    between atoms: C_1  and  S_2
REMARK    2  A    between atoms: S_2  and  C_3
REMARK    3  A    between atoms: C_8  and  O_9
REMARK    4  A    between atoms: O_9  and  C_10
REMARK    5  A    between atoms: C_10  and  C_11
REMARK    6  A    between atoms: C_10  and  C_12
REMARK    7  A    between atoms: C_10  and  C_13
REMARK    8  A    between atoms: C_16  and  C_17
REMARK    9  A    between atoms: C_17  and  C_18
REMARK   10  A    between atoms: C_19  and  C_20
REMARK   11  A    between atoms: C_20  and  C_21
REMARK   12  A    between atoms: C_21  and  C_22
REMARK   13  A    between atoms: C_22  and  O_24
REMARK   14  A    between atoms: C_25  and  C_26
REMARK                            x       y       z     vdW  Elec       q    Type
REMARK                         _______ _______ _______ _____ _____    ______ ____
ROOT
ATOM      1  C   UNL     1       1.975   8.387  18.063  0.00  0.00    +0.000 C 
ATOM      2  O   UNL     1       3.347   8.572  17.715  0.00  0.00    +0.000 OA
ATOM      3  C   UNL     1       3.844   7.444  17.003  0.00  0.00    +0.000 C 
ATOM      4  C   UNL     1       3.689   6.155  17.814  0.00  0.00    +0.000 C 
ATOM      5  C   UNL     1       2.215   6.038  18.260  0.00  0.00    +0.000 C 
ATOM      6  O   UNL     1       1.828   7.251  18.914  0.00  0.00    +0.000 OA
ENDROOT
BRANCH   5   7
ATOM      7  C   UNL     1       1.841   4.859  19.138  0.00  0.00    +0.000 A 
ATOM      8  C   UNL     1       1.855   4.963  20.536  0.00  0.00    +0.000 A 
ATOM      9  C   UNL     1       1.549   3.863  21.331  0.00  0.00    +0.000 A 
ATOM     10  C   UNL     1       1.205   2.681  20.704  0.00  0.00    +0.000 A 
ATOM     11  N   UNL     1       1.104   2.551  19.365  0.00  0.00    +0.000 NA
ATOM     12  C   UNL     1       1.414   3.638  18.621  0.00  0.00    +0.000 A 
ENDBRANCH   5   7
BRANCH   1  13
ATOM     13  C   UNL     1       1.310   9.680  18.711  0.00  0.00    +0.000 C 
ATOM     14  C   UNL     1      -0.195   9.485  18.410  0.00  0.00    +0.000 C 
ATOM     15  C   UNL     1       2.036  10.881  18.067  0.00  0.00    +0.000 C 
BRANCH  13  16
ATOM     16  O   UNL     1       1.519   9.732  20.135  0.00  0.00    +0.000 OA
BRANCH  16  22
ATOM     17  C   UNL     1       0.021  11.528  21.203  0.00  0.00    +0.000 A 
ATOM     18  C   UNL     1      -0.912  11.717  22.251  0.00  0.00    +0.000 A 
ATOM     19  C   UNL     1      -1.202  10.718  23.175  0.00  0.00    +0.000 A 
ATOM     20  C   UNL     1      -0.564   9.493  23.072  0.00  0.00    +0.000 A 
ATOM     21  C   UNL     1       0.335   9.269  22.027  0.00  0.00    +0.000 A 
ATOM     22  C   UNL     1       0.636  10.253  21.060  0.00  0.00    +0.000 A 
BRANCH  17  24
ATOM     23  C   UNL     1      -1.135  14.060  20.783  0.00  0.00    +0.000 C 
ATOM     24  S   UNL     1       0.187  12.994  20.156  0.00  0.00    +0.000 S 
ENDBRANCH  17  24
ENDBRANCH  16  22
ENDBRANCH  13  16
ENDBRANCH   1  13
BRANCH   4  25
ATOM     25  C   UNL     1       4.733   6.106  18.958  0.00  0.00    +0.000 C 
BRANCH  25  26
ATOM     26  C   UNL     1       5.603   4.882  19.084  0.00  0.00    +0.000 C 
ATOM     27  C   UNL     1       6.919   4.839  18.821  0.00  0.00    +0.000 C 
BRANCH  27  28
ATOM     28  C   UNL     1       7.753   6.021  18.422  0.00  0.00    +0.000 C 
BRANCH  28  29
ATOM     29  C   UNL     1       7.312   6.617  17.090  0.00  0.00    +0.000 C 
BRANCH  29  30
ATOM     30  C   UNL     1       7.174   5.527  16.051  0.00  0.00    +0.000 C 
ATOM     31  O   UNL     1       7.858   4.519  15.981  0.00  0.00    +0.000 OA
BRANCH  30  32
ATOM     32  O   UNL     1       6.174   5.775  15.174  0.00  0.00    +0.000 OA
ATOM     33  H   UNL     1       5.386   5.220  15.312  0.00  0.00    +0.000 HD
ENDBRANCH  30  32
ENDBRANCH  29  30
ENDBRANCH  28  29
ENDBRANCH  27  28
ENDBRANCH  25  26
ENDBRANCH   4  25
TORSDOF 11
ENDMDL
