MODEL 1
REMARK VINA RESULT:      -6.8      0.000      0.000
REMARK  Name = 
REMARK  7 active torsions:
REMARK  status: ('A' for Active; 'I' for Inactive)
REMARK    1  A    between atoms: C_2  and  C_3
REMARK    2  A    between atoms: C_3  and  C_17
REMARK    3  A    between atoms: C_4  and  O_5
REMARK    4  A    between atoms: C_4  and  C_6
REMARK    5  A    between atoms: C_8  and  O_9
REMARK    6  A    between atoms: C_10  and  O_11
REMARK    7  A    between atoms: C_12  and  N_13
REMARK                            x       y       z     vdW  Elec       q    Type
REMARK                         _______ _______ _______ _____ _____    ______ ____
ROOT
ATOM      1  C   UNL     1       2.882   5.808  19.238  0.00  0.00    +0.000 A 
ATOM      2  C   UNL     1       2.234   4.938  18.347  0.00  0.00    +0.000 A 
ATOM      3  C   UNL     1       2.985   4.046  17.581  0.00  0.00    +0.000 A 
ATOM      4  C   UNL     1       4.377   4.017  17.662  0.00  0.00    +0.000 A 
ATOM      5  C   UNL     1       5.015   4.899  18.523  0.00  0.00    +0.000 A 
ATOM      6  C   UNL     1       4.283   5.790  19.325  0.00  0.00    +0.000 A 
ENDROOT
BRANCH   5   7
ATOM      7  N   UNL     1       6.458   4.891  18.639  0.00  0.00    +0.000 N 
ATOM      8  O   UNL     1       7.117   4.692  17.609  0.00  0.00    +0.000 OA
ATOM      9  O   UNL     1       6.928   5.162  19.752  0.00  0.00    +0.000 OA
ENDBRANCH   5   7
BRANCH   1  11
ATOM     10  C   UNL     1       1.696   7.946  19.793  0.00  0.00    +0.000 C 
ATOM     11  C   UNL     1       2.090   6.689  20.122  0.00  0.00    +0.000 C 
BRANCH  10  12
ATOM     12  C   UNL     1       0.944   8.836  20.704  0.00  0.00    +0.000 A 
ATOM     13  C   UNL     1       0.021   9.781  20.262  0.00  0.00    +0.000 A 
ATOM     14  N   UNL     1      -0.644  10.618  21.100  0.00  0.00    +0.000 NA
ATOM     15  C   UNL     1      -0.353  10.487  22.411  0.00  0.00    +0.000 A 
ATOM     16  C   UNL     1       0.554   9.553  22.870  0.00  0.00    +0.000 A 
ATOM     17  N   UNL     1       1.216   8.711  22.038  0.00  0.00    +0.000 NA
ENDBRANCH  10  12
BRANCH  10  19
ATOM     18  N   UNL     1       2.495   8.920  17.313  0.00  0.00    +0.000 NA
ATOM     19  C   UNL     1       2.133   8.478  18.438  0.00  0.00    +0.000 C 
ENDBRANCH  10  19
BRANCH  11  20
ATOM     20  O   UNL     1       1.816   6.078  21.330  0.00  0.00    +0.000 OA
ATOM     21  H   UNL     1       0.905   6.335  21.595  0.00  0.00    +0.000 HD
ENDBRANCH  11  20
ENDBRANCH   1  11
BRANCH   3  22
ATOM     22  O   UNL     1       2.390   3.142  16.743  0.00  0.00    +0.000 OA
ATOM     23  H   UNL     1       2.611   3.376  15.823  0.00  0.00    +0.000 HD
ENDBRANCH   3  22
BRANCH   4  24
ATOM     24  O   UNL     1       5.055   3.088  16.927  0.00  0.00    +0.000 OA
ATOM     25  H   UNL     1       4.569   3.012  16.081  0.00  0.00    +0.000 HD
ENDBRANCH   4  24
TORSDOF 7
ENDMDL
MODEL 2
REMARK VINA RESULT:      -6.7      0.596      1.020
REMARK  Name = 
REMARK  7 active torsions:
REMARK  status: ('A' for Active; 'I' for Inactive)
REMARK    1  A    between atoms: C_2  and  C_3
REMARK    2  A    between atoms: C_3  and  C_17
REMARK    3  A    between atoms: C_4  and  O_5
REMARK    4  A    between atoms: C_4  and  C_6
REMARK    5  A    between atoms: C_8  and  O_9
REMARK    6  A    between atoms: C_10  and  O_11
REMARK    7  A    between atoms: C_12  and  N_13
REMARK                            x       y       z     vdW  Elec       q    Type
REMARK                         _______ _______ _______ _____ _____    ______ ____
ROOT
ATOM      1  C   UNL     1       2.859   5.847  19.295  0.00  0.00    +0.000 A 
ATOM      2  C   UNL     1       2.170   4.989  18.423  0.00  0.00    +0.000 A 
ATOM      3  C   UNL     1       2.882   4.077  17.644  0.00  0.00    +0.000 A 
ATOM      4  C   UNL     1       4.274   4.015  17.694  0.00  0.00    +0.000 A 
ATOM      5  C   UNL     1       4.953   4.886  18.535  0.00  0.00    +0.000 A 
ATOM      6  C   UNL     1       4.260   5.797  19.350  0.00  0.00    +0.000 A 
ENDROOT
BRANCH   5   7
ATOM      7  N   UNL     1       6.397   4.845  18.619  0.00  0.00    +0.000 N 
ATOM      8  O   UNL     1       7.028   4.632  17.573  0.00  0.00    +0.000 OA
ATOM      9  O   UNL     1       6.899   5.103  19.720  0.00  0.00    +0.000 OA
ENDBRANCH   5   7
BRANCH   1  11
ATOM     10  C   UNL     1       1.720   8.008  19.860  0.00  0.00    +0.000 C 
ATOM     11  C   UNL     1       2.108   6.751  20.193  0.00  0.00    +0.000 C 
BRANCH  10  12
ATOM     12  C   UNL     1       1.010   8.920  20.784  0.00  0.00    +0.000 A 
ATOM     13  C   UNL     1       1.313   9.023  22.140  0.00  0.00    +0.000 A 
ATOM     14  N   UNL     1       0.639   9.837  22.992  0.00  0.00    +0.000 NA
ATOM     15  C   UNL     1      -0.364  10.555  22.445  0.00  0.00    +0.000 A 
ATOM     16  C   UNL     1      -0.676  10.473  21.102  0.00  0.00    +0.000 A 
ATOM     17  N   UNL     1      -0.002   9.664  20.247  0.00  0.00    +0.000 NA
ENDBRANCH  10  12
BRANCH  10  19
ATOM     18  N   UNL     1       2.448   8.939  17.342  0.00  0.00    +0.000 NA
ATOM     19  C   UNL     1       2.118   8.517  18.484  0.00  0.00    +0.000 C 
ENDBRANCH  10  19
BRANCH  11  20
ATOM     20  O   UNL     1       1.867   6.160  21.417  0.00  0.00    +0.000 OA
ATOM     21  H   UNL     1       1.827   5.187  21.277  0.00  0.00    +0.000 HD
ENDBRANCH  11  20
ENDBRANCH   1  11
BRANCH   3  22
ATOM     22  O   UNL     1       2.247   3.184  16.824  0.00  0.00    +0.000 OA
ATOM     23  H   UNL     1       1.293   3.381  16.827  0.00  0.00    +0.000 HD
ENDBRANCH   3  22
BRANCH   4  24
ATOM     24  O   UNL     1       4.914   3.067  16.948  0.00  0.00    +0.000 OA
ATOM     25  H   UNL     1       5.276   2.424  17.590  0.00  0.00    +0.000 HD
ENDBRANCH   4  24
TORSDOF 7
ENDMDL
MODEL 3
REMARK VINA RESULT:      -6.6      4.015      5.595
REMARK  Name = 
REMARK  7 active torsions:
REMARK  status: ('A' for Active; 'I' for Inactive)
REMARK    1  A    between atoms: C_2  and  C_3
REMARK    2  A    between atoms: C_3  and  C_17
REMARK    3  A    between atoms: C_4  and  O_5
REMARK    4  A    between atoms: C_4  and  C_6
REMARK    5  A    between atoms: C_8  and  O_9
REMARK    6  A    between atoms: C_10  and  O_11
REMARK    7  A    between atoms: C_12  and  N_13
REMARK                            x       y       z     vdW  Elec       q    Type
REMARK                         _______ _______ _______ _____ _____    ______ ____
ROOT
ATOM      1  C   UNL     1       5.263   3.939  16.461  0.00  0.00    +0.000 A 
ATOM      2  C   UNL     1       6.230   4.909  16.771  0.00  0.00    +0.000 A 
ATOM      3  C   UNL     1       7.026   5.441  15.756  0.00  0.00    +0.000 A 
ATOM      4  C   UNL     1       6.898   5.011  14.436  0.00  0.00    +0.000 A 
ATOM      5  C   UNL     1       5.961   4.032  14.139  0.00  0.00    +0.000 A 
ATOM      6  C   UNL     1       5.129   3.496  15.136  0.00  0.00    +0.000 A 
ENDROOT
BRANCH   5   7
ATOM      7  N   UNL     1       5.795   3.567  12.778  0.00  0.00    +0.000 N 
ATOM      8  O   UNL     1       4.644   3.521  12.322  0.00  0.00    +0.000 OA
ATOM      9  O   UNL     1       6.829   3.322  12.144  0.00  0.00    +0.000 OA
ENDBRANCH   5   7
BRANCH   1  11
ATOM     10  C   UNL     1       3.537   4.230  18.255  0.00  0.00    +0.000 C 
ATOM     11  C   UNL     1       4.352   3.439  17.512  0.00  0.00    +0.000 C 
BRANCH  10  12
ATOM     12  C   UNL     1       2.665   3.723  19.338  0.00  0.00    +0.000 A 
ATOM     13  C   UNL     1       1.280   3.879  19.341  0.00  0.00    +0.000 A 
ATOM     14  N   UNL     1       0.486   3.441  20.352  0.00  0.00    +0.000 NA
ATOM     15  C   UNL     1       1.123   2.837  21.377  0.00  0.00    +0.000 A 
ATOM     16  C   UNL     1       2.494   2.667  21.390  0.00  0.00    +0.000 A 
ATOM     17  N   UNL     1       3.290   3.099  20.380  0.00  0.00    +0.000 NA
ENDBRANCH  10  12
BRANCH  10  19
ATOM     18  N   UNL     1       3.651   6.969  17.788  0.00  0.00    +0.000 NA
ATOM     19  C   UNL     1       3.599   5.727  18.000  0.00  0.00    +0.000 C 
ENDBRANCH  10  19
BRANCH  11  20
ATOM     20  O   UNL     1       4.449   2.069  17.653  0.00  0.00    +0.000 OA
ATOM     21  H   UNL     1       3.881   1.656  16.964  0.00  0.00    +0.000 HD
ENDBRANCH  11  20
ENDBRANCH   1  11
BRANCH   3  22
ATOM     22  O   UNL     1       7.941   6.428  16.005  0.00  0.00    +0.000 OA
ATOM     23  H   UNL     1       7.463   7.251  16.215  0.00  0.00    +0.000 HD
ENDBRANCH   3  22
BRANCH   4  24
ATOM     24  O   UNL     1       7.668   5.605  13.477  0.00  0.00    +0.000 OA
ATOM     25  H   UNL     1       8.117   6.353  13.923  0.00  0.00    +0.000 HD
ENDBRANCH   4  24
TORSDOF 7
ENDMDL
MODEL 4
REMARK VINA RESULT:      -6.5      1.755      2.291
REMARK  Name = 
REMARK  7 active torsions:
REMARK  status: ('A' for Active; 'I' for Inactive)
REMARK    1  A    between atoms: C_2  and  C_3
REMARK    2  A    between atoms: C_3  and  C_17
REMARK    3  A    between atoms: C_4  and  O_5
REMARK    4  A    between atoms: C_4  and  C_6
REMARK    5  A    between atoms: C_8  and  O_9
REMARK    6  A    between atoms: C_10  and  O_11
REMARK    7  A    between atoms: C_12  and  N_13
REMARK                            x       y       z     vdW  Elec       q    Type
REMARK                         _______ _______ _______ _____ _____    ______ ____
ROOT
ATOM      1  C   UNL     1       3.469   6.328  17.999  0.00  0.00    +0.000 A 
ATOM      2  C   UNL     1       2.784   5.129  17.743  0.00  0.00    +0.000 A 
ATOM      3  C   UNL     1       3.474   4.037  17.215  0.00  0.00    +0.000 A 
ATOM      4  C   UNL     1       4.833   4.118  16.912  0.00  0.00    +0.000 A 
ATOM      5  C   UNL     1       5.499   5.314  17.140  0.00  0.00    +0.000 A 
ATOM      6  C   UNL     1       4.835   6.422  17.693  0.00  0.00    +0.000 A 
ENDROOT
BRANCH   5   7
ATOM      7  N   UNL     1       6.911   5.432  16.844  0.00  0.00    +0.000 N 
ATOM      8  O   UNL     1       7.274   6.387  16.143  0.00  0.00    +0.000 OA
ATOM      9  O   UNL     1       7.663   4.609  17.381  0.00  0.00    +0.000 OA
ENDBRANCH   5   7
BRANCH   1  11
ATOM     10  C   UNL     1       2.141   7.381  19.847  0.00  0.00    +0.000 C 
ATOM     11  C   UNL     1       2.768   7.458  18.645  0.00  0.00    +0.000 C 
BRANCH  10  12
ATOM     12  C   UNL     1       1.402   8.505  20.461  0.00  0.00    +0.000 A 
ATOM     13  C   UNL     1       1.343   8.723  21.836  0.00  0.00    +0.000 A 
ATOM     14  N   UNL     1       0.637   9.738  22.398  0.00  0.00    +0.000 NA
ATOM     15  C   UNL     1      -0.022  10.539  21.536  0.00  0.00    +0.000 A 
ATOM     16  C   UNL     1       0.028  10.345  20.170  0.00  0.00    +0.000 A 
ATOM     17  N   UNL     1       0.737   9.336  19.604  0.00  0.00    +0.000 NA
ENDBRANCH  10  12
BRANCH  10  19
ATOM     18  N   UNL     1       2.142   4.911  21.126  0.00  0.00    +0.000 NA
ATOM     19  C   UNL     1       2.142   6.031  20.546  0.00  0.00    +0.000 C 
ENDBRANCH  10  19
BRANCH  11  20
ATOM     20  O   UNL     1       2.818   8.595  17.864  0.00  0.00    +0.000 OA
ATOM     21  H   UNL     1       2.018   9.131  18.065  0.00  0.00    +0.000 HD
ENDBRANCH  11  20
ENDBRANCH   1  11
BRANCH   3  22
ATOM     22  O   UNL     1       2.858   2.833  17.004  0.00  0.00    +0.000 OA
ATOM     23  H   UNL     1       2.512   2.506  17.854  0.00  0.00    +0.000 HD
ENDBRANCH   3  22
BRANCH   4  24
ATOM     24  O   UNL     1       5.466   3.002  16.447  0.00  0.00    +0.000 OA
ATOM     25  H   UNL     1       6.370   3.291  16.204  0.00  0.00    +0.000 HD
ENDBRANCH   4  24
TORSDOF 7
ENDMDL
MODEL 5
REMARK VINA RESULT:      -6.3      1.012      1.140
REMARK  Name = 
REMARK  7 active torsions:
REMARK  status: ('A' for Active; 'I' for Inactive)
REMARK    1  A    between atoms: C_2  and  C_3
REMARK    2  A    between atoms: C_3  and  C_17
REMARK    3  A    between atoms: C_4  and  O_5
REMARK    4  A    between atoms: C_4  and  C_6
REMARK    5  A    between atoms: C_8  and  O_9
REMARK    6  A    between atoms: C_10  and  O_11
REMARK    7  A    between atoms: C_12  and  N_13
REMARK                            x       y       z     vdW  Elec       q    Type
REMARK                         _______ _______ _______ _____ _____    ______ ____
ROOT
ATOM      1  C   UNL     1       2.777   6.193  18.958  0.00  0.00    +0.000 A 
ATOM      2  C   UNL     1       2.168   5.076  18.364  0.00  0.00    +0.000 A 
ATOM      3  C   UNL     1       2.896   4.279  17.480  0.00  0.00    +0.000 A 
ATOM      4  C   UNL     1       4.217   4.585  17.152  0.00  0.00    +0.000 A 
ATOM      5  C   UNL     1       4.805   5.707  17.719  0.00  0.00    +0.000 A 
ATOM      6  C   UNL     1       4.103   6.512  18.632  0.00  0.00    +0.000 A 
ENDROOT
BRANCH   5   7
ATOM      7  N   UNL     1       6.176   6.049  17.408  0.00  0.00    +0.000 N 
ATOM      8  O   UNL     1       7.061   5.258  17.762  0.00  0.00    +0.000 OA
ATOM      9  O   UNL     1       6.355   7.075  16.739  0.00  0.00    +0.000 OA
ENDBRANCH   5   7
BRANCH   1  11
ATOM     10  C   UNL     1       1.569   8.241  19.754  0.00  0.00    +0.000 C 
ATOM     11  C   UNL     1       2.044   6.987  19.967  0.00  0.00    +0.000 C 
BRANCH  10  12
ATOM     12  C   UNL     1       0.879   9.044  20.787  0.00  0.00    +0.000 A 
ATOM     13  C   UNL     1       1.038  10.423  20.917  0.00  0.00    +0.000 A 
ATOM     14  N   UNL     1       0.428  11.152  21.887  0.00  0.00    +0.000 NA
ATOM     15  C   UNL     1      -0.354  10.456  22.738  0.00  0.00    +0.000 A 
ATOM     16  C   UNL     1      -0.530   9.091  22.623  0.00  0.00    +0.000 A 
ATOM     17  N   UNL     1       0.073   8.360  21.652  0.00  0.00    +0.000 NA
ENDBRANCH  10  12
BRANCH  10  19
ATOM     18  N   UNL     1       2.072   9.386  17.270  0.00  0.00    +0.000 NA
ATOM     19  C   UNL     1       1.844   8.867  18.396  0.00  0.00    +0.000 C 
ENDBRANCH  10  19
BRANCH  11  20
ATOM     20  O   UNL     1       1.919   6.299  21.158  0.00  0.00    +0.000 OA
ATOM     21  H   UNL     1       1.033   6.506  21.532  0.00  0.00    +0.000 HD
ENDBRANCH  11  20
ENDBRANCH   1  11
BRANCH   3  22
ATOM     22  O   UNL     1       2.360   3.150  16.923  0.00  0.00    +0.000 OA
ATOM     23  H   UNL     1       1.467   3.015  17.289  0.00  0.00    +0.000 HD
ENDBRANCH   3  22
BRANCH   4  24
ATOM     24  O   UNL     1       4.896   3.740  16.322  0.00  0.00    +0.000 OA
ATOM     25  H   UNL     1       5.789   3.644  16.713  0.00  0.00    +0.000 HD
ENDBRANCH   4  24
TORSDOF 7
ENDMDL
MODEL 6
REMARK VINA RESULT:      -6.3      4.250      5.804
REMARK  Name = 
REMARK  7 active torsions:
REMARK  status: ('A' for Active; 'I' for Inactive)
REMARK    1  A    between atoms: C_2  and  C_3
REMARK    2  A    between atoms: C_3  and  C_17
REMARK    3  A    between atoms: C_4  and  O_5
REMARK    4  A    between atoms: C_4  and  C_6
REMARK    5  A    between atoms: C_8  and  O_9
REMARK    6  A    between atoms: C_10  and  O_11
REMARK    7  A    between atoms: C_12  and  N_13
REMARK                            x       y       z     vdW  Elec       q    Type
REMARK                         _______ _______ _______ _____ _____    ______ ____
ROOT
ATOM      1  C   UNL     1       5.039   4.266  16.475  0.00  0.00    +0.000 A 
ATOM      2  C   UNL     1       6.035   5.193  16.821  0.00  0.00    +0.000 A 
ATOM      3  C   UNL     1       6.960   5.606  15.862  0.00  0.00    +0.000 A 
ATOM      4  C   UNL     1       6.931   5.097  14.564  0.00  0.00    +0.000 A 
ATOM      5  C   UNL     1       5.963   4.159  14.234  0.00  0.00    +0.000 A 
ATOM      6  C   UNL     1       5.004   3.743  15.173  0.00  0.00    +0.000 A 
ENDROOT
BRANCH   5   7
ATOM      7  N   UNL     1       5.898   3.615  12.895  0.00  0.00    +0.000 N 
ATOM      8  O   UNL     1       4.780   3.504  12.371  0.00  0.00    +0.000 OA
ATOM      9  O   UNL     1       6.978   3.372  12.340  0.00  0.00    +0.000 OA
ENDBRANCH   5   7
BRANCH   1  11
ATOM     10  C   UNL     1       4.129   4.044  18.801  0.00  0.00    +0.000 C 
ATOM     11  C   UNL     1       3.999   3.894  17.458  0.00  0.00    +0.000 C 
BRANCH  10  12
ATOM     12  C   UNL     1       3.101   3.624  19.777  0.00  0.00    +0.000 A 
ATOM     13  C   UNL     1       3.384   2.849  20.901  0.00  0.00    +0.000 A 
ATOM     14  N   UNL     1       2.432   2.437  21.778  0.00  0.00    +0.000 NA
ATOM     15  C   UNL     1       1.170   2.824  21.496  0.00  0.00    +0.000 A 
ATOM     16  C   UNL     1       0.869   3.597  20.392  0.00  0.00    +0.000 A 
ATOM     17  N   UNL     1       1.818   4.014  19.516  0.00  0.00    +0.000 NA
ENDBRANCH  10  12
BRANCH  10  19
ATOM     18  N   UNL     1       6.540   5.066  19.738  0.00  0.00    +0.000 NA
ATOM     19  C   UNL     1       5.447   4.603  19.313  0.00  0.00    +0.000 C 
ENDBRANCH  10  19
BRANCH  11  20
ATOM     20  O   UNL     1       2.887   3.359  16.838  0.00  0.00    +0.000 OA
ATOM     21  H   UNL     1       2.462   4.076  16.316  0.00  0.00    +0.000 HD
ENDBRANCH  11  20
ENDBRANCH   1  11
BRANCH   3  22
ATOM     22  O   UNL     1       7.911   6.550  16.141  0.00  0.00    +0.000 OA
ATOM     23  H   UNL     1       7.470   7.411  16.262  0.00  0.00    +0.000 HD
ENDBRANCH   3  22
BRANCH   4  24
ATOM     24  O   UNL     1       7.828   5.577  13.653  0.00  0.00    +0.000 OA
ATOM     25  H   UNL     1       7.303   6.100  13.013  0.00  0.00    +0.000 HD
ENDBRANCH   4  24
TORSDOF 7
ENDMDL
MODEL 7
REMARK VINA RESULT:      -6.0      1.541      1.762
REMARK  Name = 
REMARK  7 active torsions:
REMARK  status: ('A' for Active; 'I' for Inactive)
REMARK    1  A    between atoms: C_2  and  C_3
REMARK    2  A    between atoms: C_3  and  C_17
REMARK    3  A    between atoms: C_4  and  O_5
REMARK    4  A    between atoms: C_4  and  C_6
REMARK    5  A    between atoms: C_8  and  O_9
REMARK    6  A    between atoms: C_10  and  O_11
REMARK    7  A    between atoms: C_12  and  N_13
REMARK                            x       y       z     vdW  Elec       q    Type
REMARK                         _______ _______ _______ _____ _____    ______ ____
ROOT
ATOM      1  C   UNL     1       2.809   5.858  19.745  0.00  0.00    +0.000 A 
ATOM      2  C   UNL     1       2.186   4.601  19.780  0.00  0.00    +0.000 A 
ATOM      3  C   UNL     1       2.950   3.444  19.618  0.00  0.00    +0.000 A 
ATOM      4  C   UNL     1       4.325   3.512  19.394  0.00  0.00    +0.000 A 
ATOM      5  C   UNL     1       4.932   4.758  19.330  0.00  0.00    +0.000 A 
ATOM      6  C   UNL     1       4.192   5.938  19.515  0.00  0.00    +0.000 A 
ENDROOT
BRANCH   5   7
ATOM      7  N   UNL     1       6.358   4.865  19.108  0.00  0.00    +0.000 N 
ATOM      8  O   UNL     1       7.038   5.412  19.988  0.00  0.00    +0.000 OA
ATOM      9  O   UNL     1       6.803   4.331  18.084  0.00  0.00    +0.000 OA
ENDBRANCH   5   7
BRANCH   1  11
ATOM     10  C   UNL     1       1.915   8.122  19.143  0.00  0.00    +0.000 C 
ATOM     11  C   UNL     1       2.024   7.083  20.010  0.00  0.00    +0.000 C 
BRANCH  10  12
ATOM     12  C   UNL     1       1.166   9.362  19.439  0.00  0.00    +0.000 A 
ATOM     13  C   UNL     1       0.501  10.106  18.466  0.00  0.00    +0.000 A 
ATOM     14  N   UNL     1      -0.158  11.262  18.737  0.00  0.00    +0.000 NA
ATOM     15  C   UNL     1      -0.133  11.663  20.025  0.00  0.00    +0.000 A 
ATOM     16  C   UNL     1       0.514  10.937  21.005  0.00  0.00    +0.000 A 
ATOM     17  N   UNL     1       1.170   9.780  20.740  0.00  0.00    +0.000 NA
ENDBRANCH  10  12
BRANCH  10  19
ATOM     18  N   UNL     1       3.316   7.933  16.748  0.00  0.00    +0.000 NA
ATOM     19  C   UNL     1       2.681   8.019  17.834  0.00  0.00    +0.000 C 
ENDBRANCH  10  19
BRANCH  11  20
ATOM     20  O   UNL     1       1.431   7.042  21.256  0.00  0.00    +0.000 OA
ATOM     21  H   UNL     1       0.457   7.081  21.125  0.00  0.00    +0.000 HD
ENDBRANCH  11  20
ENDBRANCH   1  11
BRANCH   3  22
ATOM     22  O   UNL     1       2.391   2.198  19.703  0.00  0.00    +0.000 OA
ATOM     23  H   UNL     1       2.575   1.833  20.588  0.00  0.00    +0.000 HD
ENDBRANCH   3  22
BRANCH   4  24
ATOM     24  O   UNL     1       5.028   2.346  19.294  0.00  0.00    +0.000 OA
ATOM     25  H   UNL     1       4.404   1.690  18.922  0.00  0.00    +0.000 HD
ENDBRANCH   4  24
TORSDOF 7
ENDMDL
MODEL 8
REMARK VINA RESULT:      -5.9      2.079      3.236
REMARK  Name = 
REMARK  7 active torsions:
REMARK  status: ('A' for Active; 'I' for Inactive)
REMARK    1  A    between atoms: C_2  and  C_3
REMARK    2  A    between atoms: C_3  and  C_17
REMARK    3  A    between atoms: C_4  and  O_5
REMARK    4  A    between atoms: C_4  and  C_6
REMARK    5  A    between atoms: C_8  and  O_9
REMARK    6  A    between atoms: C_10  and  O_11
REMARK    7  A    between atoms: C_12  and  N_13
REMARK                            x       y       z     vdW  Elec       q    Type
REMARK                         _______ _______ _______ _____ _____    ______ ____
ROOT
ATOM      1  C   UNL     1       3.455   6.692  17.755  0.00  0.00    +0.000 A 
ATOM      2  C   UNL     1       4.733   6.894  17.209  0.00  0.00    +0.000 A 
ATOM      3  C   UNL     1       5.457   5.806  16.720  0.00  0.00    +0.000 A 
ATOM      4  C   UNL     1       4.946   4.510  16.786  0.00  0.00    +0.000 A 
ATOM      5  C   UNL     1       3.696   4.312  17.353  0.00  0.00    +0.000 A 
ATOM      6  C   UNL     1       2.934   5.391  17.830  0.00  0.00    +0.000 A 
ENDROOT
BRANCH   5   7
ATOM      7  N   UNL     1       3.131   2.981  17.430  0.00  0.00    +0.000 N 
ATOM      8  O   UNL     1       3.841   2.081  17.901  0.00  0.00    +0.000 OA
ATOM      9  O   UNL     1       1.948   2.857  17.089  0.00  0.00    +0.000 OA
ENDBRANCH   5   7
BRANCH   1  11
ATOM     10  C   UNL     1       1.957   7.904  19.359  0.00  0.00    +0.000 C 
ATOM     11  C   UNL     1       2.643   7.849  18.188  0.00  0.00    +0.000 C 
BRANCH  10  12
ATOM     12  C   UNL     1       1.109   9.048  19.759  0.00  0.00    +0.000 A 
ATOM     13  C   UNL     1       0.937   9.447  21.084  0.00  0.00    +0.000 A 
ATOM     14  N   UNL     1       0.132  10.477  21.450  0.00  0.00    +0.000 NA
ATOM     15  C   UNL     1      -0.509  11.106  20.444  0.00  0.00    +0.000 A 
ATOM     16  C   UNL     1      -0.348  10.731  19.124  0.00  0.00    +0.000 A 
ATOM     17  N   UNL     1       0.459   9.705  18.753  0.00  0.00    +0.000 NA
ENDBRANCH  10  12
BRANCH  10  19
ATOM     18  N   UNL     1       2.059   5.662  21.000  0.00  0.00    +0.000 NA
ATOM     19  C   UNL     1       2.013   6.679  20.256  0.00  0.00    +0.000 C 
ENDBRANCH  10  19
BRANCH  11  20
ATOM     20  O   UNL     1       2.657   8.856  17.245  0.00  0.00    +0.000 OA
ATOM     21  H   UNL     1       1.947   9.496  17.479  0.00  0.00    +0.000 HD
ENDBRANCH  11  20
ENDBRANCH   1  11
BRANCH   3  22
ATOM     22  O   UNL     1       6.681   5.966  16.129  0.00  0.00    +0.000 OA
ATOM     23  H   UNL     1       6.924   6.909  16.165  0.00  0.00    +0.000 HD
ENDBRANCH   3  22
BRANCH   4  24
ATOM     24  O   UNL     1       5.677   3.492  16.245  0.00  0.00    +0.000 OA
ATOM     25  H   UNL     1       6.616   3.738  16.378  0.00  0.00    +0.000 HD
ENDBRANCH   4  24
TORSDOF 7
ENDMDL
MODEL 9
REMARK VINA RESULT:      -5.9      4.109      5.719
REMARK  Name = 
REMARK  7 active torsions:
REMARK  status: ('A' for Active; 'I' for Inactive)
REMARK    1  A    between atoms: C_2  and  C_3
REMARK    2  A    between atoms: C_3  and  C_17
REMARK    3  A    between atoms: C_4  and  O_5
REMARK    4  A    between atoms: C_4  and  C_6
REMARK    5  A    between atoms: C_8  and  O_9
REMARK    6  A    between atoms: C_10  and  O_11
REMARK    7  A    between atoms: C_12  and  N_13
REMARK                            x       y       z     vdW  Elec       q    Type
REMARK                         _______ _______ _______ _____ _____    ______ ____
ROOT
ATOM      1  C   UNL     1       5.063   4.276  16.437  0.00  0.00    +0.000 A 
ATOM      2  C   UNL     1       6.049   5.211  16.791  0.00  0.00    +0.000 A 
ATOM      3  C   UNL     1       6.981   5.628  15.839  0.00  0.00    +0.000 A 
ATOM      4  C   UNL     1       6.970   5.113  14.543  0.00  0.00    +0.000 A 
ATOM      5  C   UNL     1       6.011   4.167  14.207  0.00  0.00    +0.000 A 
ATOM      6  C   UNL     1       5.045   3.748  15.137  0.00  0.00    +0.000 A 
ENDROOT
BRANCH   5   7
ATOM      7  N   UNL     1       5.965   3.618  12.869  0.00  0.00    +0.000 N 
ATOM      8  O   UNL     1       4.853   3.494  12.336  0.00  0.00    +0.000 OA
ATOM      9  O   UNL     1       7.052   3.383  12.325  0.00  0.00    +0.000 OA
ENDBRANCH   5   7
BRANCH   1  11
ATOM     10  C   UNL     1       4.123   4.072  18.753  0.00  0.00    +0.000 C 
ATOM     11  C   UNL     1       4.014   3.901  17.410  0.00  0.00    +0.000 C 
BRANCH  10  12
ATOM     12  C   UNL     1       3.087   3.648  19.720  0.00  0.00    +0.000 A 
ATOM     13  C   UNL     1       1.799   4.179  19.743  0.00  0.00    +0.000 A 
ATOM     14  N   UNL     1       0.861   3.811  20.654  0.00  0.00    +0.000 NA
ATOM     15  C   UNL     1       1.251   2.887  21.556  0.00  0.00    +0.000 A 
ATOM     16  C   UNL     1       2.521   2.344  21.546  0.00  0.00    +0.000 A 
ATOM     17  N   UNL     1       3.460   2.705  20.636  0.00  0.00    +0.000 NA
ENDBRANCH  10  12
BRANCH  10  19
ATOM     18  N   UNL     1       6.504   5.145  19.710  0.00  0.00    +0.000 NA
ATOM     19  C   UNL     1       5.424   4.658  19.276  0.00  0.00    +0.000 C 
ENDBRANCH  10  19
BRANCH  11  20
ATOM     20  O   UNL     1       2.920   3.340  16.782  0.00  0.00    +0.000 OA
ATOM     21  H   UNL     1       3.004   2.363  16.852  0.00  0.00    +0.000 HD
ENDBRANCH  11  20
ENDBRANCH   1  11
BRANCH   3  22
ATOM     22  O   UNL     1       7.922   6.579  16.125  0.00  0.00    +0.000 OA
ATOM     23  H   UNL     1       7.961   6.698  17.092  0.00  0.00    +0.000 HD
ENDBRANCH   3  22
BRANCH   4  24
ATOM     24  O   UNL     1       7.873   5.596  13.641  0.00  0.00    +0.000 OA
ATOM     25  H   UNL     1       8.083   4.846  13.047  0.00  0.00    +0.000 HD
ENDBRANCH   4  24
TORSDOF 7
ENDMDL
