MODEL 1
REMARK VINA RESULT:      -7.6      0.000      0.000
REMARK  Name = 
REMARK  9 active torsions:
REMARK  status: ('A' for Active; 'I' for Inactive)
REMARK    1  A    between atoms: C_1  and  N_2
REMARK    2  A    between atoms: N_2  and  C_3
REMARK    3  A    between atoms: N_2  and  C_4
REMARK    4  A    between atoms: C_4  and  C_5
REMARK    5  A    between atoms: C_5  and  C_6
REMARK    6  A    between atoms: C_6  and  O_7
REMARK    7  A    between atoms: O_7  and  C_8
REMARK    8  A    between atoms: C_11  and  N_12
REMARK    9  A    between atoms: N_12  and  C_13
REMARK                            x       y       z     vdW  Elec       q    Type
REMARK                         _______ _______ _______ _____ _____    ______ ____
ROOT
ATOM      1  N   UNL     1       3.222   6.891  18.782  0.00  0.00    +0.000 N 
ATOM      2  H   UNL     1       3.894   6.742  19.530  0.00  0.00    +0.000 HD
ENDROOT
BRANCH   1   3
ATOM      3  C   UNL     1       2.913   5.613  18.128  0.00  0.00    +0.000 C 
ATOM      4  C   UNL     1       4.063   5.373  17.093  0.00  0.00    +0.000 A 
ATOM      5  C   UNL     1       4.397   6.471  16.258  0.00  0.00    +0.000 A 
ATOM      6  C   UNL     1       5.448   6.427  15.332  0.00  0.00    +0.000 A 
ATOM      7  C   UNL     1       6.169   5.261  15.161  0.00  0.00    +0.000 A 
ATOM      8  C   UNL     1       5.856   4.154  15.931  0.00  0.00    +0.000 A 
ATOM      9  C   UNL     1       4.835   4.204  16.914  0.00  0.00    +0.000 A 
ATOM     10  C   UNL     1       4.748   2.994  17.786  0.00  0.00    +0.000 C 
ATOM     11  S   UNL     1       5.064   3.499  19.485  0.00  0.00    +0.000 S 
ATOM     12  C   UNL     1       3.341   3.658  19.836  0.00  0.00    +0.000 A 
ATOM     13  C   UNL     1       2.832   2.635  20.656  0.00  0.00    +0.000 A 
ATOM     14  C   UNL     1       1.484   2.569  20.966  0.00  0.00    +0.000 A 
ATOM     15  C   UNL     1       0.646   3.567  20.501  0.00  0.00    +0.000 A 
ATOM     16  C   UNL     1       1.140   4.550  19.628  0.00  0.00    +0.000 A 
ATOM     17  C   UNL     1       2.493   4.579  19.203  0.00  0.00    +0.000 A 
ENDBRANCH   1   3
BRANCH   1  21
ATOM     18  C   UNL     1       0.475   9.987  19.554  0.00  0.00    +0.000 A 
ATOM     19  C   UNL     1       0.948   9.721  18.269  0.00  0.00    +0.000 A 
ATOM     20  C   UNL     1       1.822   8.662  18.040  0.00  0.00    +0.000 A 
ATOM     21  C   UNL     1       2.273   7.858  19.085  0.00  0.00    +0.000 A 
ATOM     22  C   UNL     1       1.681   8.035  20.340  0.00  0.00    +0.000 A 
ATOM     23  C   UNL     1       0.814   9.114  20.586  0.00  0.00    +0.000 A 
BRANCH  18  24
ATOM     24  O   UNL     1      -0.308  11.066  19.889  0.00  0.00    +0.000 OA
BRANCH  24  25
ATOM     25  C   UNL     1      -0.542  11.978  18.807  0.00  0.00    +0.000 C 
BRANCH  25  26
ATOM     26  C   UNL     1      -1.991  11.924  18.337  0.00  0.00    +0.000 C 
BRANCH  26  27
ATOM     27  C   UNL     1      -2.097  11.524  16.852  0.00  0.00    +0.000 C 
BRANCH  27  29
ATOM     28  C   UNL     1      -3.252   9.520  17.675  0.00  0.00    +0.000 C 
ATOM     29  N   UNL     1      -2.424  10.108  16.619  0.00  0.00    +0.000 NA
ATOM     30  C   UNL     1      -3.102   9.934  15.330  0.00  0.00    +0.000 C 
ENDBRANCH  27  29
ENDBRANCH  26  27
ENDBRANCH  25  26
ENDBRANCH  24  25
ENDBRANCH  18  24
ENDBRANCH   1  21
TORSDOF 7
ENDMDL
MODEL 2
REMARK VINA RESULT:      -7.6      1.178      3.999
REMARK  Name = 
REMARK  9 active torsions:
REMARK  status: ('A' for Active; 'I' for Inactive)
REMARK    1  A    between atoms: C_1  and  N_2
REMARK    2  A    between atoms: N_2  and  C_3
REMARK    3  A    between atoms: N_2  and  C_4
REMARK    4  A    between atoms: C_4  and  C_5
REMARK    5  A    between atoms: C_5  and  C_6
REMARK    6  A    between atoms: C_6  and  O_7
REMARK    7  A    between atoms: O_7  and  C_8
REMARK    8  A    between atoms: C_11  and  N_12
REMARK    9  A    between atoms: N_12  and  C_13
REMARK                            x       y       z     vdW  Elec       q    Type
REMARK                         _______ _______ _______ _____ _____    ______ ____
ROOT
ATOM      1  N   UNL     1       2.461   6.438  18.469  0.00  0.00    +0.000 N 
ATOM      2  H   UNL     1       2.387   6.146  17.498  0.00  0.00    +0.000 HD
ENDROOT
BRANCH   1   3
ATOM      3  C   UNL     1       3.649   5.830  19.082  0.00  0.00    +0.000 C 
ATOM      4  C   UNL     1       3.127   4.595  19.893  0.00  0.00    +0.000 A 
ATOM      5  C   UNL     1       2.001   4.822  20.728  0.00  0.00    +0.000 A 
ATOM      6  C   UNL     1       1.383   3.799  21.460  0.00  0.00    +0.000 A 
ATOM      7  C   UNL     1       1.903   2.519  21.432  0.00  0.00    +0.000 A 
ATOM      8  C   UNL     1       3.020   2.260  20.657  0.00  0.00    +0.000 A 
ATOM      9  C   UNL     1       3.619   3.272  19.864  0.00  0.00    +0.000 A 
ATOM     10  C   UNL     1       4.693   2.791  18.943  0.00  0.00    +0.000 C 
ATOM     11  S   UNL     1       4.177   3.126  17.251  0.00  0.00    +0.000 S 
ATOM     12  C   UNL     1       5.067   4.651  17.205  0.00  0.00    +0.000 A 
ATOM     13  C   UNL     1       6.232   4.605  16.418  0.00  0.00    +0.000 A 
ATOM     14  C   UNL     1       7.084   5.693  16.336  0.00  0.00    +0.000 A 
ATOM     15  C   UNL     1       6.739   6.858  16.998  0.00  0.00    +0.000 A 
ATOM     16  C   UNL     1       5.613   6.884  17.836  0.00  0.00    +0.000 A 
ATOM     17  C   UNL     1       4.783   5.750  18.029  0.00  0.00    +0.000 A 
ENDBRANCH   1   3
BRANCH   1  21
ATOM     18  C   UNL     1       1.063  10.339  19.216  0.00  0.00    +0.000 A 
ATOM     19  C   UNL     1       1.066   9.352  20.203  0.00  0.00    +0.000 A 
ATOM     20  C   UNL     1       1.576   8.084  19.936  0.00  0.00    +0.000 A 
ATOM     21  C   UNL     1       2.068   7.753  18.675  0.00  0.00    +0.000 A 
ATOM     22  C   UNL     1       2.201   8.786  17.740  0.00  0.00    +0.000 A 
ATOM     23  C   UNL     1       1.670  10.063  17.992  0.00  0.00    +0.000 A 
BRANCH  18  24
ATOM     24  O   UNL     1       0.492  11.581  19.358  0.00  0.00    +0.000 OA
BRANCH  24  25
ATOM     25  C   UNL     1      -0.942  11.567  19.378  0.00  0.00    +0.000 C 
BRANCH  25  26
ATOM     26  C   UNL     1      -1.522  12.000  18.036  0.00  0.00    +0.000 C 
BRANCH  26  27
ATOM     27  C   UNL     1      -2.025  10.797  17.214  0.00  0.00    +0.000 C 
BRANCH  27  29
ATOM     28  C   UNL     1      -2.944  10.150  15.031  0.00  0.00    +0.000 C 
ATOM     29  N   UNL     1      -2.930  11.145  16.106  0.00  0.00    +0.000 NA
ATOM     30  C   UNL     1      -4.300  11.340  16.593  0.00  0.00    +0.000 C 
ENDBRANCH  27  29
ENDBRANCH  26  27
ENDBRANCH  25  26
ENDBRANCH  24  25
ENDBRANCH  18  24
ENDBRANCH   1  21
TORSDOF 7
ENDMDL
MODEL 3
REMARK VINA RESULT:      -7.6      0.655      1.126
REMARK  Name = 
REMARK  9 active torsions:
REMARK  status: ('A' for Active; 'I' for Inactive)
REMARK    1  A    between atoms: C_1  and  N_2
REMARK    2  A    between atoms: N_2  and  C_3
REMARK    3  A    between atoms: N_2  and  C_4
REMARK    4  A    between atoms: C_4  and  C_5
REMARK    5  A    between atoms: C_5  and  C_6
REMARK    6  A    between atoms: C_6  and  O_7
REMARK    7  A    between atoms: O_7  and  C_8
REMARK    8  A    between atoms: C_11  and  N_12
REMARK    9  A    between atoms: N_12  and  C_13
REMARK                            x       y       z     vdW  Elec       q    Type
REMARK                         _______ _______ _______ _____ _____    ______ ____
ROOT
ATOM      1  N   UNL     1       3.283   6.792  18.850  0.00  0.00    +0.000 N 
ATOM      2  H   UNL     1       3.882   6.578  19.645  0.00  0.00    +0.000 HD
ENDROOT
BRANCH   1   3
ATOM      3  C   UNL     1       2.913   5.551  18.158  0.00  0.00    +0.000 C 
ATOM      4  C   UNL     1       4.043   5.295  17.105  0.00  0.00    +0.000 A 
ATOM      5  C   UNL     1       4.418   6.405  16.303  0.00  0.00    +0.000 A 
ATOM      6  C   UNL     1       5.458   6.346  15.366  0.00  0.00    +0.000 A 
ATOM      7  C   UNL     1       6.127   5.156  15.150  0.00  0.00    +0.000 A 
ATOM      8  C   UNL     1       5.771   4.039  15.887  0.00  0.00    +0.000 A 
ATOM      9  C   UNL     1       4.762   4.100  16.881  0.00  0.00    +0.000 A 
ATOM     10  C   UNL     1       4.629   2.867  17.714  0.00  0.00    +0.000 C 
ATOM     11  S   UNL     1       4.982   3.302  19.425  0.00  0.00    +0.000 S 
ATOM     12  C   UNL     1       3.270   3.524  19.798  0.00  0.00    +0.000 A 
ATOM     13  C   UNL     1       2.724   2.497  20.589  0.00  0.00    +0.000 A 
ATOM     14  C   UNL     1       1.377   2.479  20.910  0.00  0.00    +0.000 A 
ATOM     15  C   UNL     1       0.579   3.527  20.485  0.00  0.00    +0.000 A 
ATOM     16  C   UNL     1       1.108   4.516  19.641  0.00  0.00    +0.000 A 
ATOM     17  C   UNL     1       2.458   4.501  19.203  0.00  0.00    +0.000 A 
ENDBRANCH   1   3
BRANCH   1  21
ATOM     18  C   UNL     1       0.465   9.796  19.724  0.00  0.00    +0.000 A 
ATOM     19  C   UNL     1       0.908   8.893  20.691  0.00  0.00    +0.000 A 
ATOM     20  C   UNL     1       1.874   7.939  20.381  0.00  0.00    +0.000 A 
ATOM     21  C   UNL     1       2.403   7.836  19.096  0.00  0.00    +0.000 A 
ATOM     22  C   UNL     1       2.067   8.836  18.176  0.00  0.00    +0.000 A 
ATOM     23  C   UNL     1       1.078   9.789  18.472  0.00  0.00    +0.000 A 
BRANCH  18  24
ATOM     24  O   UNL     1      -0.552  10.702  19.910  0.00  0.00    +0.000 OA
BRANCH  24  25
ATOM     25  C   UNL     1      -1.042  11.288  18.696  0.00  0.00    +0.000 C 
BRANCH  25  26
ATOM     26  C   UNL     1      -2.242  10.521  18.152  0.00  0.00    +0.000 C 
BRANCH  26  27
ATOM     27  C   UNL     1      -2.257  10.498  16.611  0.00  0.00    +0.000 C 
BRANCH  27  29
ATOM     28  C   UNL     1      -4.556  11.321  16.360  0.00  0.00    +0.000 C 
ATOM     29  N   UNL     1      -3.584  10.282  16.012  0.00  0.00    +0.000 NA
ATOM     30  C   UNL     1      -3.489  10.189  14.551  0.00  0.00    +0.000 C 
ENDBRANCH  27  29
ENDBRANCH  26  27
ENDBRANCH  25  26
ENDBRANCH  24  25
ENDBRANCH  18  24
ENDBRANCH   1  21
TORSDOF 7
ENDMDL
MODEL 4
REMARK VINA RESULT:      -7.4      2.268      2.768
REMARK  Name = 
REMARK  9 active torsions:
REMARK  status: ('A' for Active; 'I' for Inactive)
REMARK    1  A    between atoms: C_1  and  N_2
REMARK    2  A    between atoms: N_2  and  C_3
REMARK    3  A    between atoms: N_2  and  C_4
REMARK    4  A    between atoms: C_4  and  C_5
REMARK    5  A    between atoms: C_5  and  C_6
REMARK    6  A    between atoms: C_6  and  O_7
REMARK    7  A    between atoms: O_7  and  C_8
REMARK    8  A    between atoms: C_11  and  N_12
REMARK    9  A    between atoms: N_12  and  C_13
REMARK                            x       y       z     vdW  Elec       q    Type
REMARK                         _______ _______ _______ _____ _____    ______ ____
ROOT
ATOM      1  N   UNL     1       3.131   6.900  19.045  0.00  0.00    +0.000 N 
ATOM      2  H   UNL     1       3.765   6.714  19.817  0.00  0.00    +0.000 HD
ENDROOT
BRANCH   1   3
ATOM      3  C   UNL     1       2.815   5.648  18.346  0.00  0.00    +0.000 C 
ATOM      4  C   UNL     1       3.930   5.471  17.260  0.00  0.00    +0.000 A 
ATOM      5  C   UNL     1       4.218   6.611  16.464  0.00  0.00    +0.000 A 
ATOM      6  C   UNL     1       5.235   6.624  15.500  0.00  0.00    +0.000 A 
ATOM      7  C   UNL     1       5.966   5.477  15.251  0.00  0.00    +0.000 A 
ATOM      8  C   UNL     1       5.695   4.333  15.982  0.00  0.00    +0.000 A 
ATOM      9  C   UNL     1       4.711   4.323  17.002  0.00  0.00    +0.000 A 
ATOM     10  C   UNL     1       4.672   3.075  17.822  0.00  0.00    +0.000 C 
ATOM     11  S   UNL     1       5.044   3.509  19.529  0.00  0.00    +0.000 S 
ATOM     12  C   UNL     1       3.332   3.626  19.949  0.00  0.00    +0.000 A 
ATOM     13  C   UNL     1       2.868   2.560  20.740  0.00  0.00    +0.000 A 
ATOM     14  C   UNL     1       1.533   2.460  21.095  0.00  0.00    +0.000 A 
ATOM     15  C   UNL     1       0.665   3.464  20.705  0.00  0.00    +0.000 A 
ATOM     16  C   UNL     1       1.113   4.492  19.860  0.00  0.00    +0.000 A 
ATOM     17  C   UNL     1       2.449   4.561  19.388  0.00  0.00    +0.000 A 
ENDBRANCH   1   3
BRANCH   1  21
ATOM     18  C   UNL     1       0.436  10.053  19.774  0.00  0.00    +0.000 A 
ATOM     19  C   UNL     1       0.945   9.793  18.501  0.00  0.00    +0.000 A 
ATOM     20  C   UNL     1       1.799   8.716  18.285  0.00  0.00    +0.000 A 
ATOM     21  C   UNL     1       2.197   7.886  19.332  0.00  0.00    +0.000 A 
ATOM     22  C   UNL     1       1.568   8.060  20.569  0.00  0.00    +0.000 A 
ATOM     23  C   UNL     1       0.720   9.157  20.803  0.00  0.00    +0.000 A 
BRANCH  18  24
ATOM     24  O   UNL     1      -0.331  11.146  20.100  0.00  0.00    +0.000 OA
BRANCH  24  25
ATOM     25  C   UNL     1      -0.247  11.529  21.480  0.00  0.00    +0.000 C 
BRANCH  25  26
ATOM     26  C   UNL     1      -1.448  12.369  21.899  0.00  0.00    +0.000 C 
BRANCH  26  27
ATOM     27  C   UNL     1      -2.152  11.784  23.140  0.00  0.00    +0.000 C 
BRANCH  27  29
ATOM     28  C   UNL     1      -3.875  13.009  24.389  0.00  0.00    +0.000 C 
ATOM     29  N   UNL     1      -3.579  12.128  23.256  0.00  0.00    +0.000 NA
ATOM     30  C   UNL     1      -4.066  12.756  22.023  0.00  0.00    +0.000 C 
ENDBRANCH  27  29
ENDBRANCH  26  27
ENDBRANCH  25  26
ENDBRANCH  24  25
ENDBRANCH  18  24
ENDBRANCH   1  21
TORSDOF 7
ENDMDL
MODEL 5
REMARK VINA RESULT:      -7.4      1.095      1.168
REMARK  Name = 
REMARK  9 active torsions:
REMARK  status: ('A' for Active; 'I' for Inactive)
REMARK    1  A    between atoms: C_1  and  N_2
REMARK    2  A    between atoms: N_2  and  C_3
REMARK    3  A    between atoms: N_2  and  C_4
REMARK    4  A    between atoms: C_4  and  C_5
REMARK    5  A    between atoms: C_5  and  C_6
REMARK    6  A    between atoms: C_6  and  O_7
REMARK    7  A    between atoms: O_7  and  C_8
REMARK    8  A    between atoms: C_11  and  N_12
REMARK    9  A    between atoms: N_12  and  C_13
REMARK                            x       y       z     vdW  Elec       q    Type
REMARK                         _______ _______ _______ _____ _____    ______ ____
ROOT
ATOM      1  N   UNL     1       3.270   6.815  18.804  0.00  0.00    +0.000 N 
ATOM      2  H   UNL     1       3.869   6.648  19.608  0.00  0.00    +0.000 HD
ENDROOT
BRANCH   1   3
ATOM      3  C   UNL     1       2.936   5.540  18.156  0.00  0.00    +0.000 C 
ATOM      4  C   UNL     1       4.082   5.274  17.121  0.00  0.00    +0.000 A 
ATOM      5  C   UNL     1       4.435   6.363  16.282  0.00  0.00    +0.000 A 
ATOM      6  C   UNL     1       5.484   6.295  15.355  0.00  0.00    +0.000 A 
ATOM      7  C   UNL     1       6.184   5.115  15.189  0.00  0.00    +0.000 A 
ATOM      8  C   UNL     1       5.851   4.018  15.964  0.00  0.00    +0.000 A 
ATOM      9  C   UNL     1       4.832   4.091  16.948  0.00  0.00    +0.000 A 
ATOM     10  C   UNL     1       4.724   2.887  17.826  0.00  0.00    +0.000 C 
ATOM     11  S   UNL     1       5.051   3.395  19.522  0.00  0.00    +0.000 S 
ATOM     12  C   UNL     1       3.331   3.586  19.874  0.00  0.00    +0.000 A 
ATOM     13  C   UNL     1       2.804   2.576  20.699  0.00  0.00    +0.000 A 
ATOM     14  C   UNL     1       1.456   2.536  21.010  0.00  0.00    +0.000 A 
ATOM     15  C   UNL     1       0.636   3.547  20.541  0.00  0.00    +0.000 A 
ATOM     16  C   UNL     1       1.146   4.516  19.664  0.00  0.00    +0.000 A 
ATOM     17  C   UNL     1       2.499   4.519  19.237  0.00  0.00    +0.000 A 
ENDBRANCH   1   3
BRANCH   1  21
ATOM     18  C   UNL     1       0.656  10.085  19.267  0.00  0.00    +0.000 A 
ATOM     19  C   UNL     1       1.174   9.721  18.023  0.00  0.00    +0.000 A 
ATOM     20  C   UNL     1       2.000   8.608  17.897  0.00  0.00    +0.000 A 
ATOM     21  C   UNL     1       2.360   7.845  19.006  0.00  0.00    +0.000 A 
ATOM     22  C   UNL     1       1.721   8.124  20.219  0.00  0.00    +0.000 A 
ATOM     23  C   UNL     1       0.902   9.257  20.361  0.00  0.00    +0.000 A 
BRANCH  18  24
ATOM     24  O   UNL     1      -0.083  11.219  19.502  0.00  0.00    +0.000 OA
BRANCH  24  25
ATOM     25  C   UNL     1      -0.964  11.576  18.428  0.00  0.00    +0.000 C 
BRANCH  25  26
ATOM     26  C   UNL     1      -2.305  10.861  18.547  0.00  0.00    +0.000 C 
BRANCH  26  27
ATOM     27  C   UNL     1      -3.321  11.372  17.505  0.00  0.00    +0.000 C 
BRANCH  27  29
ATOM     28  C   UNL     1      -4.798  12.090  19.330  0.00  0.00    +0.000 C 
ATOM     29  N   UNL     1      -4.703  11.486  17.999  0.00  0.00    +0.000 NA
ATOM     30  C   UNL     1      -5.529  12.258  17.064  0.00  0.00    +0.000 C 
ENDBRANCH  27  29
ENDBRANCH  26  27
ENDBRANCH  25  26
ENDBRANCH  24  25
ENDBRANCH  18  24
ENDBRANCH   1  21
TORSDOF 7
ENDMDL
MODEL 6
REMARK VINA RESULT:      -7.3      1.827      2.602
REMARK  Name = 
REMARK  9 active torsions:
REMARK  status: ('A' for Active; 'I' for Inactive)
REMARK    1  A    between atoms: C_1  and  N_2
REMARK    2  A    between atoms: N_2  and  C_3
REMARK    3  A    between atoms: N_2  and  C_4
REMARK    4  A    between atoms: C_4  and  C_5
REMARK    5  A    between atoms: C_5  and  C_6
REMARK    6  A    between atoms: C_6  and  O_7
REMARK    7  A    between atoms: O_7  and  C_8
REMARK    8  A    between atoms: C_11  and  N_12
REMARK    9  A    between atoms: N_12  and  C_13
REMARK                            x       y       z     vdW  Elec       q    Type
REMARK                         _______ _______ _______ _____ _____    ______ ____
ROOT
ATOM      1  N   UNL     1       3.167   6.891  18.869  0.00  0.00    +0.000 N 
ATOM      2  H   UNL     1       3.727   6.713  19.700  0.00  0.00    +0.000 HD
ENDROOT
BRANCH   1   3
ATOM      3  C   UNL     1       2.851   5.622  18.201  0.00  0.00    +0.000 C 
ATOM      4  C   UNL     1       3.987   5.400  17.145  0.00  0.00    +0.000 A 
ATOM      5  C   UNL     1       4.307   6.512  16.323  0.00  0.00    +0.000 A 
ATOM      6  C   UNL     1       5.345   6.485  15.381  0.00  0.00    +0.000 A 
ATOM      7  C   UNL     1       6.066   5.322  15.183  0.00  0.00    +0.000 A 
ATOM      8  C   UNL     1       5.766   4.204  15.940  0.00  0.00    +0.000 A 
ATOM      9  C   UNL     1       4.759   4.236  16.938  0.00  0.00    +0.000 A 
ATOM     10  C   UNL     1       4.686   3.013  17.793  0.00  0.00    +0.000 C 
ATOM     11  S   UNL     1       5.026   3.493  19.495  0.00  0.00    +0.000 S 
ATOM     12  C   UNL     1       3.308   3.643  19.873  0.00  0.00    +0.000 A 
ATOM     13  C   UNL     1       2.813   2.606  20.685  0.00  0.00    +0.000 A 
ATOM     14  C   UNL     1       1.470   2.532  21.012  0.00  0.00    +0.000 A 
ATOM     15  C   UNL     1       0.623   3.535  20.574  0.00  0.00    +0.000 A 
ATOM     16  C   UNL     1       1.102   4.532  19.710  0.00  0.00    +0.000 A 
ATOM     17  C   UNL     1       2.449   4.571  19.265  0.00  0.00    +0.000 A 
ENDBRANCH   1   3
BRANCH   1  21
ATOM     18  C   UNL     1       0.274   9.882  19.513  0.00  0.00    +0.000 A 
ATOM     19  C   UNL     1       0.749   9.076  20.548  0.00  0.00    +0.000 A 
ATOM     20  C   UNL     1       1.738   8.126  20.311  0.00  0.00    +0.000 A 
ATOM     21  C   UNL     1       2.260   7.929  19.034  0.00  0.00    +0.000 A 
ATOM     22  C   UNL     1       1.891   8.838  18.036  0.00  0.00    +0.000 A 
ATOM     23  C   UNL     1       0.878   9.786  18.260  0.00  0.00    +0.000 A 
BRANCH  18  24
ATOM     24  O   UNL     1      -0.765  10.774  19.632  0.00  0.00    +0.000 OA
BRANCH  24  25
ATOM     25  C   UNL     1      -0.380  12.146  19.467  0.00  0.00    +0.000 C 
BRANCH  25  26
ATOM     26  C   UNL     1      -1.202  13.066  20.363  0.00  0.00    +0.000 C 
BRANCH  26  27
ATOM     27  C   UNL     1      -2.232  12.280  21.200  0.00  0.00    +0.000 C 
BRANCH  27  29
ATOM     28  C   UNL     1      -3.185  12.309  23.462  0.00  0.00    +0.000 C 
ATOM     29  N   UNL     1      -1.968  12.271  22.648  0.00  0.00    +0.000 NA
ATOM     30  C   UNL     1      -1.178  11.094  23.027  0.00  0.00    +0.000 C 
ENDBRANCH  27  29
ENDBRANCH  26  27
ENDBRANCH  25  26
ENDBRANCH  24  25
ENDBRANCH  18  24
ENDBRANCH   1  21
TORSDOF 7
ENDMDL
MODEL 7
REMARK VINA RESULT:      -7.3      1.262      1.775
REMARK  Name = 
REMARK  9 active torsions:
REMARK  status: ('A' for Active; 'I' for Inactive)
REMARK    1  A    between atoms: C_1  and  N_2
REMARK    2  A    between atoms: N_2  and  C_3
REMARK    3  A    between atoms: N_2  and  C_4
REMARK    4  A    between atoms: C_4  and  C_5
REMARK    5  A    between atoms: C_5  and  C_6
REMARK    6  A    between atoms: C_6  and  O_7
REMARK    7  A    between atoms: O_7  and  C_8
REMARK    8  A    between atoms: C_11  and  N_12
REMARK    9  A    between atoms: N_12  and  C_13
REMARK                            x       y       z     vdW  Elec       q    Type
REMARK                         _______ _______ _______ _____ _____    ______ ____
ROOT
ATOM      1  N   UNL     1       3.197   6.898  18.805  0.00  0.00    +0.000 N 
ATOM      2  H   UNL     1       3.749   6.726  19.642  0.00  0.00    +0.000 HD
ENDROOT
BRANCH   1   3
ATOM      3  C   UNL     1       2.883   5.625  18.144  0.00  0.00    +0.000 C 
ATOM      4  C   UNL     1       4.025   5.395  17.097  0.00  0.00    +0.000 A 
ATOM      5  C   UNL     1       4.351   6.501  16.268  0.00  0.00    +0.000 A 
ATOM      6  C   UNL     1       5.394   6.466  15.333  0.00  0.00    +0.000 A 
ATOM      7  C   UNL     1       6.115   5.302  15.147  0.00  0.00    +0.000 A 
ATOM      8  C   UNL     1       5.810   4.189  15.910  0.00  0.00    +0.000 A 
ATOM      9  C   UNL     1       4.797   4.229  16.902  0.00  0.00    +0.000 A 
ATOM     10  C   UNL     1       4.719   3.012  17.765  0.00  0.00    +0.000 C 
ATOM     11  S   UNL     1       5.050   3.504  19.465  0.00  0.00    +0.000 S 
ATOM     12  C   UNL     1       3.329   3.657  19.833  0.00  0.00    +0.000 A 
ATOM     13  C   UNL     1       2.829   2.627  20.649  0.00  0.00    +0.000 A 
ATOM     14  C   UNL     1       1.484   2.556  20.970  0.00  0.00    +0.000 A 
ATOM     15  C   UNL     1       0.641   3.556  20.520  0.00  0.00    +0.000 A 
ATOM     16  C   UNL     1       1.125   4.547  19.651  0.00  0.00    +0.000 A 
ATOM     17  C   UNL     1       2.475   4.582  19.214  0.00  0.00    +0.000 A 
ENDBRANCH   1   3
BRANCH   1  21
ATOM     18  C   UNL     1       0.309   9.903  19.409  0.00  0.00    +0.000 A 
ATOM     19  C   UNL     1       0.803   9.129  20.460  0.00  0.00    +0.000 A 
ATOM     20  C   UNL     1       1.790   8.174  20.234  0.00  0.00    +0.000 A 
ATOM     21  C   UNL     1       2.291   7.939  18.955  0.00  0.00    +0.000 A 
ATOM     22  C   UNL     1       1.902   8.817  17.937  0.00  0.00    +0.000 A 
ATOM     23  C   UNL     1       0.891   9.770  18.150  0.00  0.00    +0.000 A 
BRANCH  18  24
ATOM     24  O   UNL     1      -0.730  10.796  19.520  0.00  0.00    +0.000 OA
BRANCH  24  25
ATOM     25  C   UNL     1      -1.262  11.233  18.261  0.00  0.00    +0.000 C 
BRANCH  25  26
ATOM     26  C   UNL     1      -2.770  11.017  18.189  0.00  0.00    +0.000 C 
BRANCH  26  27
ATOM     27  C   UNL     1      -3.530  11.974  19.130  0.00  0.00    +0.000 C 
BRANCH  27  29
ATOM     28  C   UNL     1      -5.505  11.057  17.996  0.00  0.00    +0.000 C 
ATOM     29  N   UNL     1      -4.957  12.145  18.809  0.00  0.00    +0.000 NA
ATOM     30  C   UNL     1      -5.755  12.274  20.033  0.00  0.00    +0.000 C 
ENDBRANCH  27  29
ENDBRANCH  26  27
ENDBRANCH  25  26
ENDBRANCH  24  25
ENDBRANCH  18  24
ENDBRANCH   1  21
TORSDOF 7
ENDMDL
MODEL 8
REMARK VINA RESULT:      -7.3      1.431      1.906
REMARK  Name = 
REMARK  9 active torsions:
REMARK  status: ('A' for Active; 'I' for Inactive)
REMARK    1  A    between atoms: C_1  and  N_2
REMARK    2  A    between atoms: N_2  and  C_3
REMARK    3  A    between atoms: N_2  and  C_4
REMARK    4  A    between atoms: C_4  and  C_5
REMARK    5  A    between atoms: C_5  and  C_6
REMARK    6  A    between atoms: C_6  and  O_7
REMARK    7  A    between atoms: O_7  and  C_8
REMARK    8  A    between atoms: C_11  and  N_12
REMARK    9  A    between atoms: N_12  and  C_13
REMARK                            x       y       z     vdW  Elec       q    Type
REMARK                         _______ _______ _______ _____ _____    ______ ____
ROOT
ATOM      1  N   UNL     1       3.238   6.830  18.765  0.00  0.00    +0.000 N 
ATOM      2  H   UNL     1       3.887   6.683  19.534  0.00  0.00    +0.000 HD
ENDROOT
BRANCH   1   3
ATOM      3  C   UNL     1       2.925   5.546  18.125  0.00  0.00    +0.000 C 
ATOM      4  C   UNL     1       4.077   5.290  17.095  0.00  0.00    +0.000 A 
ATOM      5  C   UNL     1       4.416   6.378  16.249  0.00  0.00    +0.000 A 
ATOM      6  C   UNL     1       5.468   6.320  15.325  0.00  0.00    +0.000 A 
ATOM      7  C   UNL     1       6.186   5.149  15.169  0.00  0.00    +0.000 A 
ATOM      8  C   UNL     1       5.867   4.053  15.950  0.00  0.00    +0.000 A 
ATOM      9  C   UNL     1       4.845   4.117  16.931  0.00  0.00    +0.000 A 
ATOM     10  C   UNL     1       4.752   2.917  17.817  0.00  0.00    +0.000 C 
ATOM     11  S   UNL     1       5.068   3.441  19.510  0.00  0.00    +0.000 S 
ATOM     12  C   UNL     1       3.344   3.609  19.856  0.00  0.00    +0.000 A 
ATOM     13  C   UNL     1       2.830   2.597  20.687  0.00  0.00    +0.000 A 
ATOM     14  C   UNL     1       1.482   2.539  20.995  0.00  0.00    +0.000 A 
ATOM     15  C   UNL     1       0.648   3.534  20.517  0.00  0.00    +0.000 A 
ATOM     16  C   UNL     1       1.146   4.505  19.635  0.00  0.00    +0.000 A 
ATOM     17  C   UNL     1       2.500   4.525  19.211  0.00  0.00    +0.000 A 
ENDBRANCH   1   3
BRANCH   1  21
ATOM     18  C   UNL     1       0.514   9.979  19.398  0.00  0.00    +0.000 A 
ATOM     19  C   UNL     1       0.975   9.643  18.124  0.00  0.00    +0.000 A 
ATOM     20  C   UNL     1       1.841   8.568  17.944  0.00  0.00    +0.000 A 
ATOM     21  C   UNL     1       2.297   7.817  19.025  0.00  0.00    +0.000 A 
ATOM     22  C   UNL     1       1.716   8.063  20.274  0.00  0.00    +0.000 A 
ATOM     23  C   UNL     1       0.858   9.159  20.471  0.00  0.00    +0.000 A 
BRANCH  18  24
ATOM     24  O   UNL     1      -0.260  11.078  19.683  0.00  0.00    +0.000 OA
BRANCH  24  25
ATOM     25  C   UNL     1      -0.862  11.684  18.530  0.00  0.00    +0.000 C 
BRANCH  25  26
ATOM     26  C   UNL     1      -2.332  12.006  18.775  0.00  0.00    +0.000 C 
BRANCH  26  27
ATOM     27  C   UNL     1      -2.570  12.547  20.199  0.00  0.00    +0.000 C 
BRANCH  27  29
ATOM     28  C   UNL     1      -4.943  12.341  19.602  0.00  0.00    +0.000 C 
ATOM     29  N   UNL     1      -3.951  12.983  20.467  0.00  0.00    +0.000 NA
ATOM     30  C   UNL     1      -4.311  12.740  21.868  0.00  0.00    +0.000 C 
ENDBRANCH  27  29
ENDBRANCH  26  27
ENDBRANCH  25  26
ENDBRANCH  24  25
ENDBRANCH  18  24
ENDBRANCH   1  21
TORSDOF 7
ENDMDL
MODEL 9
REMARK VINA RESULT:      -7.1      1.267      3.895
REMARK  Name = 
REMARK  9 active torsions:
REMARK  status: ('A' for Active; 'I' for Inactive)
REMARK    1  A    between atoms: C_1  and  N_2
REMARK    2  A    between atoms: N_2  and  C_3
REMARK    3  A    between atoms: N_2  and  C_4
REMARK    4  A    between atoms: C_4  and  C_5
REMARK    5  A    between atoms: C_5  and  C_6
REMARK    6  A    between atoms: C_6  and  O_7
REMARK    7  A    between atoms: O_7  and  C_8
REMARK    8  A    between atoms: C_11  and  N_12
REMARK    9  A    between atoms: N_12  and  C_13
REMARK                            x       y       z     vdW  Elec       q    Type
REMARK                         _______ _______ _______ _____ _____    ______ ____
ROOT
ATOM      1  N   UNL     1       2.463   6.655  18.330  0.00  0.00    +0.000 N 
ATOM      2  H   UNL     1       2.522   6.535  17.322  0.00  0.00    +0.000 HD
ENDROOT
BRANCH   1   3
ATOM      3  C   UNL     1       3.583   5.962  18.981  0.00  0.00    +0.000 C 
ATOM      4  C   UNL     1       2.964   4.694  19.661  0.00  0.00    +0.000 A 
ATOM      5  C   UNL     1       1.788   4.903  20.428  0.00  0.00    +0.000 A 
ATOM      6  C   UNL     1       1.086   3.855  21.039  0.00  0.00    +0.000 A 
ATOM      7  C   UNL     1       1.566   2.562  20.955  0.00  0.00    +0.000 A 
ATOM      8  C   UNL     1       2.728   2.317  20.245  0.00  0.00    +0.000 A 
ATOM      9  C   UNL     1       3.415   3.359  19.572  0.00  0.00    +0.000 A 
ATOM     10  C   UNL     1       4.538   2.904  18.697  0.00  0.00    +0.000 C 
ATOM     11  S   UNL     1       4.158   3.376  17.002  0.00  0.00    +0.000 S 
ATOM     12  C   UNL     1       5.097   4.867  17.129  0.00  0.00    +0.000 A 
ATOM     13  C   UNL     1       6.314   4.833  16.425  0.00  0.00    +0.000 A 
ATOM     14  C   UNL     1       7.204   5.892  16.482  0.00  0.00    +0.000 A 
ATOM     15  C   UNL     1       6.848   7.020  17.201  0.00  0.00    +0.000 A 
ATOM     16  C   UNL     1       5.665   7.029  17.956  0.00  0.00    +0.000 A 
ATOM     17  C   UNL     1       4.788   5.915  18.008  0.00  0.00    +0.000 A 
ENDBRANCH   1   3
BRANCH   1  21
ATOM     18  C   UNL     1       1.267  10.565  19.335  0.00  0.00    +0.000 A 
ATOM     19  C   UNL     1       1.652  10.219  18.039  0.00  0.00    +0.000 A 
ATOM     20  C   UNL     1       2.000   8.907  17.730  0.00  0.00    +0.000 A 
ATOM     21  C   UNL     1       2.004   7.910  18.704  0.00  0.00    +0.000 A 
ATOM     22  C   UNL     1       1.474   8.231  19.959  0.00  0.00    +0.000 A 
ATOM     23  C   UNL     1       1.141   9.556  20.287  0.00  0.00    +0.000 A 
BRANCH  18  24
ATOM     24  O   UNL     1       1.003  11.848  19.754  0.00  0.00    +0.000 OA
BRANCH  24  25
ATOM     25  C   UNL     1       0.355  12.663  18.768  0.00  0.00    +0.000 C 
BRANCH  25  26
ATOM     26  C   UNL     1      -1.160  12.638  18.933  0.00  0.00    +0.000 C 
BRANCH  26  27
ATOM     27  C   UNL     1      -1.847  11.852  17.798  0.00  0.00    +0.000 C 
BRANCH  27  29
ATOM     28  C   UNL     1      -4.284  11.635  17.996  0.00  0.00    +0.000 C 
ATOM     29  N   UNL     1      -2.978  11.014  18.228  0.00  0.00    +0.000 NA
ATOM     30  C   UNL     1      -2.946   9.709  17.558  0.00  0.00    +0.000 C 
ENDBRANCH  27  29
ENDBRANCH  26  27
ENDBRANCH  25  26
ENDBRANCH  24  25
ENDBRANCH  18  24
ENDBRANCH   1  21
TORSDOF 7
ENDMDL
