MODEL 1
REMARK VINA RESULT:      -8.3      0.000      0.000
REMARK  Name = 
REMARK  4 active torsions:
REMARK  status: ('A' for Active; 'I' for Inactive)
REMARK    1  A    between atoms: C_5  and  C_6
REMARK    2  A    between atoms: C_11  and  C_12
REMARK    3  A    between atoms: C_12  and  O_13
REMARK    4  A    between atoms: O_13  and  C_14
REMARK                            x       y       z     vdW  Elec       q    Type
REMARK                         _______ _______ _______ _____ _____    ______ ____
ROOT
ATOM      1  C   UNL     1       5.464   6.336  17.170  0.00  0.00    +0.000 C 
ATOM      2  C   UNL     1       5.908   5.719  15.820  0.00  0.00    +0.000 C 
ATOM      3  C   UNL     1       6.742   4.450  16.006  0.00  0.00    +0.000 C 
ATOM      4  N   UNL     1       7.881   4.620  16.905  0.00  0.00    +0.000 NA
ATOM      5  C   UNL     1       7.519   5.241  18.179  0.00  0.00    +0.000 C 
ATOM      6  C   UNL     1       6.749   6.568  18.022  0.00  0.00    +0.000 C 
ATOM      7  H   UNL     1       8.614   5.170  16.451  0.00  0.00    +0.000 HD
ENDROOT
BRANCH   1  12
ATOM      8 BR   UNL     1       0.946   3.116  20.081  0.00  0.00    +0.000 Br
ATOM      9  C   UNL     1       2.318   4.076  19.210  0.00  0.00    +0.000 A 
ATOM     10  C   UNL     1       2.580   3.848  17.868  0.00  0.00    +0.000 A 
ATOM     11  C   UNL     1       3.591   4.562  17.220  0.00  0.00    +0.000 A 
ATOM     12  C   UNL     1       4.350   5.543  17.888  0.00  0.00    +0.000 A 
ATOM     13  C   UNL     1       4.090   5.717  19.258  0.00  0.00    +0.000 A 
ATOM     14  C   UNL     1       3.076   5.005  19.912  0.00  0.00    +0.000 A 
ENDBRANCH   1  12
BRANCH   6  15
ATOM     15  C   UNL     1       7.649   7.683  17.447  0.00  0.00    +0.000 C 
BRANCH  15  16
ATOM     16  O   UNL     1       8.487   8.158  18.507  0.00  0.00    +0.000 OA
BRANCH  16  17
ATOM     17  C   UNL     1       8.721   9.503  18.579  0.00  0.00    +0.000 A 
ATOM     18  C   UNL     1       8.334  10.457  17.620  0.00  0.00    +0.000 A 
ATOM     19  C   UNL     1       8.639  11.812  17.799  0.00  0.00    +0.000 A 
ATOM     20  C   UNL     1       9.332  12.172  18.934  0.00  0.00    +0.000 A 
ATOM     21  C   UNL     1       9.707  11.244  19.874  0.00  0.00    +0.000 A 
ATOM     22  C   UNL     1       9.413   9.906  19.726  0.00  0.00    +0.000 A 
ATOM     23  O   UNL     1      10.378  11.803  20.916  0.00  0.00    +0.000 OA
ATOM     24  C   UNL     1      10.452  13.177  20.482  0.00  0.00    +0.000 C 
ATOM     25  O   UNL     1       9.725  13.432  19.261  0.00  0.00    +0.000 OA
ENDBRANCH  16  17
ENDBRANCH  15  16
ENDBRANCH   6  15
TORSDOF 4
ENDMDL
MODEL 2
REMARK VINA RESULT:      -8.3      4.807      6.488
REMARK  Name = 
REMARK  4 active torsions:
REMARK  status: ('A' for Active; 'I' for Inactive)
REMARK    1  A    between atoms: C_5  and  C_6
REMARK    2  A    between atoms: C_11  and  C_12
REMARK    3  A    between atoms: C_12  and  O_13
REMARK    4  A    between atoms: O_13  and  C_14
REMARK                            x       y       z     vdW  Elec       q    Type
REMARK                         _______ _______ _______ _____ _____    ______ ____
ROOT
ATOM      1  C   UNL     1       3.148   5.762  18.726  0.00  0.00    +0.000 C 
ATOM      2  C   UNL     1       2.498   4.907  17.610  0.00  0.00    +0.000 C 
ATOM      3  C   UNL     1       1.216   4.217  18.077  0.00  0.00    +0.000 C 
ATOM      4  N   UNL     1       1.377   3.441  19.305  0.00  0.00    +0.000 NA
ATOM      5  C   UNL     1       2.029   4.194  20.377  0.00  0.00    +0.000 C 
ATOM      6  C   UNL     1       3.368   4.832  19.958  0.00  0.00    +0.000 C 
ATOM      7  H   UNL     1       1.903   2.585  19.118  0.00  0.00    +0.000 HD
ENDROOT
BRANCH   1  12
ATOM      8 BR   UNL     1       0.086  11.080  19.992  0.00  0.00    +0.000 Br
ATOM      9  C   UNL     1       1.022   9.485  19.612  0.00  0.00    +0.000 A 
ATOM     10  C   UNL     1       1.238   8.552  20.614  0.00  0.00    +0.000 A 
ATOM     11  C   UNL     1       1.924   7.368  20.333  0.00  0.00    +0.000 A 
ATOM     12  C   UNL     1       2.392   7.073  19.037  0.00  0.00    +0.000 A 
ATOM     13  C   UNL     1       2.198   8.059  18.056  0.00  0.00    +0.000 A 
ATOM     14  C   UNL     1       1.508   9.247  18.332  0.00  0.00    +0.000 A 
ENDBRANCH   1  12
BRANCH   6  15
ATOM     15  C   UNL     1       4.454   3.762  19.708  0.00  0.00    +0.000 C 
BRANCH  15  16
ATOM     16  O   UNL     1       5.723   4.424  19.688  0.00  0.00    +0.000 OA
BRANCH  16  17
ATOM     17  C   UNL     1       6.209   4.834  18.479  0.00  0.00    +0.000 A 
ATOM     18  C   UNL     1       6.916   6.026  18.238  0.00  0.00    +0.000 A 
ATOM     19  C   UNL     1       7.359   6.346  16.948  0.00  0.00    +0.000 A 
ATOM     20  C   UNL     1       7.070   5.463  15.932  0.00  0.00    +0.000 A 
ATOM     21  C   UNL     1       6.384   4.296  16.163  0.00  0.00    +0.000 A 
ATOM     22  C   UNL     1       5.944   3.954  17.423  0.00  0.00    +0.000 A 
ATOM     23  O   UNL     1       6.204   3.566  15.030  0.00  0.00    +0.000 OA
ATOM     24  C   UNL     1       6.787   4.447  14.047  0.00  0.00    +0.000 C 
ATOM     25  O   UNL     1       7.405   5.618  14.623  0.00  0.00    +0.000 OA
ENDBRANCH  16  17
ENDBRANCH  15  16
ENDBRANCH   6  15
TORSDOF 4
ENDMDL
MODEL 3
REMARK VINA RESULT:      -8.1      4.869      6.499
REMARK  Name = 
REMARK  4 active torsions:
REMARK  status: ('A' for Active; 'I' for Inactive)
REMARK    1  A    between atoms: C_5  and  C_6
REMARK    2  A    between atoms: C_11  and  C_12
REMARK    3  A    between atoms: C_12  and  O_13
REMARK    4  A    between atoms: O_13  and  C_14
REMARK                            x       y       z     vdW  Elec       q    Type
REMARK                         _______ _______ _______ _____ _____    ______ ____
ROOT
ATOM      1  C   UNL     1       3.040   5.635  18.742  0.00  0.00    +0.000 C 
ATOM      2  C   UNL     1       2.196   4.711  17.828  0.00  0.00    +0.000 C 
ATOM      3  C   UNL     1       1.022   4.072  18.573  0.00  0.00    +0.000 C 
ATOM      4  N   UNL     1       1.408   3.384  19.802  0.00  0.00    +0.000 NA
ATOM      5  C   UNL     1       2.245   4.203  20.679  0.00  0.00    +0.000 C 
ATOM      6  C   UNL     1       3.484   4.792  19.976  0.00  0.00    +0.000 C 
ATOM      7  H   UNL     1       1.891   2.510  19.584  0.00  0.00    +0.000 HD
ENDROOT
BRANCH   1  12
ATOM      8 BR   UNL     1       0.251  11.066  20.149  0.00  0.00    +0.000 Br
ATOM      9  C   UNL     1       1.077   9.423  19.723  0.00  0.00    +0.000 A 
ATOM     10  C   UNL     1       1.507   9.177  18.428  0.00  0.00    +0.000 A 
ATOM     11  C   UNL     1       2.125   7.964  18.114  0.00  0.00    +0.000 A 
ATOM     12  C   UNL     1       2.353   6.974  19.090  0.00  0.00    +0.000 A 
ATOM     13  C   UNL     1       1.864   7.236  20.380  0.00  0.00    +0.000 A 
ATOM     14  C   UNL     1       1.246   8.452  20.702  0.00  0.00    +0.000 A 
ENDBRANCH   1  12
BRANCH   6  15
ATOM     15  C   UNL     1       4.505   3.694  19.608  0.00  0.00    +0.000 C 
BRANCH  15  16
ATOM     16  O   UNL     1       5.803   4.298  19.575  0.00  0.00    +0.000 OA
BRANCH  16  17
ATOM     17  C   UNL     1       6.273   4.731  18.367  0.00  0.00    +0.000 A 
ATOM     18  C   UNL     1       7.026   5.899  18.149  0.00  0.00    +0.000 A 
ATOM     19  C   UNL     1       7.446   6.247  16.859  0.00  0.00    +0.000 A 
ATOM     20  C   UNL     1       7.090   5.417  15.820  0.00  0.00    +0.000 A 
ATOM     21  C   UNL     1       6.358   4.274  16.029  0.00  0.00    +0.000 A 
ATOM     22  C   UNL     1       5.939   3.904  17.289  0.00  0.00    +0.000 A 
ATOM     23  O   UNL     1       6.114   3.595  14.876  0.00  0.00    +0.000 OA
ATOM     24  C   UNL     1       6.708   4.486  13.909  0.00  0.00    +0.000 C 
ATOM     25  O   UNL     1       7.394   5.606  14.509  0.00  0.00    +0.000 OA
ENDBRANCH  16  17
ENDBRANCH  15  16
ENDBRANCH   6  15
TORSDOF 4
ENDMDL
MODEL 4
REMARK VINA RESULT:      -8.1      0.799      1.736
REMARK  Name = 
REMARK  4 active torsions:
REMARK  status: ('A' for Active; 'I' for Inactive)
REMARK    1  A    between atoms: C_5  and  C_6
REMARK    2  A    between atoms: C_11  and  C_12
REMARK    3  A    between atoms: C_12  and  O_13
REMARK    4  A    between atoms: O_13  and  C_14
REMARK                            x       y       z     vdW  Elec       q    Type
REMARK                         _______ _______ _______ _____ _____    ______ ____
ROOT
ATOM      1  C   UNL     1       5.560   6.206  17.142  0.00  0.00    +0.000 C 
ATOM      2  C   UNL     1       5.953   5.510  15.815  0.00  0.00    +0.000 C 
ATOM      3  C   UNL     1       6.716   4.204  16.047  0.00  0.00    +0.000 C 
ATOM      4  N   UNL     1       7.872   4.346  16.928  0.00  0.00    +0.000 NA
ATOM      5  C   UNL     1       7.560   5.039  18.178  0.00  0.00    +0.000 C 
ATOM      6  C   UNL     1       6.865   6.399  17.972  0.00  0.00    +0.000 C 
ATOM      7  H   UNL     1       8.629   4.833  16.445  0.00  0.00    +0.000 HD
ENDROOT
BRANCH   1  12
ATOM      8 BR   UNL     1       0.896   3.386  20.232  0.00  0.00    +0.000 Br
ATOM      9  C   UNL     1       2.291   4.247  19.297  0.00  0.00    +0.000 A 
ATOM     10  C   UNL     1       3.186   5.058  19.978  0.00  0.00    +0.000 A 
ATOM     11  C   UNL     1       4.223   5.691  19.288  0.00  0.00    +0.000 A 
ATOM     12  C   UNL     1       4.410   5.509  17.903  0.00  0.00    +0.000 A 
ATOM     13  C   UNL     1       3.460   4.719  17.236  0.00  0.00    +0.000 A 
ATOM     14  C   UNL     1       2.419   4.080  17.923  0.00  0.00    +0.000 A 
ENDBRANCH   1  12
BRANCH   6  15
ATOM     15  C   UNL     1       7.821   7.436  17.343  0.00  0.00    +0.000 C 
BRANCH  15  16
ATOM     16  O   UNL     1       7.299   8.739  17.626  0.00  0.00    +0.000 OA
BRANCH  16  17
ATOM     17  C   UNL     1       8.161   9.676  18.123  0.00  0.00    +0.000 A 
ATOM     18  C   UNL     1       9.061   9.482  19.187  0.00  0.00    +0.000 A 
ATOM     19  C   UNL     1       9.892  10.524  19.618  0.00  0.00    +0.000 A 
ATOM     20  C   UNL     1       9.791  11.736  18.972  0.00  0.00    +0.000 A 
ATOM     21  C   UNL     1       8.918  11.928  17.931  0.00  0.00    +0.000 A 
ATOM     22  C   UNL     1       8.094  10.918  17.483  0.00  0.00    +0.000 A 
ATOM     23  O   UNL     1       8.974  13.192  17.432  0.00  0.00    +0.000 OA
ATOM     24  C   UNL     1       9.925  13.795  18.333  0.00  0.00    +0.000 C 
ATOM     25  O   UNL     1      10.504  12.857  19.266  0.00  0.00    +0.000 OA
ENDBRANCH  16  17
ENDBRANCH  15  16
ENDBRANCH   6  15
TORSDOF 4
ENDMDL
MODEL 5
REMARK VINA RESULT:      -8.0      5.246      6.751
REMARK  Name = 
REMARK  4 active torsions:
REMARK  status: ('A' for Active; 'I' for Inactive)
REMARK    1  A    between atoms: C_5  and  C_6
REMARK    2  A    between atoms: C_11  and  C_12
REMARK    3  A    between atoms: C_12  and  O_13
REMARK    4  A    between atoms: O_13  and  C_14
REMARK                            x       y       z     vdW  Elec       q    Type
REMARK                         _______ _______ _______ _____ _____    ______ ____
ROOT
ATOM      1  C   UNL     1       3.219   5.910  18.408  0.00  0.00    +0.000 C 
ATOM      2  C   UNL     1       2.340   4.839  17.716  0.00  0.00    +0.000 C 
ATOM      3  C   UNL     1       1.406   4.130  18.697  0.00  0.00    +0.000 C 
ATOM      4  N   UNL     1       2.087   3.575  19.864  0.00  0.00    +0.000 NA
ATOM      5  C   UNL     1       2.965   4.539  20.528  0.00  0.00    +0.000 C 
ATOM      6  C   UNL     1       3.976   5.209  19.577  0.00  0.00    +0.000 C 
ATOM      7  H   UNL     1       2.623   2.746  19.602  0.00  0.00    +0.000 HD
ENDROOT
BRANCH   1  12
ATOM      8 BR   UNL     1       0.104  11.093  20.048  0.00  0.00    +0.000 Br
ATOM      9  C   UNL     1       1.029   9.524  19.553  0.00  0.00    +0.000 A 
ATOM     10  C   UNL     1       1.410   9.329  18.235  0.00  0.00    +0.000 A 
ATOM     11  C   UNL     1       2.101   8.171  17.868  0.00  0.00    +0.000 A 
ATOM     12  C   UNL     1       2.452   7.188  18.814  0.00  0.00    +0.000 A 
ATOM     13  C   UNL     1       2.011   7.394  20.132  0.00  0.00    +0.000 A 
ATOM     14  C   UNL     1       1.320   8.554  20.505  0.00  0.00    +0.000 A 
ENDBRANCH   1  12
BRANCH   6  15
ATOM     15  C   UNL     1       5.038   4.205  19.078  0.00  0.00    +0.000 C 
BRANCH  15  16
ATOM     16  O   UNL     1       5.982   4.927  18.280  0.00  0.00    +0.000 OA
BRANCH  16  17
ATOM     17  C   UNL     1       6.043   4.636  16.946  0.00  0.00    +0.000 A 
ATOM     18  C   UNL     1       5.218   3.721  16.266  0.00  0.00    +0.000 A 
ATOM     19  C   UNL     1       5.380   3.497  14.893  0.00  0.00    +0.000 A 
ATOM     20  C   UNL     1       6.372   4.194  14.240  0.00  0.00    +0.000 A 
ATOM     21  C   UNL     1       7.176   5.092  14.899  0.00  0.00    +0.000 A 
ATOM     22  C   UNL     1       7.033   5.335  16.247  0.00  0.00    +0.000 A 
ATOM     23  O   UNL     1       8.089   5.673  14.075  0.00  0.00    +0.000 OA
ATOM     24  C   UNL     1       7.819   4.977  12.841  0.00  0.00    +0.000 C 
ATOM     25  O   UNL     1       6.681   4.092  12.920  0.00  0.00    +0.000 OA
ENDBRANCH  16  17
ENDBRANCH  15  16
ENDBRANCH   6  15
TORSDOF 4
ENDMDL
MODEL 6
REMARK VINA RESULT:      -7.9      0.791      1.433
REMARK  Name = 
REMARK  4 active torsions:
REMARK  status: ('A' for Active; 'I' for Inactive)
REMARK    1  A    between atoms: C_5  and  C_6
REMARK    2  A    between atoms: C_11  and  C_12
REMARK    3  A    between atoms: C_12  and  O_13
REMARK    4  A    between atoms: O_13  and  C_14
REMARK                            x       y       z     vdW  Elec       q    Type
REMARK                         _______ _______ _______ _____ _____    ______ ____
ROOT
ATOM      1  C   UNL     1       5.603   6.530  17.247  0.00  0.00    +0.000 C 
ATOM      2  C   UNL     1       5.827   6.034  15.797  0.00  0.00    +0.000 C 
ATOM      3  C   UNL     1       6.493   4.657  15.750  0.00  0.00    +0.000 C 
ATOM      4  N   UNL     1       7.724   4.570  16.531  0.00  0.00    +0.000 NA
ATOM      5  C   UNL     1       7.573   5.070  17.898  0.00  0.00    +0.000 C 
ATOM      6  C   UNL     1       6.982   6.492  17.973  0.00  0.00    +0.000 C 
ATOM      7  H   UNL     1       8.479   5.075  16.062  0.00  0.00    +0.000 HD
ENDROOT
BRANCH   1  12
ATOM      8 BR   UNL     1       0.979   3.570  20.267  0.00  0.00    +0.000 Br
ATOM      9  C   UNL     1       2.381   4.449  19.359  0.00  0.00    +0.000 A 
ATOM     10  C   UNL     1       2.420   4.447  17.973  0.00  0.00    +0.000 A 
ATOM     11  C   UNL     1       3.454   5.103  17.300  0.00  0.00    +0.000 A 
ATOM     12  C   UNL     1       4.463   5.802  17.993  0.00  0.00    +0.000 A 
ATOM     13  C   UNL     1       4.420   5.746  19.396  0.00  0.00    +0.000 A 
ATOM     14  C   UNL     1       3.384   5.091  20.076  0.00  0.00    +0.000 A 
ENDBRANCH   1  12
BRANCH   6  15
ATOM     15  C   UNL     1       7.969   7.547  17.429  0.00  0.00    +0.000 C 
BRANCH  15  16
ATOM     16  O   UNL     1       7.405   8.840  17.672  0.00  0.00    +0.000 OA
BRANCH  16  17
ATOM     17  C   UNL     1       8.219   9.800  18.203  0.00  0.00    +0.000 A 
ATOM     18  C   UNL     1       9.119   9.617  19.269  0.00  0.00    +0.000 A 
ATOM     19  C   UNL     1       9.899  10.683  19.736  0.00  0.00    +0.000 A 
ATOM     20  C   UNL     1       9.747  11.908  19.125  0.00  0.00    +0.000 A 
ATOM     21  C   UNL     1       8.873  12.089  18.081  0.00  0.00    +0.000 A 
ATOM     22  C   UNL     1       8.100  11.056  17.598  0.00  0.00    +0.000 A 
ATOM     23  O   UNL     1       8.875  13.369  17.619  0.00  0.00    +0.000 OA
ATOM     24  C   UNL     1       9.791  13.988  18.546  0.00  0.00    +0.000 C 
ATOM     25  O   UNL     1      10.406  13.050  19.456  0.00  0.00    +0.000 OA
ENDBRANCH  16  17
ENDBRANCH  15  16
ENDBRANCH   6  15
TORSDOF 4
ENDMDL
MODEL 7
REMARK VINA RESULT:      -7.9      5.155      8.033
REMARK  Name = 
REMARK  4 active torsions:
REMARK  status: ('A' for Active; 'I' for Inactive)
REMARK    1  A    between atoms: C_5  and  C_6
REMARK    2  A    between atoms: C_11  and  C_12
REMARK    3  A    between atoms: C_12  and  O_13
REMARK    4  A    between atoms: O_13  and  C_14
REMARK                            x       y       z     vdW  Elec       q    Type
REMARK                         _______ _______ _______ _____ _____    ______ ____
ROOT
ATOM      1  C   UNL     1       5.970   5.910  15.827  0.00  0.00    +0.000 C 
ATOM      2  C   UNL     1       7.217   6.094  16.727  0.00  0.00    +0.000 C 
ATOM      3  C   UNL     1       7.543   4.837  17.534  0.00  0.00    +0.000 C 
ATOM      4  N   UNL     1       6.414   4.318  18.302  0.00  0.00    +0.000 NA
ATOM      5  C   UNL     1       5.198   4.168  17.502  0.00  0.00    +0.000 C 
ATOM      6  C   UNL     1       4.796   5.448  16.743  0.00  0.00    +0.000 C 
ATOM      7  H   UNL     1       6.224   4.920  19.105  0.00  0.00    +0.000 HD
ENDROOT
BRANCH   1  12
ATOM      8 BR   UNL     1       6.947   2.280  10.814  0.00  0.00    +0.000 Br
ATOM      9  C   UNL     1       6.648   3.385  12.315  0.00  0.00    +0.000 A 
ATOM     10  C   UNL     1       5.454   3.298  13.014  0.00  0.00    +0.000 A 
ATOM     11  C   UNL     1       5.235   4.111  14.130  0.00  0.00    +0.000 A 
ATOM     12  C   UNL     1       6.212   5.014  14.591  0.00  0.00    +0.000 A 
ATOM     13  C   UNL     1       7.391   5.111  13.834  0.00  0.00    +0.000 A 
ATOM     14  C   UNL     1       7.617   4.296  12.716  0.00  0.00    +0.000 A 
ENDBRANCH   1  12
BRANCH   6  15
ATOM     15  C   UNL     1       4.325   6.558  17.709  0.00  0.00    +0.000 C 
BRANCH  15  16
ATOM     16  O   UNL     1       2.900   6.475  17.807  0.00  0.00    +0.000 OA
BRANCH  16  17
ATOM     17  C   UNL     1       2.365   5.365  18.399  0.00  0.00    +0.000 A 
ATOM     18  C   UNL     1       1.574   4.394  17.760  0.00  0.00    +0.000 A 
ATOM     19  C   UNL     1       1.072   3.299  18.475  0.00  0.00    +0.000 A 
ATOM     20  C   UNL     1       1.372   3.214  19.816  0.00  0.00    +0.000 A 
ATOM     21  C   UNL     1       2.148   4.158  20.443  0.00  0.00    +0.000 A 
ATOM     22  C   UNL     1       2.660   5.240  19.761  0.00  0.00    +0.000 A 
ATOM     23  O   UNL     1       2.326   3.890  21.764  0.00  0.00    +0.000 OA
ATOM     24  C   UNL     1       1.506   2.713  21.913  0.00  0.00    +0.000 C 
ATOM     25  O   UNL     1       0.959   2.235  20.665  0.00  0.00    +0.000 OA
ENDBRANCH  16  17
ENDBRANCH  15  16
ENDBRANCH   6  15
TORSDOF 4
ENDMDL
MODEL 8
REMARK VINA RESULT:      -7.7      3.092      5.142
REMARK  Name = 
REMARK  4 active torsions:
REMARK  status: ('A' for Active; 'I' for Inactive)
REMARK    1  A    between atoms: C_5  and  C_6
REMARK    2  A    between atoms: C_11  and  C_12
REMARK    3  A    between atoms: C_12  and  O_13
REMARK    4  A    between atoms: O_13  and  C_14
REMARK                            x       y       z     vdW  Elec       q    Type
REMARK                         _______ _______ _______ _____ _____    ______ ____
ROOT
ATOM      1  C   UNL     1       2.587   4.949  17.913  0.00  0.00    +0.000 C 
ATOM      2  C   UNL     1       1.528   3.818  17.891  0.00  0.00    +0.000 C 
ATOM      3  C   UNL     1       1.475   3.045  19.209  0.00  0.00    +0.000 C 
ATOM      4  N   UNL     1       2.773   2.539  19.649  0.00  0.00    +0.000 NA
ATOM      5  C   UNL     1       3.819   3.563  19.644  0.00  0.00    +0.000 C 
ATOM      6  C   UNL     1       3.952   4.303  18.298  0.00  0.00    +0.000 C 
ATOM      7  H   UNL     1       3.063   1.750  19.068  0.00  0.00    +0.000 HD
ENDROOT
BRANCH   1  12
ATOM      8 BR   UNL     1       0.970   9.896  21.401  0.00  0.00    +0.000 Br
ATOM      9  C   UNL     1       1.472   8.409  20.353  0.00  0.00    +0.000 A 
ATOM     10  C   UNL     1       1.448   7.135  20.900  0.00  0.00    +0.000 A 
ATOM     11  C   UNL     1       1.813   6.032  20.123  0.00  0.00    +0.000 A 
ATOM     12  C   UNL     1       2.187   6.169  18.772  0.00  0.00    +0.000 A 
ATOM     13  C   UNL     1       2.245   7.477  18.262  0.00  0.00    +0.000 A 
ATOM     14  C   UNL     1       1.878   8.586  19.036  0.00  0.00    +0.000 A 
ENDBRANCH   1  12
BRANCH   6  15
ATOM     15  C   UNL     1       4.504   3.377  17.193  0.00  0.00    +0.000 C 
BRANCH  15  16
ATOM     16  O   UNL     1       5.454   4.127  16.428  0.00  0.00    +0.000 OA
BRANCH  16  17
ATOM     17  C   UNL     1       6.304   4.955  17.105  0.00  0.00    +0.000 A 
ATOM     18  C   UNL     1       7.133   4.582  18.179  0.00  0.00    +0.000 A 
ATOM     19  C   UNL     1       7.960   5.525  18.804  0.00  0.00    +0.000 A 
ATOM     20  C   UNL     1       7.925   6.820  18.337  0.00  0.00    +0.000 A 
ATOM     21  C   UNL     1       7.122   7.187  17.286  0.00  0.00    +0.000 A 
ATOM     22  C   UNL     1       6.305   6.278  16.649  0.00  0.00    +0.000 A 
ATOM     23  O   UNL     1       7.236   8.507  16.981  0.00  0.00    +0.000 OA
ATOM     24  C   UNL     1       8.144   8.944  18.013  0.00  0.00    +0.000 C 
ATOM     25  O   UNL     1       8.644   7.864  18.830  0.00  0.00    +0.000 OA
ENDBRANCH  16  17
ENDBRANCH  15  16
ENDBRANCH   6  15
TORSDOF 4
ENDMDL
MODEL 9
REMARK VINA RESULT:      -7.6      5.695      6.758
REMARK  Name = 
REMARK  4 active torsions:
REMARK  status: ('A' for Active; 'I' for Inactive)
REMARK    1  A    between atoms: C_5  and  C_6
REMARK    2  A    between atoms: C_11  and  C_12
REMARK    3  A    between atoms: C_12  and  O_13
REMARK    4  A    between atoms: O_13  and  C_14
REMARK                            x       y       z     vdW  Elec       q    Type
REMARK                         _______ _______ _______ _____ _____    ______ ____
ROOT
ATOM      1  C   UNL     1       4.179   4.178  18.680  0.00  0.00    +0.000 C 
ATOM      2  C   UNL     1       4.312   2.796  19.368  0.00  0.00    +0.000 C 
ATOM      3  C   UNL     1       3.598   1.688  18.590  0.00  0.00    +0.000 C 
ATOM      4  N   UNL     1       2.202   1.989  18.283  0.00  0.00    +0.000 NA
ATOM      5  C   UNL     1       2.021   3.306  17.671  0.00  0.00    +0.000 C 
ATOM      6  C   UNL     1       2.658   4.454  18.478  0.00  0.00    +0.000 C 
ATOM      7  H   UNL     1       1.630   1.920  19.126  0.00  0.00    +0.000 HD
ENDROOT
BRANCH   1  12
ATOM      8 BR   UNL     1       7.652   4.808  13.504  0.00  0.00    +0.000 Br
ATOM      9  C   UNL     1       6.605   4.634  15.065  0.00  0.00    +0.000 A 
ATOM     10  C   UNL     1       5.232   4.478  14.966  0.00  0.00    +0.000 A 
ATOM     11  C   UNL     1       4.456   4.342  16.121  0.00  0.00    +0.000 A 
ATOM     12  C   UNL     1       5.036   4.332  17.405  0.00  0.00    +0.000 A 
ATOM     13  C   UNL     1       6.424   4.538  17.472  0.00  0.00    +0.000 A 
ATOM     14  C   UNL     1       7.206   4.673  16.318  0.00  0.00    +0.000 A 
ENDBRANCH   1  12
BRANCH   6  15
ATOM     15  C   UNL     1       1.915   4.693  19.811  0.00  0.00    +0.000 C 
BRANCH  15  16
ATOM     16  O   UNL     1       2.448   5.883  20.402  0.00  0.00    +0.000 OA
BRANCH  16  17
ATOM     17  C   UNL     1       2.113   7.080  19.835  0.00  0.00    +0.000 A 
ATOM     18  C   UNL     1       2.435   7.490  18.528  0.00  0.00    +0.000 A 
ATOM     19  C   UNL     1       2.043   8.750  18.059  0.00  0.00    +0.000 A 
ATOM     20  C   UNL     1       1.346   9.569  18.918  0.00  0.00    +0.000 A 
ATOM     21  C   UNL     1       1.026   9.171  20.193  0.00  0.00    +0.000 A 
ATOM     22  C   UNL     1       1.393   7.934  20.677  0.00  0.00    +0.000 A 
ATOM     23  O   UNL     1       0.337  10.124  20.877  0.00  0.00    +0.000 OA
ATOM     24  C   UNL     1       0.331  11.196  19.912  0.00  0.00    +0.000 C 
ATOM     25  O   UNL     1       0.903  10.824  18.640  0.00  0.00    +0.000 OA
ENDBRANCH  16  17
ENDBRANCH  15  16
ENDBRANCH   6  15
TORSDOF 4
ENDMDL
