MODEL 1
REMARK VINA RESULT:      -7.2      0.000      0.000
REMARK  Name = 
REMARK  12 active torsions:
REMARK  status: ('A' for Active; 'I' for Inactive)
REMARK    1  A    between atoms: C_1  and  O_2
REMARK    2  A    between atoms: O_2  and  C_3
REMARK    3  A    between atoms: C_4  and  C_5
REMARK    4  A    between atoms: C_5  and  N_6
REMARK    5  A    between atoms: N_6  and  C_7
REMARK    6  A    between atoms: C_7  and  C_8
REMARK    7  A    between atoms: C_8  and  O_9
REMARK    8  A    between atoms: C_8  and  C_10
REMARK    9  A    between atoms: C_17  and  C_18
REMARK   10  A    between atoms: C_18  and  C_19
REMARK   11  A    between atoms: C_18  and  C_20
REMARK   12  A    between atoms: N_22  and  C_23
REMARK                            x       y       z     vdW  Elec       q    Type
REMARK                         _______ _______ _______ _____ _____    ______ ____
ROOT
ATOM      1  N   UNL     1       6.283   4.158  18.247  0.00  0.00    +0.000 NA
ATOM      2  H   UNL     1       5.702   3.395  17.910  0.00  0.00    +0.000 HD
ENDROOT
BRANCH   1   3
ATOM      3  C   UNL     1       5.477   5.022  19.109  0.00  0.00    +0.000 C 
BRANCH   3   5
ATOM      4  C   UNL     1       3.508   3.319  19.096  0.00  0.00    +0.000 A 
ATOM      5  C   UNL     1       4.053   4.597  19.072  0.00  0.00    +0.000 A 
ATOM      6  C   UNL     1       2.919   5.468  19.116  0.00  0.00    +0.000 A 
ATOM      7  N   UNL     1       1.770   4.791  19.032  0.00  0.00    +0.000 NA
ATOM      8  N   UNL     1       2.152   3.503  19.007  0.00  0.00    +0.000 N 
ATOM      9  C   UNL     1       1.157   2.458  18.972  0.00  0.00    +0.000 C 
BRANCH   6  10
ATOM     10  C   UNL     1       2.917   6.972  19.254  0.00  0.00    +0.000 C 
ATOM     11  C   UNL     1       2.758   7.655  17.897  0.00  0.00    +0.000 C 
ATOM     12  C   UNL     1       1.866   7.483  20.242  0.00  0.00    +0.000 C 
ENDBRANCH   6  10
BRANCH   4  14
ATOM     13  C   UNL     1       4.663   1.735  20.383  0.00  0.00    +0.000 C 
ATOM     14  O   UNL     1       3.986   2.072  19.180  0.00  0.00    +0.000 OA
ENDBRANCH   4  14
ENDBRANCH   3   5
ENDBRANCH   1   3
BRANCH   1  15
ATOM     15  C   UNL     1       6.863   4.901  17.113  0.00  0.00    +0.000 C 
BRANCH  15  16
ATOM     16  C   UNL     1       5.877   5.163  15.936  0.00  0.00    +0.000 C 
BRANCH  16  17
ATOM     17  C   UNL     1       6.357   4.779  14.558  0.00  0.00    +0.000 A 
ATOM     18  C   UNL     1       7.459   5.373  13.932  0.00  0.00    +0.000 A 
ATOM     19  C   UNL     1       7.823   5.001  12.634  0.00  0.00    +0.000 A 
ATOM     20  C   UNL     1       7.082   4.038  11.949  0.00  0.00    +0.000 A 
ATOM     21  C   UNL     1       5.982   3.457  12.562  0.00  0.00    +0.000 A 
ATOM     22  F   UNL     1       5.262   2.540  11.903  0.00  0.00    +0.000 F 
ATOM     23  C   UNL     1       5.613   3.819  13.849  0.00  0.00    +0.000 A 
ENDBRANCH  16  17
BRANCH  16  24
ATOM     24  O   UNL     1       5.492   6.535  15.874  0.00  0.00    +0.000 OA
ATOM     25  H   UNL     1       6.108   7.033  16.437  0.00  0.00    +0.000 HD
ENDBRANCH  16  24
ENDBRANCH  15  16
ENDBRANCH   1  15
TORSDOF 8
ENDMDL
MODEL 2
REMARK VINA RESULT:      -7.1      1.093      1.115
REMARK  Name = 
REMARK  12 active torsions:
REMARK  status: ('A' for Active; 'I' for Inactive)
REMARK    1  A    between atoms: C_1  and  O_2
REMARK    2  A    between atoms: O_2  and  C_3
REMARK    3  A    between atoms: C_4  and  C_5
REMARK    4  A    between atoms: C_5  and  N_6
REMARK    5  A    between atoms: N_6  and  C_7
REMARK    6  A    between atoms: C_7  and  C_8
REMARK    7  A    between atoms: C_8  and  O_9
REMARK    8  A    between atoms: C_8  and  C_10
REMARK    9  A    between atoms: C_17  and  C_18
REMARK   10  A    between atoms: C_18  and  C_19
REMARK   11  A    between atoms: C_18  and  C_20
REMARK   12  A    between atoms: N_22  and  C_23
REMARK                            x       y       z     vdW  Elec       q    Type
REMARK                         _______ _______ _______ _____ _____    ______ ____
ROOT
ATOM      1  N   UNL     1       5.535   4.085  18.120  0.00  0.00    +0.000 NA
ATOM      2  H   UNL     1       5.141   3.274  18.589  0.00  0.00    +0.000 HD
ENDROOT
BRANCH   1   3
ATOM      3  C   UNL     1       4.744   5.264  18.468  0.00  0.00    +0.000 C 
BRANCH   3   5
ATOM      4  C   UNL     1       3.236   3.628  19.821  0.00  0.00    +0.000 A 
ATOM      5  C   UNL     1       3.567   4.867  19.285  0.00  0.00    +0.000 A 
ATOM      6  C   UNL     1       2.562   5.752  19.790  0.00  0.00    +0.000 A 
ATOM      7  N   UNL     1       1.614   5.094  20.463  0.00  0.00    +0.000 NA
ATOM      8  N   UNL     1       2.035   3.817  20.454  0.00  0.00    +0.000 N 
ATOM      9  C   UNL     1       1.275   2.805  21.147  0.00  0.00    +0.000 C 
BRANCH   6  10
ATOM     10  C   UNL     1       2.501   7.254  19.647  0.00  0.00    +0.000 C 
ATOM     11  C   UNL     1       2.172   7.665  18.213  0.00  0.00    +0.000 C 
ATOM     12  C   UNL     1       1.533   7.913  20.633  0.00  0.00    +0.000 C 
ENDBRANCH   6  10
BRANCH   4  14
ATOM     13  C   UNL     1       3.517   1.571  18.730  0.00  0.00    +0.000 C 
ATOM     14  O   UNL     1       3.792   2.412  19.843  0.00  0.00    +0.000 OA
ENDBRANCH   4  14
ENDBRANCH   3   5
ENDBRANCH   1   3
BRANCH   1  15
ATOM     15  C   UNL     1       5.580   3.863  16.663  0.00  0.00    +0.000 C 
BRANCH  15  16
ATOM     16  C   UNL     1       6.348   4.955  15.863  0.00  0.00    +0.000 C 
BRANCH  16  17
ATOM     17  C   UNL     1       6.633   4.653  14.413  0.00  0.00    +0.000 A 
ATOM     18  C   UNL     1       7.610   5.319  13.664  0.00  0.00    +0.000 A 
ATOM     19  C   UNL     1       7.791   5.019  12.310  0.00  0.00    +0.000 A 
ATOM     20  C   UNL     1       6.991   4.059  11.692  0.00  0.00    +0.000 A 
ATOM     21  C   UNL     1       6.014   3.406  12.429  0.00  0.00    +0.000 A 
ATOM     22  F   UNL     1       5.236   2.491  11.837  0.00  0.00    +0.000 F 
ATOM     23  C   UNL     1       5.826   3.695  13.772  0.00  0.00    +0.000 A 
ENDBRANCH  16  17
BRANCH  16  24
ATOM     24  O   UNL     1       7.599   5.268  16.475  0.00  0.00    +0.000 OA
ATOM     25  H   UNL     1       7.828   4.524  17.056  0.00  0.00    +0.000 HD
ENDBRANCH  16  24
ENDBRANCH  15  16
ENDBRANCH   1  15
TORSDOF 8
ENDMDL
MODEL 3
REMARK VINA RESULT:      -7.0      2.942      4.750
REMARK  Name = 
REMARK  12 active torsions:
REMARK  status: ('A' for Active; 'I' for Inactive)
REMARK    1  A    between atoms: C_1  and  O_2
REMARK    2  A    between atoms: O_2  and  C_3
REMARK    3  A    between atoms: C_4  and  C_5
REMARK    4  A    between atoms: C_5  and  N_6
REMARK    5  A    between atoms: N_6  and  C_7
REMARK    6  A    between atoms: C_7  and  C_8
REMARK    7  A    between atoms: C_8  and  O_9
REMARK    8  A    between atoms: C_8  and  C_10
REMARK    9  A    between atoms: C_17  and  C_18
REMARK   10  A    between atoms: C_18  and  C_19
REMARK   11  A    between atoms: C_18  and  C_20
REMARK   12  A    between atoms: N_22  and  C_23
REMARK                            x       y       z     vdW  Elec       q    Type
REMARK                         _______ _______ _______ _____ _____    ______ ____
ROOT
ATOM      1  N   UNL     1       4.258   5.037  16.935  0.00  0.00    +0.000 NA
ATOM      2  H   UNL     1       4.784   5.869  17.189  0.00  0.00    +0.000 HD
ENDROOT
BRANCH   1   3
ATOM      3  C   UNL     1       4.003   4.251  18.140  0.00  0.00    +0.000 C 
BRANCH   3   5
ATOM      4  C   UNL     1       2.930   6.378  19.190  0.00  0.00    +0.000 A 
ATOM      5  C   UNL     1       3.120   5.006  19.067  0.00  0.00    +0.000 A 
ATOM      6  C   UNL     1       2.175   4.434  19.976  0.00  0.00    +0.000 A 
ATOM      7  N   UNL     1       1.553   5.369  20.700  0.00  0.00    +0.000 NA
ATOM      8  N   UNL     1       2.035   6.527  20.218  0.00  0.00    +0.000 N 
ATOM      9  C   UNL     1       1.541   7.782  20.733  0.00  0.00    +0.000 C 
BRANCH   6  10
ATOM     10  C   UNL     1       1.840   2.973  20.157  0.00  0.00    +0.000 C 
ATOM     11  C   UNL     1       1.465   2.663  21.606  0.00  0.00    +0.000 C 
ATOM     12  C   UNL     1       0.749   2.483  19.201  0.00  0.00    +0.000 C 
ENDBRANCH   6  10
BRANCH   4  14
ATOM     13  C   UNL     1       2.536   8.059  17.603  0.00  0.00    +0.000 C 
ATOM     14  O   UNL     1       3.393   7.471  18.573  0.00  0.00    +0.000 OA
ENDBRANCH   4  14
ENDBRANCH   3   5
ENDBRANCH   1   3
BRANCH   1  15
ATOM     15  C   UNL     1       4.989   4.260  15.916  0.00  0.00    +0.000 C 
BRANCH  15  16
ATOM     16  C   UNL     1       6.483   4.660  15.743  0.00  0.00    +0.000 C 
BRANCH  16  17
ATOM     17  C   UNL     1       7.106   5.441  16.873  0.00  0.00    +0.000 A 
ATOM     18  C   UNL     1       7.535   4.857  18.071  0.00  0.00    +0.000 A 
ATOM     19  C   UNL     1       8.064   5.648  19.095  0.00  0.00    +0.000 A 
ATOM     20  C   UNL     1       8.161   7.029  18.935  0.00  0.00    +0.000 A 
ATOM     21  C   UNL     1       7.726   7.613  17.754  0.00  0.00    +0.000 A 
ATOM     22  F   UNL     1       7.808   8.941  17.599  0.00  0.00    +0.000 F 
ATOM     23  C   UNL     1       7.200   6.838  16.731  0.00  0.00    +0.000 A 
ENDBRANCH  16  17
BRANCH  16  24
ATOM     24  O   UNL     1       6.686   5.418  14.552  0.00  0.00    +0.000 OA
ATOM     25  H   UNL     1       5.979   5.176  13.932  0.00  0.00    +0.000 HD
ENDBRANCH  16  24
ENDBRANCH  15  16
ENDBRANCH   1  15
TORSDOF 8
ENDMDL
MODEL 4
REMARK VINA RESULT:      -6.9      1.320      1.686
REMARK  Name = 
REMARK  12 active torsions:
REMARK  status: ('A' for Active; 'I' for Inactive)
REMARK    1  A    between atoms: C_1  and  O_2
REMARK    2  A    between atoms: O_2  and  C_3
REMARK    3  A    between atoms: C_4  and  C_5
REMARK    4  A    between atoms: C_5  and  N_6
REMARK    5  A    between atoms: N_6  and  C_7
REMARK    6  A    between atoms: C_7  and  C_8
REMARK    7  A    between atoms: C_8  and  O_9
REMARK    8  A    between atoms: C_8  and  C_10
REMARK    9  A    between atoms: C_17  and  C_18
REMARK   10  A    between atoms: C_18  and  C_19
REMARK   11  A    between atoms: C_18  and  C_20
REMARK   12  A    between atoms: N_22  and  C_23
REMARK                            x       y       z     vdW  Elec       q    Type
REMARK                         _______ _______ _______ _____ _____    ______ ____
ROOT
ATOM      1  N   UNL     1       6.113   4.592  18.979  0.00  0.00    +0.000 NA
ATOM      2  H   UNL     1       5.696   3.669  19.053  0.00  0.00    +0.000 HD
ENDROOT
BRANCH   1   3
ATOM      3  C   UNL     1       5.049   5.581  18.815  0.00  0.00    +0.000 C 
BRANCH   3   5
ATOM      4  C   UNL     1       3.456   3.785  19.822  0.00  0.00    +0.000 A 
ATOM      5  C   UNL     1       3.779   5.067  19.392  0.00  0.00    +0.000 A 
ATOM      6  C   UNL     1       2.634   5.855  19.729  0.00  0.00    +0.000 A 
ATOM      7  N   UNL     1       1.634   5.102  20.199  0.00  0.00    +0.000 NA
ATOM      8  N   UNL     1       2.149   3.861  20.231  0.00  0.00    +0.000 N 
ATOM      9  C   UNL     1       1.359   2.768  20.744  0.00  0.00    +0.000 C 
BRANCH   6  10
ATOM     10  C   UNL     1       2.481   7.353  19.621  0.00  0.00    +0.000 C 
ATOM     11  C   UNL     1       2.118   7.774  18.198  0.00  0.00    +0.000 C 
ATOM     12  C   UNL     1       1.482   7.930  20.626  0.00  0.00    +0.000 C 
ENDBRANCH   6  10
BRANCH   4  14
ATOM     13  C   UNL     1       3.987   1.750  18.787  0.00  0.00    +0.000 C 
ATOM     14  O   UNL     1       4.093   2.613  19.912  0.00  0.00    +0.000 OA
ENDBRANCH   4  14
ENDBRANCH   3   5
ENDBRANCH   1   3
BRANCH   1  15
ATOM     15  C   UNL     1       7.077   4.632  17.863  0.00  0.00    +0.000 C 
BRANCH  15  16
ATOM     16  C   UNL     1       6.697   5.608  16.711  0.00  0.00    +0.000 C 
BRANCH  16  17
ATOM     17  C   UNL     1       6.505   4.995  15.346  0.00  0.00    +0.000 A 
ATOM     18  C   UNL     1       5.584   3.974  15.081  0.00  0.00    +0.000 A 
ATOM     19  C   UNL     1       5.488   3.421  13.801  0.00  0.00    +0.000 A 
ATOM     20  C   UNL     1       6.318   3.876  12.777  0.00  0.00    +0.000 A 
ATOM     21  C   UNL     1       7.240   4.879  13.039  0.00  0.00    +0.000 A 
ATOM     22  F   UNL     1       8.046   5.312  12.062  0.00  0.00    +0.000 F 
ATOM     23  C   UNL     1       7.343   5.435  14.305  0.00  0.00    +0.000 A 
ENDBRANCH  16  17
BRANCH  16  24
ATOM     24  O   UNL     1       7.663   6.647  16.567  0.00  0.00    +0.000 OA
ATOM     25  H   UNL     1       7.595   7.214  17.353  0.00  0.00    +0.000 HD
ENDBRANCH  16  24
ENDBRANCH  15  16
ENDBRANCH   1  15
TORSDOF 8
ENDMDL
MODEL 5
REMARK VINA RESULT:      -6.7      2.787      3.677
REMARK  Name = 
REMARK  12 active torsions:
REMARK  status: ('A' for Active; 'I' for Inactive)
REMARK    1  A    between atoms: C_1  and  O_2
REMARK    2  A    between atoms: O_2  and  C_3
REMARK    3  A    between atoms: C_4  and  C_5
REMARK    4  A    between atoms: C_5  and  N_6
REMARK    5  A    between atoms: N_6  and  C_7
REMARK    6  A    between atoms: C_7  and  C_8
REMARK    7  A    between atoms: C_8  and  O_9
REMARK    8  A    between atoms: C_8  and  C_10
REMARK    9  A    between atoms: C_17  and  C_18
REMARK   10  A    between atoms: C_18  and  C_19
REMARK   11  A    between atoms: C_18  and  C_20
REMARK   12  A    between atoms: N_22  and  C_23
REMARK                            x       y       z     vdW  Elec       q    Type
REMARK                         _______ _______ _______ _____ _____    ______ ____
ROOT
ATOM      1  N   UNL     1       4.159   4.012  16.940  0.00  0.00    +0.000 NA
ATOM      2  H   UNL     1       3.230   3.710  16.660  0.00  0.00    +0.000 HD
ENDROOT
BRANCH   1   3
ATOM      3  C   UNL     1       4.033   5.158  17.839  0.00  0.00    +0.000 C 
BRANCH   3   5
ATOM      4  C   UNL     1       2.831   3.619  19.560  0.00  0.00    +0.000 A 
ATOM      5  C   UNL     1       3.097   4.838  18.949  0.00  0.00    +0.000 A 
ATOM      6  C   UNL     1       2.340   5.788  19.705  0.00  0.00    +0.000 A 
ATOM      7  N   UNL     1       1.564   5.192  20.615  0.00  0.00    +0.000 NA
ATOM      8  N   UNL     1       1.866   3.887  20.497  0.00  0.00    +0.000 N 
ATOM      9  C   UNL     1       1.248   2.923  21.375  0.00  0.00    +0.000 C 
BRANCH   6  10
ATOM     10  C   UNL     1       2.359   7.292  19.579  0.00  0.00    +0.000 C 
ATOM     11  C   UNL     1       1.924   7.739  18.184  0.00  0.00    +0.000 C 
ATOM     12  C   UNL     1       1.529   7.997  20.654  0.00  0.00    +0.000 C 
ENDBRANCH   6  10
BRANCH   4  14
ATOM     13  C   UNL     1       4.547   2.085  20.007  0.00  0.00    +0.000 C 
ATOM     14  O   UNL     1       3.276   2.363  19.434  0.00  0.00    +0.000 OA
ENDBRANCH   4  14
ENDBRANCH   3   5
ENDBRANCH   1   3
BRANCH   1  15
ATOM     15  C   UNL     1       4.973   4.331  15.753  0.00  0.00    +0.000 C 
BRANCH  15  16
ATOM     16  C   UNL     1       6.510   4.325  15.999  0.00  0.00    +0.000 C 
BRANCH  16  17
ATOM     17  C   UNL     1       7.047   5.382  16.932  0.00  0.00    +0.000 A 
ATOM     18  C   UNL     1       7.084   6.744  16.614  0.00  0.00    +0.000 A 
ATOM     19  C   UNL     1       7.637   7.666  17.508  0.00  0.00    +0.000 A 
ATOM     20  C   UNL     1       8.165   7.233  18.724  0.00  0.00    +0.000 A 
ATOM     21  C   UNL     1       8.141   5.881  19.037  0.00  0.00    +0.000 A 
ATOM     22  F   UNL     1       8.656   5.459  20.199  0.00  0.00    +0.000 F 
ATOM     23  C   UNL     1       7.595   4.959  18.157  0.00  0.00    +0.000 A 
ENDBRANCH  16  17
BRANCH  16  24
ATOM     24  O   UNL     1       7.235   4.444  14.777  0.00  0.00    +0.000 OA
ATOM     25  H   UNL     1       8.174   4.545  15.007  0.00  0.00    +0.000 HD
ENDBRANCH  16  24
ENDBRANCH  15  16
ENDBRANCH   1  15
TORSDOF 8
ENDMDL
MODEL 6
REMARK VINA RESULT:      -6.7      2.669      3.778
REMARK  Name = 
REMARK  12 active torsions:
REMARK  status: ('A' for Active; 'I' for Inactive)
REMARK    1  A    between atoms: C_1  and  O_2
REMARK    2  A    between atoms: O_2  and  C_3
REMARK    3  A    between atoms: C_4  and  C_5
REMARK    4  A    between atoms: C_5  and  N_6
REMARK    5  A    between atoms: N_6  and  C_7
REMARK    6  A    between atoms: C_7  and  C_8
REMARK    7  A    between atoms: C_8  and  O_9
REMARK    8  A    between atoms: C_8  and  C_10
REMARK    9  A    between atoms: C_17  and  C_18
REMARK   10  A    between atoms: C_18  and  C_19
REMARK   11  A    between atoms: C_18  and  C_20
REMARK   12  A    between atoms: N_22  and  C_23
REMARK                            x       y       z     vdW  Elec       q    Type
REMARK                         _______ _______ _______ _____ _____    ______ ____
ROOT
ATOM      1  N   UNL     1       4.942   3.724  16.930  0.00  0.00    +0.000 NA
ATOM      2  H   UNL     1       5.131   2.774  17.235  0.00  0.00    +0.000 HD
ENDROOT
BRANCH   1   3
ATOM      3  C   UNL     1       3.495   3.937  16.915  0.00  0.00    +0.000 C 
BRANCH   3   5
ATOM      4  C   UNL     1       2.930   3.340  19.385  0.00  0.00    +0.000 A 
ATOM      5  C   UNL     1       3.002   4.196  18.293  0.00  0.00    +0.000 A 
ATOM      6  C   UNL     1       2.590   5.465  18.809  0.00  0.00    +0.000 A 
ATOM      7  N   UNL     1       2.166   5.374  20.073  0.00  0.00    +0.000 NA
ATOM      8  N   UNL     1       2.367   4.083  20.390  0.00  0.00    +0.000 N 
ATOM      9  C   UNL     1       2.069   3.615  21.723  0.00  0.00    +0.000 C 
BRANCH   6  10
ATOM     10  C   UNL     1       2.609   6.799  18.100  0.00  0.00    +0.000 C 
ATOM     11  C   UNL     1       2.072   7.913  18.996  0.00  0.00    +0.000 C 
ATOM     12  C   UNL     1       3.989   7.167  17.549  0.00  0.00    +0.000 C 
ENDBRANCH   6  10
BRANCH   4  14
ATOM     13  C   UNL     1       4.631   1.821  19.930  0.00  0.00    +0.000 C 
ATOM     14  O   UNL     1       3.263   2.068  19.632  0.00  0.00    +0.000 OA
ENDBRANCH   4  14
ENDBRANCH   3   5
ENDBRANCH   1   3
BRANCH   1  15
ATOM     15  C   UNL     1       5.547   3.968  15.607  0.00  0.00    +0.000 C 
BRANCH  15  16
ATOM     16  C   UNL     1       7.004   4.512  15.651  0.00  0.00    +0.000 C 
BRANCH  16  17
ATOM     17  C   UNL     1       7.330   5.477  16.764  0.00  0.00    +0.000 A 
ATOM     18  C   UNL     1       7.374   6.866  16.593  0.00  0.00    +0.000 A 
ATOM     19  C   UNL     1       7.726   7.700  17.659  0.00  0.00    +0.000 A 
ATOM     20  C   UNL     1       8.047   7.152  18.900  0.00  0.00    +0.000 A 
ATOM     21  C   UNL     1       8.018   5.776  19.069  0.00  0.00    +0.000 A 
ATOM     22  F   UNL     1       8.336   5.245  20.257  0.00  0.00    +0.000 F 
ATOM     23  C   UNL     1       7.669   4.940  18.019  0.00  0.00    +0.000 A 
ENDBRANCH  16  17
BRANCH  16  24
ATOM     24  O   UNL     1       7.358   5.156  14.428  0.00  0.00    +0.000 OA
ATOM     25  H   UNL     1       6.534   5.313  13.937  0.00  0.00    +0.000 HD
ENDBRANCH  16  24
ENDBRANCH  15  16
ENDBRANCH   1  15
TORSDOF 8
ENDMDL
MODEL 7
REMARK VINA RESULT:      -6.6      3.168      4.847
REMARK  Name = 
REMARK  12 active torsions:
REMARK  status: ('A' for Active; 'I' for Inactive)
REMARK    1  A    between atoms: C_1  and  O_2
REMARK    2  A    between atoms: O_2  and  C_3
REMARK    3  A    between atoms: C_4  and  C_5
REMARK    4  A    between atoms: C_5  and  N_6
REMARK    5  A    between atoms: N_6  and  C_7
REMARK    6  A    between atoms: C_7  and  C_8
REMARK    7  A    between atoms: C_8  and  O_9
REMARK    8  A    between atoms: C_8  and  C_10
REMARK    9  A    between atoms: C_17  and  C_18
REMARK   10  A    between atoms: C_18  and  C_19
REMARK   11  A    between atoms: C_18  and  C_20
REMARK   12  A    between atoms: N_22  and  C_23
REMARK                            x       y       z     vdW  Elec       q    Type
REMARK                         _______ _______ _______ _____ _____    ______ ____
ROOT
ATOM      1  N   UNL     1       4.214   4.262  17.907  0.00  0.00    +0.000 NA
ATOM      2  H   UNL     1       3.875   3.580  18.580  0.00  0.00    +0.000 HD
ENDROOT
BRANCH   1   3
ATOM      3  C   UNL     1       3.128   5.186  17.582  0.00  0.00    +0.000 C 
BRANCH   3   5
ATOM      4  C   UNL     1       2.336   7.068  19.196  0.00  0.00    +0.000 A 
ATOM      5  C   UNL     1       2.541   5.744  18.828  0.00  0.00    +0.000 A 
ATOM      6  C   UNL     1       1.949   4.985  19.887  0.00  0.00    +0.000 A 
ATOM      7  N   UNL     1       1.538   5.768  20.890  0.00  0.00    +0.000 NA
ATOM      8  N   UNL     1       1.796   7.014  20.456  0.00  0.00    +0.000 N 
ATOM      9  C   UNL     1       1.428   8.148  21.269  0.00  0.00    +0.000 C 
BRANCH   6  10
ATOM     10  C   UNL     1       1.752   3.489  19.950  0.00  0.00    +0.000 C 
ATOM     11  C   UNL     1       1.566   3.013  21.390  0.00  0.00    +0.000 C 
ATOM     12  C   UNL     1       0.604   2.995  19.066  0.00  0.00    +0.000 C 
ENDBRANCH   6  10
BRANCH   4  14
ATOM     13  C   UNL     1       1.547   8.699  17.708  0.00  0.00    +0.000 C 
ATOM     14  O   UNL     1       2.536   8.264  18.632  0.00  0.00    +0.000 OA
ENDBRANCH   4  14
ENDBRANCH   3   5
ENDBRANCH   1   3
BRANCH   1  15
ATOM     15  C   UNL     1       4.735   3.583  16.706  0.00  0.00    +0.000 C 
BRANCH  15  16
ATOM     16  C   UNL     1       6.080   4.153  16.170  0.00  0.00    +0.000 C 
BRANCH  16  17
ATOM     17  C   UNL     1       6.746   5.213  17.012  0.00  0.00    +0.000 A 
ATOM     18  C   UNL     1       6.766   6.570  16.670  0.00  0.00    +0.000 A 
ATOM     19  C   UNL     1       7.440   7.494  17.474  0.00  0.00    +0.000 A 
ATOM     20  C   UNL     1       8.106   7.068  18.623  0.00  0.00    +0.000 A 
ATOM     21  C   UNL     1       8.099   5.722  18.958  0.00  0.00    +0.000 A 
ATOM     22  F   UNL     1       8.747   5.307  20.054  0.00  0.00    +0.000 F 
ATOM     23  C   UNL     1       7.433   4.797  18.167  0.00  0.00    +0.000 A 
ENDBRANCH  16  17
BRANCH  16  24
ATOM     24  O   UNL     1       5.931   4.698  14.860  0.00  0.00    +0.000 OA
ATOM     25  H   UNL     1       5.008   4.987  14.772  0.00  0.00    +0.000 HD
ENDBRANCH  16  24
ENDBRANCH  15  16
ENDBRANCH   1  15
TORSDOF 8
ENDMDL
MODEL 8
REMARK VINA RESULT:      -6.6      4.936      8.742
REMARK  Name = 
REMARK  12 active torsions:
REMARK  status: ('A' for Active; 'I' for Inactive)
REMARK    1  A    between atoms: C_1  and  O_2
REMARK    2  A    between atoms: O_2  and  C_3
REMARK    3  A    between atoms: C_4  and  C_5
REMARK    4  A    between atoms: C_5  and  N_6
REMARK    5  A    between atoms: N_6  and  C_7
REMARK    6  A    between atoms: C_7  and  C_8
REMARK    7  A    between atoms: C_8  and  O_9
REMARK    8  A    between atoms: C_8  and  C_10
REMARK    9  A    between atoms: C_17  and  C_18
REMARK   10  A    between atoms: C_18  and  C_19
REMARK   11  A    between atoms: C_18  and  C_20
REMARK   12  A    between atoms: N_22  and  C_23
REMARK                            x       y       z     vdW  Elec       q    Type
REMARK                         _______ _______ _______ _____ _____    ______ ____
ROOT
ATOM      1  N   UNL     1       2.086   7.135  20.677  0.00  0.00    +0.000 NA
ATOM      2  H   UNL     1       2.786   7.256  21.403  0.00  0.00    +0.000 HD
ENDROOT
BRANCH   1   3
ATOM      3  C   UNL     1       2.761   6.980  19.389  0.00  0.00    +0.000 C 
BRANCH   3   5
ATOM      4  C   UNL     1       3.193   4.470  19.929  0.00  0.00    +0.000 A 
ATOM      5  C   UNL     1       3.509   5.696  19.354  0.00  0.00    +0.000 A 
ATOM      6  C   UNL     1       4.695   5.438  18.597  0.00  0.00    +0.000 A 
ATOM      7  N   UNL     1       5.152   4.198  18.797  0.00  0.00    +0.000 NA
ATOM      8  N   UNL     1       4.240   3.643  19.613  0.00  0.00    +0.000 N 
ATOM      9  C   UNL     1       4.376   2.262  20.010  0.00  0.00    +0.000 C 
BRANCH   6  10
ATOM     10  C   UNL     1       5.407   6.376  17.652  0.00  0.00    +0.000 C 
ATOM     11  C   UNL     1       6.923   6.274  17.804  0.00  0.00    +0.000 C 
ATOM     12  C   UNL     1       4.997   6.182  16.190  0.00  0.00    +0.000 C 
ENDBRANCH   6  10
BRANCH   4  14
ATOM     13  C   UNL     1       0.976   3.705  19.949  0.00  0.00    +0.000 C 
ATOM     14  O   UNL     1       2.180   3.981  20.653  0.00  0.00    +0.000 OA
ENDBRANCH   4  14
ENDBRANCH   3   5
ENDBRANCH   1   3
BRANCH   1  15
ATOM     15  C   UNL     1       1.149   8.274  20.672  0.00  0.00    +0.000 C 
BRANCH  15  16
ATOM     16  C   UNL     1       0.980   8.981  22.048  0.00  0.00    +0.000 C 
BRANCH  16  17
ATOM     17  C   UNL     1       0.177  10.258  22.055  0.00  0.00    +0.000 A 
ATOM     18  C   UNL     1       0.509  11.382  21.289  0.00  0.00    +0.000 A 
ATOM     19  C   UNL     1      -0.255  12.550  21.377  0.00  0.00    +0.000 A 
ATOM     20  C   UNL     1      -1.352  12.607  22.236  0.00  0.00    +0.000 A 
ATOM     21  C   UNL     1      -1.676  11.499  23.005  0.00  0.00    +0.000 A 
ATOM     22  F   UNL     1      -2.722  11.553  23.840  0.00  0.00    +0.000 F 
ATOM     23  C   UNL     1      -0.925  10.336  22.926  0.00  0.00    +0.000 A 
ENDBRANCH  16  17
BRANCH  16  24
ATOM     24  O   UNL     1       2.243   9.283  22.639  0.00  0.00    +0.000 OA
ATOM     25  H   UNL     1       2.175  10.172  23.024  0.00  0.00    +0.000 HD
ENDBRANCH  16  24
ENDBRANCH  15  16
ENDBRANCH   1  15
TORSDOF 8
ENDMDL
MODEL 9
REMARK VINA RESULT:      -6.6      2.932      6.656
REMARK  Name = 
REMARK  12 active torsions:
REMARK  status: ('A' for Active; 'I' for Inactive)
REMARK    1  A    between atoms: C_1  and  O_2
REMARK    2  A    between atoms: O_2  and  C_3
REMARK    3  A    between atoms: C_4  and  C_5
REMARK    4  A    between atoms: C_5  and  N_6
REMARK    5  A    between atoms: N_6  and  C_7
REMARK    6  A    between atoms: C_7  and  C_8
REMARK    7  A    between atoms: C_8  and  O_9
REMARK    8  A    between atoms: C_8  and  C_10
REMARK    9  A    between atoms: C_17  and  C_18
REMARK   10  A    between atoms: C_18  and  C_19
REMARK   11  A    between atoms: C_18  and  C_20
REMARK   12  A    between atoms: N_22  and  C_23
REMARK                            x       y       z     vdW  Elec       q    Type
REMARK                         _______ _______ _______ _____ _____    ______ ____
ROOT
ATOM      1  N   UNL     1       3.496   7.261  17.979  0.00  0.00    +0.000 NA
ATOM      2  H   UNL     1       3.429   7.123  16.975  0.00  0.00    +0.000 HD
ENDROOT
BRANCH   1   3
ATOM      3  C   UNL     1       4.601   6.455  18.496  0.00  0.00    +0.000 C 
BRANCH   3   5
ATOM      4  C   UNL     1       6.247   5.877  16.563  0.00  0.00    +0.000 A 
ATOM      5  C   UNL     1       5.175   5.618  17.409  0.00  0.00    +0.000 A 
ATOM      6  C   UNL     1       4.783   4.281  17.087  0.00  0.00    +0.000 A 
ATOM      7  N   UNL     1       5.460   3.803  16.038  0.00  0.00    +0.000 NA
ATOM      8  N   UNL     1       6.323   4.788  15.733  0.00  0.00    +0.000 N 
ATOM      9  C   UNL     1       7.274   4.605  14.663  0.00  0.00    +0.000 C 
BRANCH   6  10
ATOM     10  C   UNL     1       3.757   3.426  17.792  0.00  0.00    +0.000 C 
ATOM     11  C   UNL     1       2.816   2.750  16.796  0.00  0.00    +0.000 C 
ATOM     12  C   UNL     1       4.380   2.392  18.733  0.00  0.00    +0.000 C 
ENDBRANCH   6  10
BRANCH   4  14
ATOM     13  C   UNL     1       7.672   7.424  17.598  0.00  0.00    +0.000 C 
ATOM     14  O   UNL     1       7.130   6.869  16.407  0.00  0.00    +0.000 OA
ENDBRANCH   4  14
ENDBRANCH   3   5
ENDBRANCH   1   3
BRANCH   1  15
ATOM     15  C   UNL     1       2.217   6.922  18.630  0.00  0.00    +0.000 C 
BRANCH  15  16
ATOM     16  C   UNL     1       2.340   6.500  20.123  0.00  0.00    +0.000 C 
BRANCH  16  17
ATOM     17  C   UNL     1       1.977   5.073  20.452  0.00  0.00    +0.000 A 
ATOM     18  C   UNL     1       2.476   4.387  21.566  0.00  0.00    +0.000 A 
ATOM     19  C   UNL     1       2.133   3.050  21.787  0.00  0.00    +0.000 A 
ATOM     20  C   UNL     1       1.296   2.384  20.892  0.00  0.00    +0.000 A 
ATOM     21  C   UNL     1       0.810   3.057  19.781  0.00  0.00    +0.000 A 
ATOM     22  F   UNL     1       0.014   2.419  18.914  0.00  0.00    +0.000 F 
ATOM     23  C   UNL     1       1.144   4.384  19.552  0.00  0.00    +0.000 A 
ENDBRANCH  16  17
BRANCH  16  24
ATOM     24  O   UNL     1       1.549   7.334  20.968  0.00  0.00    +0.000 OA
ATOM     25  H   UNL     1       0.656   7.365  20.587  0.00  0.00    +0.000 HD
ENDBRANCH  16  24
ENDBRANCH  15  16
ENDBRANCH   1  15
TORSDOF 8
ENDMDL
