MODEL 1
REMARK VINA RESULT:      -7.4      0.000      0.000
REMARK  Name = 
REMARK  4 active torsions:
REMARK  status: ('A' for Active; 'I' for Inactive)
REMARK    1  A    between atoms: C_2  and  C_14
REMARK    2  A    between atoms: N_3  and  N_4
REMARK    3  A    between atoms: C_5  and  C_6
REMARK    4  A    between atoms: C_12  and  O_13
REMARK                            x       y       z     vdW  Elec       q    Type
REMARK                         _______ _______ _______ _____ _____    ______ ____
ROOT
ATOM      1  O   UNL     1       8.249   6.631  18.836  0.00  0.00    +0.000 OA
ATOM      2  C   UNL     1       7.368   6.874  18.015  0.00  0.00    +0.000 C 
ATOM      3  N   UNL     1       7.297   8.009  17.215  0.00  0.00    +0.000 N 
ATOM      4  H   UNL     1       6.502   8.186  16.614  0.00  0.00    +0.000 HD
ENDROOT
BRANCH   2   5
ATOM      5  C   UNL     1       6.247   5.906  17.869  0.00  0.00    +0.000 A 
ATOM      6  C   UNL     1       5.750   5.287  19.024  0.00  0.00    +0.000 A 
ATOM      7  C   UNL     1       4.688   4.385  18.940  0.00  0.00    +0.000 A 
ATOM      8  C   UNL     1       4.134   4.090  17.696  0.00  0.00    +0.000 A 
ATOM      9 BR   UNL     1       2.683   2.885  17.579  0.00  0.00    +0.000 Br
ATOM     10  C   UNL     1       4.645   4.674  16.535  0.00  0.00    +0.000 A 
ATOM     11  C   UNL     1       5.704   5.582  16.619  0.00  0.00    +0.000 A 
ENDBRANCH   2   5
BRANCH   3  12
ATOM     12  N   UNL     1       8.267   8.952  17.335  0.00  0.00    +0.000 NA
ATOM     13  C   UNL     1       8.019   9.974  18.101  0.00  0.00    +0.000 C 
BRANCH  13  14
ATOM     14  C   UNL     1       9.034  11.034  18.269  0.00  0.00    +0.000 A 
ATOM     15  C   UNL     1      10.170  10.769  19.039  0.00  0.00    +0.000 A 
ATOM     16  C   UNL     1      11.166  11.726  19.132  0.00  0.00    +0.000 A 
ATOM     17  F   UNL     1      12.262  11.466  19.856  0.00  0.00    +0.000 F 
ATOM     18  C   UNL     1      11.063  12.946  18.467  0.00  0.00    +0.000 A 
ATOM     19  C   UNL     1       9.913  13.230  17.724  0.00  0.00    +0.000 A 
ATOM     20  C   UNL     1       8.894  12.281  17.640  0.00  0.00    +0.000 A 
BRANCH  20  21
ATOM     21  O   UNL     1       7.746  12.581  16.960  0.00  0.00    +0.000 OA
ATOM     22  H   UNL     1       7.960  13.168  16.216  0.00  0.00    +0.000 HD
ENDBRANCH  20  21
ENDBRANCH  13  14
ENDBRANCH   3  12
TORSDOF 4
ENDMDL
MODEL 2
REMARK VINA RESULT:      -7.3      1.522      1.750
REMARK  Name = 
REMARK  4 active torsions:
REMARK  status: ('A' for Active; 'I' for Inactive)
REMARK    1  A    between atoms: C_2  and  C_14
REMARK    2  A    between atoms: N_3  and  N_4
REMARK    3  A    between atoms: C_5  and  C_6
REMARK    4  A    between atoms: C_12  and  O_13
REMARK                            x       y       z     vdW  Elec       q    Type
REMARK                         _______ _______ _______ _____ _____    ______ ____
ROOT
ATOM      1  O   UNL     1       8.381   6.204  19.182  0.00  0.00    +0.000 OA
ATOM      2  C   UNL     1       7.557   6.673  18.402  0.00  0.00    +0.000 C 
ATOM      3  N   UNL     1       7.645   7.914  17.781  0.00  0.00    +0.000 N 
ATOM      4  H   UNL     1       6.892   8.276  17.210  0.00  0.00    +0.000 HD
ENDROOT
BRANCH   2   5
ATOM      5  C   UNL     1       6.330   5.885  18.105  0.00  0.00    +0.000 A 
ATOM      6  C   UNL     1       5.733   5.169  19.152  0.00  0.00    +0.000 A 
ATOM      7  C   UNL     1       4.571   4.429  18.927  0.00  0.00    +0.000 A 
ATOM      8  C   UNL     1       4.016   4.392  17.650  0.00  0.00    +0.000 A 
ATOM      9 BR   UNL     1       2.431   3.408  17.345  0.00  0.00    +0.000 Br
ATOM     10  C   UNL     1       4.622   5.073  16.593  0.00  0.00    +0.000 A 
ATOM     11  C   UNL     1       5.782   5.820  16.818  0.00  0.00    +0.000 A 
ENDBRANCH   2   5
BRANCH   3  12
ATOM     12  N   UNL     1       8.720   8.700  18.047  0.00  0.00    +0.000 NA
ATOM     13  C   UNL     1       8.490   9.904  18.486  0.00  0.00    +0.000 C 
BRANCH  13  14
ATOM     14  C   UNL     1       9.618  10.807  18.790  0.00  0.00    +0.000 A 
ATOM     15  C   UNL     1      10.331  11.379  17.733  0.00  0.00    +0.000 A 
ATOM     16  C   UNL     1      11.335  12.293  18.008  0.00  0.00    +0.000 A 
ATOM     17  F   UNL     1      12.008  12.855  16.996  0.00  0.00    +0.000 F 
ATOM     18  C   UNL     1      11.644  12.658  19.316  0.00  0.00    +0.000 A 
ATOM     19  C   UNL     1      10.959  12.061  20.379  0.00  0.00    +0.000 A 
ATOM     20  C   UNL     1       9.959  11.125  20.114  0.00  0.00    +0.000 A 
BRANCH  20  21
ATOM     21  O   UNL     1       9.326  10.500  21.154  0.00  0.00    +0.000 OA
ATOM     22  H   UNL     1       8.383  10.406  20.943  0.00  0.00    +0.000 HD
ENDBRANCH  20  21
ENDBRANCH  13  14
ENDBRANCH   3  12
TORSDOF 4
ENDMDL
MODEL 3
REMARK VINA RESULT:      -7.3      7.811      9.934
REMARK  Name = 
REMARK  4 active torsions:
REMARK  status: ('A' for Active; 'I' for Inactive)
REMARK    1  A    between atoms: C_2  and  C_14
REMARK    2  A    between atoms: N_3  and  N_4
REMARK    3  A    between atoms: C_5  and  C_6
REMARK    4  A    between atoms: C_12  and  O_13
REMARK                            x       y       z     vdW  Elec       q    Type
REMARK                         _______ _______ _______ _____ _____    ______ ____
ROOT
ATOM      1  O   UNL     1       1.867   8.505  19.238  0.00  0.00    +0.000 OA
ATOM      2  C   UNL     1       1.415   8.223  20.344  0.00  0.00    +0.000 C 
ATOM      3  N   UNL     1       1.572   7.006  20.997  0.00  0.00    +0.000 N 
ATOM      4  H   UNL     1       1.107   6.809  21.874  0.00  0.00    +0.000 HD
ENDROOT
BRANCH   2   5
ATOM      5  C   UNL     1       0.592   9.238  21.055  0.00  0.00    +0.000 A 
ATOM      6  C   UNL     1       0.104  10.329  20.321  0.00  0.00    +0.000 A 
ATOM      7  C   UNL     1      -0.687  11.299  20.941  0.00  0.00    +0.000 A 
ATOM      8  C   UNL     1      -0.976  11.186  22.299  0.00  0.00    +0.000 A 
ATOM      9 BR   UNL     1      -2.063  12.485  23.137  0.00  0.00    +0.000 Br
ATOM     10  C   UNL     1      -0.466  10.122  23.046  0.00  0.00    +0.000 A 
ATOM     11  C   UNL     1       0.321   9.147  22.426  0.00  0.00    +0.000 A 
ENDBRANCH   2   5
BRANCH   3  12
ATOM     12  N   UNL     1       2.275   6.022  20.379  0.00  0.00    +0.000 NA
ATOM     13  C   UNL     1       1.647   4.915  20.107  0.00  0.00    +0.000 C 
BRANCH  13  14
ATOM     14  C   UNL     1       2.359   3.807  19.438  0.00  0.00    +0.000 A 
ATOM     15  C   UNL     1       3.384   3.149  20.123  0.00  0.00    +0.000 A 
ATOM     16  C   UNL     1       3.999   2.056  19.537  0.00  0.00    +0.000 A 
ATOM     17  F   UNL     1       4.970   1.414  20.200  0.00  0.00    +0.000 F 
ATOM     18  C   UNL     1       3.612   1.594  18.281  0.00  0.00    +0.000 A 
ATOM     19  C   UNL     1       2.612   2.270  17.576  0.00  0.00    +0.000 A 
ATOM     20  C   UNL     1       2.000   3.385  18.149  0.00  0.00    +0.000 A 
BRANCH  20  21
ATOM     21  O   UNL     1       1.061   4.080  17.437  0.00  0.00    +0.000 OA
ATOM     22  H   UNL     1       0.669   4.762  18.006  0.00  0.00    +0.000 HD
ENDBRANCH  20  21
ENDBRANCH  13  14
ENDBRANCH   3  12
TORSDOF 4
ENDMDL
MODEL 4
REMARK VINA RESULT:      -7.2      1.526      2.059
REMARK  Name = 
REMARK  4 active torsions:
REMARK  status: ('A' for Active; 'I' for Inactive)
REMARK    1  A    between atoms: C_2  and  C_14
REMARK    2  A    between atoms: N_3  and  N_4
REMARK    3  A    between atoms: C_5  and  C_6
REMARK    4  A    between atoms: C_12  and  O_13
REMARK                            x       y       z     vdW  Elec       q    Type
REMARK                         _______ _______ _______ _____ _____    ______ ____
ROOT
ATOM      1  O   UNL     1       8.405   6.308  18.992  0.00  0.00    +0.000 OA
ATOM      2  C   UNL     1       7.512   6.754  18.278  0.00  0.00    +0.000 C 
ATOM      3  N   UNL     1       7.523   7.992  17.645  0.00  0.00    +0.000 N 
ATOM      4  H   UNL     1       6.719   8.334  17.133  0.00  0.00    +0.000 HD
ENDROOT
BRANCH   2   5
ATOM      5  C   UNL     1       6.282   5.939  18.086  0.00  0.00    +0.000 A 
ATOM      6  C   UNL     1       5.749   5.839  16.793  0.00  0.00    +0.000 A 
ATOM      7  C   UNL     1       4.606   5.071  16.559  0.00  0.00    +0.000 A 
ATOM      8  C   UNL     1       3.987   4.417  17.622  0.00  0.00    +0.000 A 
ATOM      9 BR   UNL     1       2.453   3.361  17.307  0.00  0.00    +0.000 Br
ATOM     10  C   UNL     1       4.490   4.539  18.919  0.00  0.00    +0.000 A 
ATOM     11  C   UNL     1       5.638   5.302  19.154  0.00  0.00    +0.000 A 
ENDBRANCH   2   5
BRANCH   3  12
ATOM     12  N   UNL     1       8.599   8.803  17.819  0.00  0.00    +0.000 NA
ATOM     13  C   UNL     1       8.448   9.846  18.582  0.00  0.00    +0.000 C 
BRANCH  13  14
ATOM     14  C   UNL     1       9.580  10.766  18.807  0.00  0.00    +0.000 A 
ATOM     15  C   UNL     1      10.228  11.326  17.702  0.00  0.00    +0.000 A 
ATOM     16  C   UNL     1      11.235  12.255  17.905  0.00  0.00    +0.000 A 
ATOM     17  F   UNL     1      11.845  12.804  16.847  0.00  0.00    +0.000 F 
ATOM     18  C   UNL     1      11.611  12.648  19.187  0.00  0.00    +0.000 A 
ATOM     19  C   UNL     1      10.991  12.064  20.296  0.00  0.00    +0.000 A 
ATOM     20  C   UNL     1       9.989  11.113  20.104  0.00  0.00    +0.000 A 
BRANCH  20  21
ATOM     21  O   UNL     1       9.421  10.502  21.188  0.00  0.00    +0.000 OA
ATOM     22  H   UNL     1       9.569   9.544  21.128  0.00  0.00    +0.000 HD
ENDBRANCH  20  21
ENDBRANCH  13  14
ENDBRANCH   3  12
TORSDOF 4
ENDMDL
MODEL 5
REMARK VINA RESULT:      -7.1      6.407      7.731
REMARK  Name = 
REMARK  4 active torsions:
REMARK  status: ('A' for Active; 'I' for Inactive)
REMARK    1  A    between atoms: C_2  and  C_14
REMARK    2  A    between atoms: N_3  and  N_4
REMARK    3  A    between atoms: C_5  and  C_6
REMARK    4  A    between atoms: C_12  and  O_13
REMARK                            x       y       z     vdW  Elec       q    Type
REMARK                         _______ _______ _______ _____ _____    ______ ____
ROOT
ATOM      1  O   UNL     1       3.418   5.688  19.914  0.00  0.00    +0.000 OA
ATOM      2  C   UNL     1       3.312   6.303  18.857  0.00  0.00    +0.000 C 
ATOM      3  N   UNL     1       2.533   7.437  18.655  0.00  0.00    +0.000 N 
ATOM      4  H   UNL     1       2.427   7.851  17.737  0.00  0.00    +0.000 HD
ENDROOT
BRANCH   2   5
ATOM      5  C   UNL     1       4.039   5.795  17.663  0.00  0.00    +0.000 A 
ATOM      6  C   UNL     1       4.122   4.407  17.478  0.00  0.00    +0.000 A 
ATOM      7  C   UNL     1       4.779   3.882  16.364  0.00  0.00    +0.000 A 
ATOM      8  C   UNL     1       5.367   4.746  15.442  0.00  0.00    +0.000 A 
ATOM      9 BR   UNL     1       6.239   4.040  13.921  0.00  0.00    +0.000 Br
ATOM     10  C   UNL     1       5.321   6.128  15.635  0.00  0.00    +0.000 A 
ATOM     11  C   UNL     1       4.658   6.655  16.747  0.00  0.00    +0.000 A 
ENDBRANCH   2   5
BRANCH   3  12
ATOM     12  N   UNL     1       1.809   7.924  19.695  0.00  0.00    +0.000 NA
ATOM     13  C   UNL     1       1.289   9.110  19.562  0.00  0.00    +0.000 C 
BRANCH  13  14
ATOM     14  C   UNL     1       0.494   9.694  20.661  0.00  0.00    +0.000 A 
ATOM     15  C   UNL     1       0.614   9.155  21.946  0.00  0.00    +0.000 A 
ATOM     16  C   UNL     1      -0.062   9.751  22.997  0.00  0.00    +0.000 A 
ATOM     17  F   UNL     1       0.066   9.246  24.231  0.00  0.00    +0.000 F 
ATOM     18  C   UNL     1      -0.854  10.880  22.803  0.00  0.00    +0.000 A 
ATOM     19  C   UNL     1      -1.007  11.401  21.515  0.00  0.00    +0.000 A 
ATOM     20  C   UNL     1      -0.346  10.797  20.444  0.00  0.00    +0.000 A 
BRANCH  20  21
ATOM     21  O   UNL     1      -0.539  11.273  19.177  0.00  0.00    +0.000 OA
ATOM     22  H   UNL     1       0.162  10.932  18.597  0.00  0.00    +0.000 HD
ENDBRANCH  20  21
ENDBRANCH  13  14
ENDBRANCH   3  12
TORSDOF 4
ENDMDL
MODEL 6
REMARK VINA RESULT:      -7.1      6.354      7.724
REMARK  Name = 
REMARK  4 active torsions:
REMARK  status: ('A' for Active; 'I' for Inactive)
REMARK    1  A    between atoms: C_2  and  C_14
REMARK    2  A    between atoms: N_3  and  N_4
REMARK    3  A    between atoms: C_5  and  C_6
REMARK    4  A    between atoms: C_12  and  O_13
REMARK                            x       y       z     vdW  Elec       q    Type
REMARK                         _______ _______ _______ _____ _____    ______ ____
ROOT
ATOM      1  O   UNL     1       3.444   5.586  19.914  0.00  0.00    +0.000 OA
ATOM      2  C   UNL     1       3.348   6.197  18.854  0.00  0.00    +0.000 C 
ATOM      3  N   UNL     1       2.603   7.353  18.651  0.00  0.00    +0.000 N 
ATOM      4  H   UNL     1       2.501   7.765  17.731  0.00  0.00    +0.000 HD
ENDROOT
BRANCH   2   5
ATOM      5  C   UNL     1       4.047   5.658  17.657  0.00  0.00    +0.000 A 
ATOM      6  C   UNL     1       4.663   6.566  16.784  0.00  0.00    +0.000 A 
ATOM      7  C   UNL     1       5.346   6.107  15.655  0.00  0.00    +0.000 A 
ATOM      8  C   UNL     1       5.398   4.740  15.392  0.00  0.00    +0.000 A 
ATOM      9 BR   UNL     1       6.339   4.113  13.878  0.00  0.00    +0.000 Br
ATOM     10  C   UNL     1       4.759   3.830  16.236  0.00  0.00    +0.000 A 
ATOM     11  C   UNL     1       4.080   4.287  17.370  0.00  0.00    +0.000 A 
ENDBRANCH   2   5
BRANCH   3  12
ATOM     12  N   UNL     1       1.905   7.870  19.695  0.00  0.00    +0.000 NA
ATOM     13  C   UNL     1       1.301   9.008  19.510  0.00  0.00    +0.000 C 
BRANCH  13  14
ATOM     14  C   UNL     1       0.529   9.621  20.609  0.00  0.00    +0.000 A 
ATOM     15  C   UNL     1       0.644   9.091  21.897  0.00  0.00    +0.000 A 
ATOM     16  C   UNL     1      -0.009   9.712  22.948  0.00  0.00    +0.000 A 
ATOM     17  F   UNL     1       0.115   9.214  24.185  0.00  0.00    +0.000 F 
ATOM     18  C   UNL     1      -0.775  10.858  22.749  0.00  0.00    +0.000 A 
ATOM     19  C   UNL     1      -0.923  11.372  21.457  0.00  0.00    +0.000 A 
ATOM     20  C   UNL     1      -0.285  10.743  20.388  0.00  0.00    +0.000 A 
BRANCH  20  21
ATOM     21  O   UNL     1      -0.475  11.213  19.117  0.00  0.00    +0.000 OA
ATOM     22  H   UNL     1       0.028  10.663  18.495  0.00  0.00    +0.000 HD
ENDBRANCH  20  21
ENDBRANCH  13  14
ENDBRANCH   3  12
TORSDOF 4
ENDMDL
MODEL 7
REMARK VINA RESULT:      -7.0      6.185      7.969
REMARK  Name = 
REMARK  4 active torsions:
REMARK  status: ('A' for Active; 'I' for Inactive)
REMARK    1  A    between atoms: C_2  and  C_14
REMARK    2  A    between atoms: N_3  and  N_4
REMARK    3  A    between atoms: C_5  and  C_6
REMARK    4  A    between atoms: C_12  and  O_13
REMARK                            x       y       z     vdW  Elec       q    Type
REMARK                         _______ _______ _______ _____ _____    ______ ____
ROOT
ATOM      1  O   UNL     1       2.157   9.119  17.539  0.00  0.00    +0.000 OA
ATOM      2  C   UNL     1       1.950   8.570  18.617  0.00  0.00    +0.000 C 
ATOM      3  N   UNL     1       2.417   7.314  18.989  0.00  0.00    +0.000 N 
ATOM      4  H   UNL     1       2.144   6.883  19.864  0.00  0.00    +0.000 HD
ENDROOT
BRANCH   2   5
ATOM      5  C   UNL     1       1.099   9.267  19.619  0.00  0.00    +0.000 A 
ATOM      6  C   UNL     1       1.109   8.797  20.940  0.00  0.00    +0.000 A 
ATOM      7  C   UNL     1       0.340   9.430  21.919  0.00  0.00    +0.000 A 
ATOM      8  C   UNL     1      -0.452  10.522  21.572  0.00  0.00    +0.000 A 
ATOM      9 BR   UNL     1      -1.478  11.393  22.899  0.00  0.00    +0.000 Br
ATOM     10  C   UNL     1      -0.496  10.976  20.253  0.00  0.00    +0.000 A 
ATOM     11  C   UNL     1       0.278  10.348  19.272  0.00  0.00    +0.000 A 
ENDBRANCH   2   5
BRANCH   3  12
ATOM     12  N   UNL     1       3.162   6.607  18.101  0.00  0.00    +0.000 NA
ATOM     13  C   UNL     1       4.385   6.317  18.438  0.00  0.00    +0.000 C 
BRANCH  13  14
ATOM     14  C   UNL     1       5.245   5.553  17.513  0.00  0.00    +0.000 A 
ATOM     15  C   UNL     1       4.806   5.336  16.203  0.00  0.00    +0.000 A 
ATOM     16  C   UNL     1       5.642   4.695  15.305  0.00  0.00    +0.000 A 
ATOM     17  F   UNL     1       5.229   4.501  14.046  0.00  0.00    +0.000 F 
ATOM     18  C   UNL     1       6.915   4.268  15.677  0.00  0.00    +0.000 A 
ATOM     19  C   UNL     1       7.345   4.451  16.995  0.00  0.00    +0.000 A 
ATOM     20  C   UNL     1       6.503   5.078  17.914  0.00  0.00    +0.000 A 
BRANCH  20  21
ATOM     21  O   UNL     1       6.901   5.207  19.216  0.00  0.00    +0.000 OA
ATOM     22  H   UNL     1       7.864   5.092  19.268  0.00  0.00    +0.000 HD
ENDBRANCH  20  21
ENDBRANCH  13  14
ENDBRANCH   3  12
TORSDOF 4
ENDMDL
MODEL 8
REMARK VINA RESULT:      -6.9      6.601      7.982
REMARK  Name = 
REMARK  4 active torsions:
REMARK  status: ('A' for Active; 'I' for Inactive)
REMARK    1  A    between atoms: C_2  and  C_14
REMARK    2  A    between atoms: N_3  and  N_4
REMARK    3  A    between atoms: C_5  and  C_6
REMARK    4  A    between atoms: C_12  and  O_13
REMARK                            x       y       z     vdW  Elec       q    Type
REMARK                         _______ _______ _______ _____ _____    ______ ____
ROOT
ATOM      1  O   UNL     1       3.084   5.756  19.914  0.00  0.00    +0.000 OA
ATOM      2  C   UNL     1       3.099   6.408  18.874  0.00  0.00    +0.000 C 
ATOM      3  N   UNL     1       2.415   7.599  18.654  0.00  0.00    +0.000 N 
ATOM      4  H   UNL     1       2.406   8.047  17.746  0.00  0.00    +0.000 HD
ENDROOT
BRANCH   2   5
ATOM      5  C   UNL     1       3.878   5.886  17.719  0.00  0.00    +0.000 A 
ATOM      6  C   UNL     1       3.889   4.502  17.498  0.00  0.00    +0.000 A 
ATOM      7  C   UNL     1       4.592   3.966  16.416  0.00  0.00    +0.000 A 
ATOM      8  C   UNL     1       5.297   4.814  15.566  0.00  0.00    +0.000 A 
ATOM      9 BR   UNL     1       6.233   4.095  14.090  0.00  0.00    +0.000 Br
ATOM     10  C   UNL     1       5.322   6.191  15.798  0.00  0.00    +0.000 A 
ATOM     11  C   UNL     1       4.614   6.730  16.876  0.00  0.00    +0.000 A 
ENDBRANCH   2   5
BRANCH   3  12
ATOM     12  N   UNL     1       1.649   8.104  19.656  0.00  0.00    +0.000 NA
ATOM     13  C   UNL     1       1.375   9.375  19.619  0.00  0.00    +0.000 C 
BRANCH  13  14
ATOM     14  C   UNL     1       0.549   9.983  20.682  0.00  0.00    +0.000 A 
ATOM     15  C   UNL     1      -0.398  10.950  20.335  0.00  0.00    +0.000 A 
ATOM     16  C   UNL     1      -1.234  11.462  21.313  0.00  0.00    +0.000 A 
ATOM     17  F   UNL     1      -2.153  12.378  20.978  0.00  0.00    +0.000 F 
ATOM     18  C   UNL     1      -1.157  11.028  22.634  0.00  0.00    +0.000 A 
ATOM     19  C   UNL     1      -0.187  10.087  22.993  0.00  0.00    +0.000 A 
ATOM     20  C   UNL     1       0.674   9.578  22.020  0.00  0.00    +0.000 A 
BRANCH  20  21
ATOM     21  O   UNL     1       1.657   8.699  22.382  0.00  0.00    +0.000 OA
ATOM     22  H   UNL     1       1.250   7.875  22.694  0.00  0.00    +0.000 HD
ENDBRANCH  20  21
ENDBRANCH  13  14
ENDBRANCH   3  12
TORSDOF 4
ENDMDL
MODEL 9
REMARK VINA RESULT:      -6.9      6.578      8.008
REMARK  Name = 
REMARK  4 active torsions:
REMARK  status: ('A' for Active; 'I' for Inactive)
REMARK    1  A    between atoms: C_2  and  C_14
REMARK    2  A    between atoms: N_3  and  N_4
REMARK    3  A    between atoms: C_5  and  C_6
REMARK    4  A    between atoms: C_12  and  O_13
REMARK                            x       y       z     vdW  Elec       q    Type
REMARK                         _______ _______ _______ _____ _____    ______ ____
ROOT
ATOM      1  O   UNL     1       3.004   5.592  19.956  0.00  0.00    +0.000 OA
ATOM      2  C   UNL     1       3.090   6.272  18.937  0.00  0.00    +0.000 C 
ATOM      3  N   UNL     1       2.512   7.522  18.747  0.00  0.00    +0.000 N 
ATOM      4  H   UNL     1       2.554   7.996  17.853  0.00  0.00    +0.000 HD
ENDROOT
BRANCH   2   5
ATOM      5  C   UNL     1       3.838   5.720  17.776  0.00  0.00    +0.000 A 
ATOM      6  C   UNL     1       4.506   6.618  16.931  0.00  0.00    +0.000 A 
ATOM      7  C   UNL     1       5.236   6.147  15.837  0.00  0.00    +0.000 A 
ATOM      8  C   UNL     1       5.284   4.779  15.580  0.00  0.00    +0.000 A 
ATOM      9 BR   UNL     1       6.287   4.135  14.114  0.00  0.00    +0.000 Br
ATOM     10  C   UNL     1       4.594   3.879  16.395  0.00  0.00    +0.000 A 
ATOM     11  C   UNL     1       3.867   4.349  17.494  0.00  0.00    +0.000 A 
ENDBRANCH   2   5
BRANCH   3  12
ATOM     12  N   UNL     1       1.777   8.060  19.754  0.00  0.00    +0.000 NA
ATOM     13  C   UNL     1       1.329   9.271  19.591  0.00  0.00    +0.000 C 
BRANCH  13  14
ATOM     14  C   UNL     1       0.526   9.910  20.653  0.00  0.00    +0.000 A 
ATOM     15  C   UNL     1      -0.421  10.875  20.298  0.00  0.00    +0.000 A 
ATOM     16  C   UNL     1      -1.236  11.417  21.278  0.00  0.00    +0.000 A 
ATOM     17  F   UNL     1      -2.155  12.330  20.937  0.00  0.00    +0.000 F 
ATOM     18  C   UNL     1      -1.137  11.016  22.608  0.00  0.00    +0.000 A 
ATOM     19  C   UNL     1      -0.167  10.078  22.974  0.00  0.00    +0.000 A 
ATOM     20  C   UNL     1       0.673   9.539  21.998  0.00  0.00    +0.000 A 
BRANCH  20  21
ATOM     21  O   UNL     1       1.658   8.664  22.364  0.00  0.00    +0.000 OA
ATOM     22  H   UNL     1       1.518   8.392  23.286  0.00  0.00    +0.000 HD
ENDBRANCH  20  21
ENDBRANCH  13  14
ENDBRANCH   3  12
TORSDOF 4
ENDMDL
