MODEL 1
REMARK VINA RESULT:      -9.0      0.000      0.000
REMARK  Name = 
REMARK  3 active torsions:
REMARK  status: ('A' for Active; 'I' for Inactive)
REMARK    1  A    between atoms: N_5  and  C_6
REMARK    2  A    between atoms: C_6  and  C_7
REMARK    3  A    between atoms: C_15  and  C_16
REMARK                            x       y       z     vdW  Elec       q    Type
REMARK                         _______ _______ _______ _____ _____    ______ ____
ROOT
ATOM      1  O   UNL     1       7.374   4.570  15.405  0.00  0.00    +0.000 OA
ATOM      2  C   UNL     1       7.039   5.377  16.249  0.00  0.00    +0.000 C 
ATOM      3  N   UNL     1       7.572   6.623  16.466  0.00  0.00    +0.000 N 
ATOM      4  C   UNL     1       6.931   7.254  17.493  0.00  0.00    +0.000 C 
ATOM      5  N   UNL     1       7.228   8.403  17.970  0.00  0.00    +0.000 NA
ATOM      6  N   UNL     1       5.931   6.448  17.940  0.00  0.00    +0.000 N 
ATOM      7  C   UNL     1       5.908   5.254  17.264  0.00  0.00    +0.000 C 
ATOM      8  C   UNL     1       5.234   4.105  17.284  0.00  0.00    +0.000 C 
ATOM      9  H   UNL     1       8.345   6.980  15.922  0.00  0.00    +0.000 HD
ATOM     10  H   UNL     1       5.351   6.629  18.739  0.00  0.00    +0.000 HD
ENDROOT
BRANCH   8  11
ATOM     11  C   UNL     1       4.104   3.515  17.918  0.00  0.00    +0.000 A 
ATOM     12  C   UNL     1       3.882   2.168  17.694  0.00  0.00    +0.000 A 
ATOM     13  N   UNL     1       2.533   2.042  17.649  0.00  0.00    +0.000 N 
ATOM     14  C   UNL     1       2.057   2.829  18.663  0.00  0.00    +0.000 A 
ATOM     15  C   UNL     1       0.855   2.722  19.353  0.00  0.00    +0.000 A 
ATOM     16  C   UNL     1       0.635   3.647  20.361  0.00  0.00    +0.000 A 
ATOM     17  C   UNL     1       1.547   4.680  20.577  0.00  0.00    +0.000 A 
ATOM     18  C   UNL     1       2.719   4.820  19.799  0.00  0.00    +0.000 A 
ATOM     19  C   UNL     1       3.030   3.840  18.840  0.00  0.00    +0.000 A 
ATOM     20  H   UNL     1       1.981   1.745  16.855  0.00  0.00    +0.000 HD
ENDBRANCH   8  11
BRANCH   5  21
ATOM     21  C   UNL     1       8.391   9.190  17.466  0.00  0.00    +0.000 C 
BRANCH  21  22
ATOM     22  C   UNL     1       8.835  10.360  18.298  0.00  0.00    +0.000 A 
ATOM     23  C   UNL     1       8.784  11.677  17.813  0.00  0.00    +0.000 A 
ATOM     24  C   UNL     1       9.201  12.751  18.606  0.00  0.00    +0.000 A 
ATOM     25  C   UNL     1       9.671  12.516  19.904  0.00  0.00    +0.000 A 
ATOM     26  C   UNL     1       9.728  11.219  20.396  0.00  0.00    +0.000 A 
ATOM     27  C   UNL     1       9.319  10.142  19.602  0.00  0.00    +0.000 A 
ENDBRANCH  21  22
ENDBRANCH   5  21
TORSDOF 3
ENDMDL
MODEL 2
REMARK VINA RESULT:      -8.9      4.534      7.267
REMARK  Name = 
REMARK  3 active torsions:
REMARK  status: ('A' for Active; 'I' for Inactive)
REMARK    1  A    between atoms: N_5  and  C_6
REMARK    2  A    between atoms: C_6  and  C_7
REMARK    3  A    between atoms: C_15  and  C_16
REMARK                            x       y       z     vdW  Elec       q    Type
REMARK                         _______ _______ _______ _____ _____    ______ ____
ROOT
ATOM      1  O   UNL     1       2.690   2.839  18.584  0.00  0.00    +0.000 OA
ATOM      2  C   UNL     1       2.908   4.034  18.603  0.00  0.00    +0.000 C 
ATOM      3  N   UNL     1       2.331   4.970  19.424  0.00  0.00    +0.000 N 
ATOM      4  C   UNL     1       2.833   6.214  19.170  0.00  0.00    +0.000 C 
ATOM      5  N   UNL     1       2.460   7.302  19.730  0.00  0.00    +0.000 NA
ATOM      6  N   UNL     1       3.786   6.109  18.205  0.00  0.00    +0.000 N 
ATOM      7  C   UNL     1       3.910   4.816  17.762  0.00  0.00    +0.000 C 
ATOM      8  C   UNL     1       4.596   4.134  16.847  0.00  0.00    +0.000 C 
ATOM      9  H   UNL     1       1.623   4.729  20.103  0.00  0.00    +0.000 HD
ATOM     10  H   UNL     1       4.261   6.878  17.771  0.00  0.00    +0.000 HD
ENDROOT
BRANCH   8  11
ATOM     11  C   UNL     1       5.651   4.323  15.910  0.00  0.00    +0.000 A 
ATOM     12  C   UNL     1       6.874   4.738  16.405  0.00  0.00    +0.000 A 
ATOM     13  N   UNL     1       7.369   5.568  15.455  0.00  0.00    +0.000 N 
ATOM     14  C   UNL     1       7.094   4.963  14.259  0.00  0.00    +0.000 A 
ATOM     15  C   UNL     1       7.748   5.110  13.041  0.00  0.00    +0.000 A 
ATOM     16  C   UNL     1       7.270   4.350  11.986  0.00  0.00    +0.000 A 
ATOM     17  C   UNL     1       6.128   3.565  12.146  0.00  0.00    +0.000 A 
ATOM     18  C   UNL     1       5.428   3.504  13.372  0.00  0.00    +0.000 A 
ATOM     19  C   UNL     1       5.943   4.175  14.494  0.00  0.00    +0.000 A 
ATOM     20  H   UNL     1       7.566   6.555  15.559  0.00  0.00    +0.000 HD
ENDBRANCH   8  11
BRANCH   5  21
ATOM     21  C   UNL     1       1.353   7.336  20.730  0.00  0.00    +0.000 C 
BRANCH  21  22
ATOM     22  C   UNL     1       0.783   8.684  21.070  0.00  0.00    +0.000 A 
ATOM     23  C   UNL     1       0.213   8.954  22.326  0.00  0.00    +0.000 A 
ATOM     24  C   UNL     1      -0.310  10.217  22.621  0.00  0.00    +0.000 A 
ATOM     25  C   UNL     1      -0.263  11.232  21.657  0.00  0.00    +0.000 A 
ATOM     26  C   UNL     1       0.295  10.979  20.411  0.00  0.00    +0.000 A 
ATOM     27  C   UNL     1       0.813   9.715  20.111  0.00  0.00    +0.000 A 
ENDBRANCH  21  22
ENDBRANCH   5  21
TORSDOF 3
ENDMDL
MODEL 3
REMARK VINA RESULT:      -8.9      4.521      7.194
REMARK  Name = 
REMARK  3 active torsions:
REMARK  status: ('A' for Active; 'I' for Inactive)
REMARK    1  A    between atoms: N_5  and  C_6
REMARK    2  A    between atoms: C_6  and  C_7
REMARK    3  A    between atoms: C_15  and  C_16
REMARK                            x       y       z     vdW  Elec       q    Type
REMARK                         _______ _______ _______ _____ _____    ______ ____
ROOT
ATOM      1  O   UNL     1       3.257   2.730  18.962  0.00  0.00    +0.000 OA
ATOM      2  C   UNL     1       3.323   3.939  18.851  0.00  0.00    +0.000 C 
ATOM      3  N   UNL     1       2.674   4.879  19.611  0.00  0.00    +0.000 N 
ATOM      4  C   UNL     1       3.003   6.141  19.206  0.00  0.00    +0.000 C 
ATOM      5  N   UNL     1       2.525   7.229  19.680  0.00  0.00    +0.000 NA
ATOM      6  N   UNL     1       3.912   6.051  18.199  0.00  0.00    +0.000 N 
ATOM      7  C   UNL     1       4.175   4.743  17.876  0.00  0.00    +0.000 C 
ATOM      8  C   UNL     1       4.895   4.056  16.991  0.00  0.00    +0.000 C 
ATOM      9  H   UNL     1       2.037   4.627  20.353  0.00  0.00    +0.000 HD
ATOM     10  H   UNL     1       4.265   6.822  17.663  0.00  0.00    +0.000 HD
ENDROOT
BRANCH   8  11
ATOM     11  C   UNL     1       5.871   4.272  15.977  0.00  0.00    +0.000 A 
ATOM     12  C   UNL     1       7.119   4.712  16.378  0.00  0.00    +0.000 A 
ATOM     13  N   UNL     1       7.520   5.556  15.396  0.00  0.00    +0.000 N 
ATOM     14  C   UNL     1       7.167   4.949  14.222  0.00  0.00    +0.000 A 
ATOM     15  C   UNL     1       7.722   5.114  12.958  0.00  0.00    +0.000 A 
ATOM     16  C   UNL     1       7.180   4.347  11.939  0.00  0.00    +0.000 A 
ATOM     17  C   UNL     1       6.072   3.536  12.183  0.00  0.00    +0.000 A 
ATOM     18  C   UNL     1       5.470   3.455  13.460  0.00  0.00    +0.000 A 
ATOM     19  C   UNL     1       6.055   4.135  14.542  0.00  0.00    +0.000 A 
ATOM     20  H   UNL     1       7.702   6.548  15.490  0.00  0.00    +0.000 HD
ENDBRANCH   8  11
BRANCH   5  21
ATOM     21  C   UNL     1       1.473   7.234  20.739  0.00  0.00    +0.000 C 
BRANCH  21  22
ATOM     22  C   UNL     1       0.871   8.564  21.095  0.00  0.00    +0.000 A 
ATOM     23  C   UNL     1       0.908   9.656  20.210  0.00  0.00    +0.000 A 
ATOM     24  C   UNL     1       0.339  10.884  20.563  0.00  0.00    +0.000 A 
ATOM     25  C   UNL     1      -0.282  11.032  21.810  0.00  0.00    +0.000 A 
ATOM     26  C   UNL     1      -0.323   9.962  22.694  0.00  0.00    +0.000 A 
ATOM     27  C   UNL     1       0.251   8.735  22.347  0.00  0.00    +0.000 A 
ENDBRANCH  21  22
ENDBRANCH   5  21
TORSDOF 3
ENDMDL
MODEL 4
REMARK VINA RESULT:      -8.8      0.202      1.005
REMARK  Name = 
REMARK  3 active torsions:
REMARK  status: ('A' for Active; 'I' for Inactive)
REMARK    1  A    between atoms: N_5  and  C_6
REMARK    2  A    between atoms: C_6  and  C_7
REMARK    3  A    between atoms: C_15  and  C_16
REMARK                            x       y       z     vdW  Elec       q    Type
REMARK                         _______ _______ _______ _____ _____    ______ ____
ROOT
ATOM      1  O   UNL     1       7.077   4.624  15.099  0.00  0.00    +0.000 OA
ATOM      2  C   UNL     1       6.850   5.355  16.043  0.00  0.00    +0.000 C 
ATOM      3  N   UNL     1       7.451   6.556  16.327  0.00  0.00    +0.000 N 
ATOM      4  C   UNL     1       6.928   7.104  17.463  0.00  0.00    +0.000 C 
ATOM      5  N   UNL     1       7.313   8.190  18.018  0.00  0.00    +0.000 NA
ATOM      6  N   UNL     1       5.938   6.291  17.921  0.00  0.00    +0.000 N 
ATOM      7  C   UNL     1       5.808   5.170  17.140  0.00  0.00    +0.000 C 
ATOM      8  C   UNL     1       5.091   4.047  17.113  0.00  0.00    +0.000 C 
ATOM      9  H   UNL     1       8.187   6.939  15.752  0.00  0.00    +0.000 HD
ATOM     10  H   UNL     1       5.439   6.411  18.783  0.00  0.00    +0.000 HD
ENDROOT
BRANCH   8  11
ATOM     11  C   UNL     1       3.998   3.435  17.788  0.00  0.00    +0.000 A 
ATOM     12  C   UNL     1       3.768   2.094  17.539  0.00  0.00    +0.000 A 
ATOM     13  N   UNL     1       2.419   1.964  17.561  0.00  0.00    +0.000 N 
ATOM     14  C   UNL     1       1.994   2.720  18.619  0.00  0.00    +0.000 A 
ATOM     15  C   UNL     1       0.829   2.589  19.367  0.00  0.00    +0.000 A 
ATOM     16  C   UNL     1       0.660   3.486  20.410  0.00  0.00    +0.000 A 
ATOM     17  C   UNL     1       1.578   4.517  20.606  0.00  0.00    +0.000 A 
ATOM     18  C   UNL     1       2.708   4.683  19.773  0.00  0.00    +0.000 A 
ATOM     19  C   UNL     1       2.972   3.731  18.773  0.00  0.00    +0.000 A 
ATOM     20  H   UNL     1       1.827   1.685  16.788  0.00  0.00    +0.000 HD
ENDBRANCH   8  11
BRANCH   5  21
ATOM     21  C   UNL     1       8.459   8.984  17.487  0.00  0.00    +0.000 C 
BRANCH  21  22
ATOM     22  C   UNL     1       8.876  10.192  18.278  0.00  0.00    +0.000 A 
ATOM     23  C   UNL     1       9.414  10.082  19.571  0.00  0.00    +0.000 A 
ATOM     24  C   UNL     1       9.798  11.220  20.288  0.00  0.00    +0.000 A 
ATOM     25  C   UNL     1       9.651  12.488  19.712  0.00  0.00    +0.000 A 
ATOM     26  C   UNL     1       9.119  12.611  18.435  0.00  0.00    +0.000 A 
ATOM     27  C   UNL     1       8.728  11.476  17.719  0.00  0.00    +0.000 A 
ENDBRANCH  21  22
ENDBRANCH   5  21
TORSDOF 3
ENDMDL
MODEL 5
REMARK VINA RESULT:      -8.8      3.269      5.018
REMARK  Name = 
REMARK  3 active torsions:
REMARK  status: ('A' for Active; 'I' for Inactive)
REMARK    1  A    between atoms: N_5  and  C_6
REMARK    2  A    between atoms: C_6  and  C_7
REMARK    3  A    between atoms: C_15  and  C_16
REMARK                            x       y       z     vdW  Elec       q    Type
REMARK                         _______ _______ _______ _____ _____    ______ ____
ROOT
ATOM      1  O   UNL     1       7.929   5.373  19.700  0.00  0.00    +0.000 OA
ATOM      2  C   UNL     1       7.953   6.328  18.949  0.00  0.00    +0.000 C 
ATOM      3  N   UNL     1       8.422   7.588  19.223  0.00  0.00    +0.000 N 
ATOM      4  C   UNL     1       8.302   8.399  18.131  0.00  0.00    +0.000 C 
ATOM      5  N   UNL     1       8.601   9.641  18.083  0.00  0.00    +0.000 NA
ATOM      6  N   UNL     1       7.793   7.669  17.103  0.00  0.00    +0.000 N 
ATOM      7  C   UNL     1       7.518   6.381  17.489  0.00  0.00    +0.000 C 
ATOM      8  C   UNL     1       6.989   5.273  16.974  0.00  0.00    +0.000 C 
ATOM      9  H   UNL     1       8.786   7.842  20.130  0.00  0.00    +0.000 HD
ATOM     10  H   UNL     1       7.529   8.032  16.206  0.00  0.00    +0.000 HD
ENDROOT
BRANCH   8  11
ATOM     11  C   UNL     1       6.526   4.763  15.728  0.00  0.00    +0.000 A 
ATOM     12  C   UNL     1       5.306   4.111  15.721  0.00  0.00    +0.000 A 
ATOM     13  N   UNL     1       5.452   3.113  14.817  0.00  0.00    +0.000 N 
ATOM     14  C   UNL     1       6.128   3.666  13.764  0.00  0.00    +0.000 A 
ATOM     15  C   UNL     1       6.136   3.269  12.431  0.00  0.00    +0.000 A 
ATOM     16  C   UNL     1       6.899   4.033  11.563  0.00  0.00    +0.000 A 
ATOM     17  C   UNL     1       7.685   5.077  12.050  0.00  0.00    +0.000 A 
ATOM     18  C   UNL     1       7.729   5.403  13.425  0.00  0.00    +0.000 A 
ATOM     19  C   UNL     1       6.888   4.722  14.321  0.00  0.00    +0.000 A 
ATOM     20  H   UNL     1       5.407   2.118  15.002  0.00  0.00    +0.000 HD
ENDBRANCH   8  11
BRANCH   5  21
ATOM     21  C   UNL     1       9.087  10.384  19.283  0.00  0.00    +0.000 C 
BRANCH  21  22
ATOM     22  C   UNL     1      10.216  11.353  19.074  0.00  0.00    +0.000 A 
ATOM     23  C   UNL     1      10.975  11.849  20.148  0.00  0.00    +0.000 A 
ATOM     24  C   UNL     1      12.024  12.749  19.929  0.00  0.00    +0.000 A 
ATOM     25  C   UNL     1      12.329  13.159  18.626  0.00  0.00    +0.000 A 
ATOM     26  C   UNL     1      11.585  12.678  17.556  0.00  0.00    +0.000 A 
ATOM     27  C   UNL     1      10.532  11.784  17.772  0.00  0.00    +0.000 A 
ENDBRANCH  21  22
ENDBRANCH   5  21
TORSDOF 3
ENDMDL
MODEL 6
REMARK VINA RESULT:      -8.7      3.177      4.866
REMARK  Name = 
REMARK  3 active torsions:
REMARK  status: ('A' for Active; 'I' for Inactive)
REMARK    1  A    between atoms: N_5  and  C_6
REMARK    2  A    between atoms: C_6  and  C_7
REMARK    3  A    between atoms: C_15  and  C_16
REMARK                            x       y       z     vdW  Elec       q    Type
REMARK                         _______ _______ _______ _____ _____    ______ ____
ROOT
ATOM      1  O   UNL     1       8.096   5.422  19.708  0.00  0.00    +0.000 OA
ATOM      2  C   UNL     1       8.071   6.385  18.967  0.00  0.00    +0.000 C 
ATOM      3  N   UNL     1       8.556   7.642  19.224  0.00  0.00    +0.000 N 
ATOM      4  C   UNL     1       8.366   8.464  18.150  0.00  0.00    +0.000 C 
ATOM      5  N   UNL     1       8.660   9.708  18.097  0.00  0.00    +0.000 NA
ATOM      6  N   UNL     1       7.792   7.745  17.150  0.00  0.00    +0.000 N 
ATOM      7  C   UNL     1       7.543   6.453  17.539  0.00  0.00    +0.000 C 
ATOM      8  C   UNL     1       6.982   5.350  17.047  0.00  0.00    +0.000 C 
ATOM      9  H   UNL     1       8.978   7.887  20.108  0.00  0.00    +0.000 HD
ATOM     10  H   UNL     1       7.470   8.118  16.276  0.00  0.00    +0.000 HD
ENDROOT
BRANCH   8  11
ATOM     11  C   UNL     1       6.440   4.853  15.828  0.00  0.00    +0.000 A 
ATOM     12  C   UNL     1       5.145   4.367  15.859  0.00  0.00    +0.000 A 
ATOM     13  N   UNL     1       5.147   3.321  14.998  0.00  0.00    +0.000 N 
ATOM     14  C   UNL     1       5.876   3.736  13.917  0.00  0.00    +0.000 A 
ATOM     15  C   UNL     1       5.814   3.285  12.603  0.00  0.00    +0.000 A 
ATOM     16  C   UNL     1       6.659   3.904  11.696  0.00  0.00    +0.000 A 
ATOM     17  C   UNL     1       7.581   4.856  12.131  0.00  0.00    +0.000 A 
ATOM     18  C   UNL     1       7.686   5.231  13.490  0.00  0.00    +0.000 A 
ATOM     19  C   UNL     1       6.775   4.705  14.422  0.00  0.00    +0.000 A 
ATOM     20  H   UNL     1       4.975   2.350  15.227  0.00  0.00    +0.000 HD
ENDBRANCH   8  11
BRANCH   5  21
ATOM     21  C   UNL     1       9.222  10.438  19.271  0.00  0.00    +0.000 C 
BRANCH  21  22
ATOM     22  C   UNL     1      10.300  11.447  18.994  0.00  0.00    +0.000 A 
ATOM     23  C   UNL     1      10.435  12.064  17.738  0.00  0.00    +0.000 A 
ATOM     24  C   UNL     1      11.445  13.002  17.504  0.00  0.00    +0.000 A 
ATOM     25  C   UNL     1      12.333  13.340  18.532  0.00  0.00    +0.000 A 
ATOM     26  C   UNL     1      12.213  12.737  19.778  0.00  0.00    +0.000 A 
ATOM     27  C   UNL     1      11.208  11.793  20.013  0.00  0.00    +0.000 A 
ENDBRANCH  21  22
ENDBRANCH   5  21
TORSDOF 3
ENDMDL
MODEL 7
REMARK VINA RESULT:      -8.3      4.568      7.204
REMARK  Name = 
REMARK  3 active torsions:
REMARK  status: ('A' for Active; 'I' for Inactive)
REMARK    1  A    between atoms: N_5  and  C_6
REMARK    2  A    between atoms: C_6  and  C_7
REMARK    3  A    between atoms: C_15  and  C_16
REMARK                            x       y       z     vdW  Elec       q    Type
REMARK                         _______ _______ _______ _____ _____    ______ ____
ROOT
ATOM      1  O   UNL     1       2.955   3.832  19.015  0.00  0.00    +0.000 OA
ATOM      2  C   UNL     1       3.056   4.981  18.631  0.00  0.00    +0.000 C 
ATOM      3  N   UNL     1       2.408   6.083  19.129  0.00  0.00    +0.000 N 
ATOM      4  C   UNL     1       2.782   7.211  18.456  0.00  0.00    +0.000 C 
ATOM      5  N   UNL     1       2.318   8.387  18.649  0.00  0.00    +0.000 NA
ATOM      6  N   UNL     1       3.720   6.874  17.531  0.00  0.00    +0.000 N 
ATOM      7  C   UNL     1       3.959   5.522  17.529  0.00  0.00    +0.000 C 
ATOM      8  C   UNL     1       4.689   4.637  16.853  0.00  0.00    +0.000 C 
ATOM      9  H   UNL     1       1.743   6.021  19.886  0.00  0.00    +0.000 HD
ATOM     10  H   UNL     1       4.109   7.493  16.845  0.00  0.00    +0.000 HD
ENDROOT
BRANCH   8  11
ATOM     11  C   UNL     1       5.701   4.594  15.852  0.00  0.00    +0.000 A 
ATOM     12  C   UNL     1       6.995   4.885  16.244  0.00  0.00    +0.000 A 
ATOM     13  N   UNL     1       7.534   5.549  15.193  0.00  0.00    +0.000 N 
ATOM     14  C   UNL     1       7.111   4.877  14.078  0.00  0.00    +0.000 A 
ATOM     15  C   UNL     1       7.703   4.821  12.821  0.00  0.00    +0.000 A 
ATOM     16  C   UNL     1       7.067   4.037  11.872  0.00  0.00    +0.000 A 
ATOM     17  C   UNL     1       5.846   3.431  12.165  0.00  0.00    +0.000 A 
ATOM     18  C   UNL     1       5.219   3.579  13.423  0.00  0.00    +0.000 A 
ATOM     19  C   UNL     1       5.884   4.277  14.446  0.00  0.00    +0.000 A 
ATOM     20  H   UNL     1       7.862   6.507  15.187  0.00  0.00    +0.000 HD
ENDBRANCH   8  11
BRANCH   5  21
ATOM     21  C   UNL     1       1.234   8.656  19.638  0.00  0.00    +0.000 C 
BRANCH  21  22
ATOM     22  C   UNL     1       0.480   9.947  19.489  0.00  0.00    +0.000 A 
ATOM     23  C   UNL     1      -0.423  10.162  18.434  0.00  0.00    +0.000 A 
ATOM     24  C   UNL     1      -1.116  11.371  18.316  0.00  0.00    +0.000 A 
ATOM     25  C   UNL     1      -0.915  12.383  19.263  0.00  0.00    +0.000 A 
ATOM     26  C   UNL     1      -0.025  12.185  20.310  0.00  0.00    +0.000 A 
ATOM     27  C   UNL     1       0.674  10.979  20.427  0.00  0.00    +0.000 A 
ENDBRANCH  21  22
ENDBRANCH   5  21
TORSDOF 3
ENDMDL
MODEL 8
REMARK VINA RESULT:      -8.3      4.623      7.585
REMARK  Name = 
REMARK  3 active torsions:
REMARK  status: ('A' for Active; 'I' for Inactive)
REMARK    1  A    between atoms: N_5  and  C_6
REMARK    2  A    between atoms: C_6  and  C_7
REMARK    3  A    between atoms: C_15  and  C_16
REMARK                            x       y       z     vdW  Elec       q    Type
REMARK                         _______ _______ _______ _____ _____    ______ ____
ROOT
ATOM      1  O   UNL     1       3.355   4.870  19.835  0.00  0.00    +0.000 OA
ATOM      2  C   UNL     1       3.242   5.854  19.132  0.00  0.00    +0.000 C 
ATOM      3  N   UNL     1       2.458   6.956  19.365  0.00  0.00    +0.000 N 
ATOM      4  C   UNL     1       2.599   7.873  18.362  0.00  0.00    +0.000 C 
ATOM      5  N   UNL     1       1.964   8.978  18.263  0.00  0.00    +0.000 NA
ATOM      6  N   UNL     1       3.517   7.406  17.474  0.00  0.00    +0.000 N 
ATOM      7  C   UNL     1       3.972   6.161  17.829  0.00  0.00    +0.000 C 
ATOM      8  C   UNL     1       4.790   5.223  17.357  0.00  0.00    +0.000 C 
ATOM      9  H   UNL     1       1.862   7.031  20.176  0.00  0.00    +0.000 HD
ATOM     10  H   UNL     1       3.755   7.841  16.602  0.00  0.00    +0.000 HD
ENDROOT
BRANCH   8  11
ATOM     11  C   UNL     1       5.728   5.022  16.305  0.00  0.00    +0.000 A 
ATOM     12  C   UNL     1       7.063   5.245  16.592  0.00  0.00    +0.000 A 
ATOM     13  N   UNL     1       7.577   5.778  15.458  0.00  0.00    +0.000 N 
ATOM     14  C   UNL     1       7.035   5.053  14.432  0.00  0.00    +0.000 A 
ATOM     15  C   UNL     1       7.538   4.851  13.151  0.00  0.00    +0.000 A 
ATOM     16  C   UNL     1       6.787   4.044  12.312  0.00  0.00    +0.000 A 
ATOM     17  C   UNL     1       5.547   3.559  12.728  0.00  0.00    +0.000 A 
ATOM     18  C   UNL     1       5.017   3.855  14.004  0.00  0.00    +0.000 A 
ATOM     19  C   UNL     1       5.796   4.580  14.922  0.00  0.00    +0.000 A 
ATOM     20  H   UNL     1       7.972   6.705  15.351  0.00  0.00    +0.000 HD
ENDBRANCH   8  11
BRANCH   5  21
ATOM     21  C   UNL     1       0.917   9.379  19.248  0.00  0.00    +0.000 C 
BRANCH  21  22
ATOM     22  C   UNL     1      -0.272  10.125  18.713  0.00  0.00    +0.000 A 
ATOM     23  C   UNL     1      -0.792  11.257  19.364  0.00  0.00    +0.000 A 
ATOM     24  C   UNL     1      -1.899  11.937  18.847  0.00  0.00    +0.000 A 
ATOM     25  C   UNL     1      -2.499  11.492  17.662  0.00  0.00    +0.000 A 
ATOM     26  C   UNL     1      -1.997  10.373  17.010  0.00  0.00    +0.000 A 
ATOM     27  C   UNL     1      -0.894   9.687  17.528  0.00  0.00    +0.000 A 
ENDBRANCH  21  22
ENDBRANCH   5  21
TORSDOF 3
ENDMDL
MODEL 9
REMARK VINA RESULT:      -8.3      5.276      7.981
REMARK  Name = 
REMARK  3 active torsions:
REMARK  status: ('A' for Active; 'I' for Inactive)
REMARK    1  A    between atoms: N_5  and  C_6
REMARK    2  A    between atoms: C_6  and  C_7
REMARK    3  A    between atoms: C_15  and  C_16
REMARK                            x       y       z     vdW  Elec       q    Type
REMARK                         _______ _______ _______ _____ _____    ______ ____
ROOT
ATOM      1  O   UNL     1       1.467   7.127  21.482  0.00  0.00    +0.000 OA
ATOM      2  C   UNL     1       1.621   7.727  20.436  0.00  0.00    +0.000 C 
ATOM      3  N   UNL     1       1.054   8.923  20.074  0.00  0.00    +0.000 N 
ATOM      4  C   UNL     1       1.470   9.299  18.829  0.00  0.00    +0.000 C 
ATOM      5  N   UNL     1       1.080  10.336  18.190  0.00  0.00    +0.000 NA
ATOM      6  N   UNL     1       2.357   8.376  18.370  0.00  0.00    +0.000 N 
ATOM      7  C   UNL     1       2.518   7.348  19.264  0.00  0.00    +0.000 C 
ATOM      8  C   UNL     1       3.174   6.192  19.351  0.00  0.00    +0.000 C 
ATOM      9  H   UNL     1       0.410   9.418  20.674  0.00  0.00    +0.000 HD
ATOM     10  H   UNL     1       2.759   8.363  17.451  0.00  0.00    +0.000 HD
ENDROOT
BRANCH   8  11
ATOM     11  C   UNL     1       4.149   5.435  18.642  0.00  0.00    +0.000 A 
ATOM     12  C   UNL     1       4.538   4.226  19.191  0.00  0.00    +0.000 A 
ATOM     13  N   UNL     1       5.858   4.124  18.903  0.00  0.00    +0.000 N 
ATOM     14  C   UNL     1       5.987   4.554  17.611  0.00  0.00    +0.000 A 
ATOM     15  C   UNL     1       6.976   4.239  16.685  0.00  0.00    +0.000 A 
ATOM     16  C   UNL     1       6.847   4.804  15.426  0.00  0.00    +0.000 A 
ATOM     17  C   UNL     1       5.824   5.715  15.166  0.00  0.00    +0.000 A 
ATOM     18  C   UNL     1       4.885   6.089  16.154  0.00  0.00    +0.000 A 
ATOM     19  C   UNL     1       4.918   5.458  17.409  0.00  0.00    +0.000 A 
ATOM     20  H   UNL     1       6.621   4.090  19.569  0.00  0.00    +0.000 HD
ENDBRANCH   8  11
BRANCH   5  21
ATOM     21  C   UNL     1       0.045  11.260  18.740  0.00  0.00    +0.000 C 
BRANCH  21  22
ATOM     22  C   UNL     1      -1.375  11.028  18.310  0.00  0.00    +0.000 A 
ATOM     23  C   UNL     1      -2.445  11.756  18.857  0.00  0.00    +0.000 A 
ATOM     24  C   UNL     1      -3.760  11.524  18.439  0.00  0.00    +0.000 A 
ATOM     25  C   UNL     1      -4.018  10.558  17.459  0.00  0.00    +0.000 A 
ATOM     26  C   UNL     1      -2.971   9.830  16.911  0.00  0.00    +0.000 A 
ATOM     27  C   UNL     1      -1.656  10.055  17.331  0.00  0.00    +0.000 A 
ENDBRANCH  21  22
ENDBRANCH   5  21
TORSDOF 3
ENDMDL
