MODEL 1
REMARK VINA RESULT:      -7.5      0.000      0.000
REMARK  Name = 
REMARK  3 active torsions:
REMARK  status: ('A' for Active; 'I' for Inactive)
REMARK    1  A    between atoms: C_4  and  S_5
REMARK    2  A    between atoms: S_5  and  C_6
REMARK    3  A    between atoms: C_6  and  C_7
REMARK                            x       y       z     vdW  Elec       q    Type
REMARK                         _______ _______ _______ _____ _____    ______ ____
ROOT
ATOM      1  O   UNL     1       3.967   0.999  18.664  0.00  0.00    +0.000 OA
ATOM      2  C   UNL     1       3.815   2.182  18.385  0.00  0.00    +0.000 A 
ATOM      3  N   UNL     1       4.333   2.739  17.256  0.00  0.00    +0.000 N 
ATOM      4  C   UNL     1       4.182   4.057  16.967  0.00  0.00    +0.000 A 
ATOM      5  N   UNL     1       3.530   4.890  17.702  0.00  0.00    +0.000 NA
ATOM      6  C   UNL     1       2.943   4.388  18.842  0.00  0.00    +0.000 A 
ATOM      7  C   UNL     1       3.045   3.108  19.247  0.00  0.00    +0.000 A 
ATOM      8  C   UNL     1       2.425   2.558  20.500  0.00  0.00    +0.000 C 
ATOM      9  C   UNL     1       1.872   3.648  21.422  0.00  0.00    +0.000 C 
ATOM     10  C   UNL     1       1.161   4.733  20.622  0.00  0.00    +0.000 C 
ATOM     11  C   UNL     1       2.120   5.385  19.625  0.00  0.00    +0.000 C 
ATOM     12  H   UNL     1       4.854   2.146  16.629  0.00  0.00    +0.000 HD
ENDROOT
BRANCH   4  13
ATOM     13  S   UNL     1       4.951   4.506  15.477  0.00  0.00    +0.000 S 
BRANCH  13  14
ATOM     14  C   UNL     1       6.694   4.205  15.899  0.00  0.00    +0.000 C 
BRANCH  14  15
ATOM     15  C   UNL     1       7.202   5.209  16.911  0.00  0.00    +0.000 A 
ATOM     16  C   UNL     1       7.603   4.797  18.193  0.00  0.00    +0.000 A 
ATOM     17  C   UNL     1       8.045   5.730  19.135  0.00  0.00    +0.000 A 
ATOM     18  C   UNL     1       8.090   7.084  18.811  0.00  0.00    +0.000 A 
ATOM     19  C   UNL     1       7.698   7.507  17.542  0.00  0.00    +0.000 A 
ATOM     20  C   UNL     1       7.257   6.577  16.597  0.00  0.00    +0.000 A 
ENDBRANCH  14  15
ENDBRANCH  13  14
ENDBRANCH   4  13
TORSDOF 3
ENDMDL
MODEL 2
REMARK VINA RESULT:      -7.5      2.229      3.473
REMARK  Name = 
REMARK  3 active torsions:
REMARK  status: ('A' for Active; 'I' for Inactive)
REMARK    1  A    between atoms: C_4  and  S_5
REMARK    2  A    between atoms: S_5  and  C_6
REMARK    3  A    between atoms: C_6  and  C_7
REMARK                            x       y       z     vdW  Elec       q    Type
REMARK                         _______ _______ _______ _____ _____    ______ ____
ROOT
ATOM      1  O   UNL     1       5.085   1.972  20.759  0.00  0.00    +0.000 OA
ATOM      2  C   UNL     1       4.700   2.715  19.864  0.00  0.00    +0.000 A 
ATOM      3  N   UNL     1       5.553   3.297  18.978  0.00  0.00    +0.000 N 
ATOM      4  C   UNL     1       5.120   4.139  18.006  0.00  0.00    +0.000 A 
ATOM      5  N   UNL     1       3.885   4.449  17.813  0.00  0.00    +0.000 NA
ATOM      6  C   UNL     1       2.958   3.866  18.649  0.00  0.00    +0.000 A 
ATOM      7  C   UNL     1       3.268   3.037  19.663  0.00  0.00    +0.000 A 
ATOM      8  C   UNL     1       2.265   2.413  20.591  0.00  0.00    +0.000 C 
ATOM      9  C   UNL     1       0.861   3.008  20.442  0.00  0.00    +0.000 C 
ATOM     10  C   UNL     1       0.517   3.237  18.975  0.00  0.00    +0.000 C 
ATOM     11  C   UNL     1       1.518   4.195  18.329  0.00  0.00    +0.000 C 
ATOM     12  H   UNL     1       6.537   3.097  19.065  0.00  0.00    +0.000 HD
ENDROOT
BRANCH   4  13
ATOM     13  S   UNL     1       6.416   4.749  17.024  0.00  0.00    +0.000 S 
BRANCH  13  14
ATOM     14  C   UNL     1       5.482   5.378  15.596  0.00  0.00    +0.000 C 
BRANCH  14  15
ATOM     15  C   UNL     1       6.032   4.842  14.292  0.00  0.00    +0.000 A 
ATOM     16  C   UNL     1       5.322   3.881  13.555  0.00  0.00    +0.000 A 
ATOM     17  C   UNL     1       5.845   3.367  12.365  0.00  0.00    +0.000 A 
ATOM     18  C   UNL     1       7.083   3.805  11.899  0.00  0.00    +0.000 A 
ATOM     19  C   UNL     1       7.797   4.761  12.619  0.00  0.00    +0.000 A 
ATOM     20  C   UNL     1       7.276   5.277  13.808  0.00  0.00    +0.000 A 
ENDBRANCH  14  15
ENDBRANCH  13  14
ENDBRANCH   4  13
TORSDOF 3
ENDMDL
MODEL 3
REMARK VINA RESULT:      -7.4      2.405      3.820
REMARK  Name = 
REMARK  3 active torsions:
REMARK  status: ('A' for Active; 'I' for Inactive)
REMARK    1  A    between atoms: C_4  and  S_5
REMARK    2  A    between atoms: S_5  and  C_6
REMARK    3  A    between atoms: C_6  and  C_7
REMARK                            x       y       z     vdW  Elec       q    Type
REMARK                         _______ _______ _______ _____ _____    ______ ____
ROOT
ATOM      1  O   UNL     1       2.898   6.916  18.578  0.00  0.00    +0.000 OA
ATOM      2  C   UNL     1       3.556   5.892  18.723  0.00  0.00    +0.000 A 
ATOM      3  N   UNL     1       4.780   5.723  18.151  0.00  0.00    +0.000 N 
ATOM      4  C   UNL     1       5.491   4.576  18.295  0.00  0.00    +0.000 A 
ATOM      5  N   UNL     1       5.101   3.564  18.989  0.00  0.00    +0.000 NA
ATOM      6  C   UNL     1       3.887   3.679  19.631  0.00  0.00    +0.000 A 
ATOM      7  C   UNL     1       3.081   4.754  19.542  0.00  0.00    +0.000 A 
ATOM      8  C   UNL     1       1.748   4.878  20.223  0.00  0.00    +0.000 C 
ATOM      9  C   UNL     1       1.260   3.559  20.830  0.00  0.00    +0.000 C 
ATOM     10  C   UNL     1       2.404   2.812  21.505  0.00  0.00    +0.000 C 
ATOM     11  C   UNL     1       3.514   2.500  20.500  0.00  0.00    +0.000 C 
ATOM     12  H   UNL     1       5.152   6.476  17.595  0.00  0.00    +0.000 HD
ENDROOT
BRANCH   4  13
ATOM     13  S   UNL     1       7.008   4.621  17.453  0.00  0.00    +0.000 S 
BRANCH  13  14
ATOM     14  C   UNL     1       6.607   5.777  16.108  0.00  0.00    +0.000 C 
BRANCH  14  15
ATOM     15  C   UNL     1       6.558   5.076  14.768  0.00  0.00    +0.000 A 
ATOM     16  C   UNL     1       5.522   4.178  14.465  0.00  0.00    +0.000 A 
ATOM     17  C   UNL     1       5.494   3.510  13.237  0.00  0.00    +0.000 A 
ATOM     18  C   UNL     1       6.500   3.728  12.300  0.00  0.00    +0.000 A 
ATOM     19  C   UNL     1       7.534   4.620  12.585  0.00  0.00    +0.000 A 
ATOM     20  C   UNL     1       7.563   5.289  13.811  0.00  0.00    +0.000 A 
ENDBRANCH  14  15
ENDBRANCH  13  14
ENDBRANCH   4  13
TORSDOF 3
ENDMDL
MODEL 4
REMARK VINA RESULT:      -7.4      2.465      3.998
REMARK  Name = 
REMARK  3 active torsions:
REMARK  status: ('A' for Active; 'I' for Inactive)
REMARK    1  A    between atoms: C_4  and  S_5
REMARK    2  A    between atoms: S_5  and  C_6
REMARK    3  A    between atoms: C_6  and  C_7
REMARK                            x       y       z     vdW  Elec       q    Type
REMARK                         _______ _______ _______ _____ _____    ______ ____
ROOT
ATOM      1  O   UNL     1       2.144   6.819  20.008  0.00  0.00    +0.000 OA
ATOM      2  C   UNL     1       2.622   6.090  19.147  0.00  0.00    +0.000 A 
ATOM      3  N   UNL     1       3.563   6.521  18.264  0.00  0.00    +0.000 N 
ATOM      4  C   UNL     1       4.067   5.713  17.296  0.00  0.00    +0.000 A 
ATOM      5  N   UNL     1       3.731   4.480  17.133  0.00  0.00    +0.000 NA
ATOM      6  C   UNL     1       2.810   3.963  18.017  0.00  0.00    +0.000 A 
ATOM      7  C   UNL     1       2.221   4.671  19.000  0.00  0.00    +0.000 A 
ATOM      8  C   UNL     1       1.202   4.120  19.955  0.00  0.00    +0.000 C 
ATOM      9  C   UNL     1       0.693   2.733  19.552  0.00  0.00    +0.000 C 
ATOM     10  C   UNL     1       1.834   1.856  19.051  0.00  0.00    +0.000 C 
ATOM     11  C   UNL     1       2.512   2.493  17.838  0.00  0.00    +0.000 C 
ATOM     12  H   UNL     1       3.878   7.475  18.333  0.00  0.00    +0.000 HD
ENDROOT
BRANCH   4  13
ATOM     13  S   UNL     1       5.241   6.516  16.300  0.00  0.00    +0.000 S 
BRANCH  13  14
ATOM     14  C   UNL     1       6.478   5.196  16.117  0.00  0.00    +0.000 C 
BRANCH  14  15
ATOM     15  C   UNL     1       6.625   4.769  14.672  0.00  0.00    +0.000 A 
ATOM     16  C   UNL     1       7.628   5.320  13.859  0.00  0.00    +0.000 A 
ATOM     17  C   UNL     1       7.744   4.944  12.518  0.00  0.00    +0.000 A 
ATOM     18  C   UNL     1       6.859   4.016  11.973  0.00  0.00    +0.000 A 
ATOM     19  C   UNL     1       5.860   3.458  12.769  0.00  0.00    +0.000 A 
ATOM     20  C   UNL     1       5.743   3.831  14.111  0.00  0.00    +0.000 A 
ENDBRANCH  14  15
ENDBRANCH  13  14
ENDBRANCH   4  13
TORSDOF 3
ENDMDL
MODEL 5
REMARK VINA RESULT:      -7.4      2.483      3.952
REMARK  Name = 
REMARK  3 active torsions:
REMARK  status: ('A' for Active; 'I' for Inactive)
REMARK    1  A    between atoms: C_4  and  S_5
REMARK    2  A    between atoms: S_5  and  C_6
REMARK    3  A    between atoms: C_6  and  C_7
REMARK                            x       y       z     vdW  Elec       q    Type
REMARK                         _______ _______ _______ _____ _____    ______ ____
ROOT
ATOM      1  O   UNL     1       2.255   6.738  20.044  0.00  0.00    +0.000 OA
ATOM      2  C   UNL     1       2.701   6.022  19.155  0.00  0.00    +0.000 A 
ATOM      3  N   UNL     1       3.636   6.457  18.267  0.00  0.00    +0.000 N 
ATOM      4  C   UNL     1       4.106   5.665  17.269  0.00  0.00    +0.000 A 
ATOM      5  N   UNL     1       3.740   4.445  17.079  0.00  0.00    +0.000 NA
ATOM      6  C   UNL     1       2.823   3.924  17.965  0.00  0.00    +0.000 A 
ATOM      7  C   UNL     1       2.267   4.617  18.976  0.00  0.00    +0.000 A 
ATOM      8  C   UNL     1       1.252   4.062  19.934  0.00  0.00    +0.000 C 
ATOM      9  C   UNL     1       0.706   2.698  19.503  0.00  0.00    +0.000 C 
ATOM     10  C   UNL     1       1.819   1.810  18.959  0.00  0.00    +0.000 C 
ATOM     11  C   UNL     1       2.490   2.465  17.751  0.00  0.00    +0.000 C 
ATOM     12  H   UNL     1       3.974   7.402  18.357  0.00  0.00    +0.000 HD
ENDROOT
BRANCH   4  13
ATOM     13  S   UNL     1       5.280   6.470  16.275  0.00  0.00    +0.000 S 
BRANCH  13  14
ATOM     14  C   UNL     1       6.488   5.131  16.040  0.00  0.00    +0.000 C 
BRANCH  14  15
ATOM     15  C   UNL     1       6.627   4.757  14.581  0.00  0.00    +0.000 A 
ATOM     16  C   UNL     1       5.769   3.810  13.998  0.00  0.00    +0.000 A 
ATOM     17  C   UNL     1       5.917   3.446  12.657  0.00  0.00    +0.000 A 
ATOM     18  C   UNL     1       6.923   4.019  11.883  0.00  0.00    +0.000 A 
ATOM     19  C   UNL     1       7.780   4.964  12.447  0.00  0.00    +0.000 A 
ATOM     20  C   UNL     1       7.633   5.331  13.787  0.00  0.00    +0.000 A 
ENDBRANCH  14  15
ENDBRANCH  13  14
ENDBRANCH   4  13
TORSDOF 3
ENDMDL
MODEL 6
REMARK VINA RESULT:      -7.4      1.961      5.306
REMARK  Name = 
REMARK  3 active torsions:
REMARK  status: ('A' for Active; 'I' for Inactive)
REMARK    1  A    between atoms: C_4  and  S_5
REMARK    2  A    between atoms: S_5  and  C_6
REMARK    3  A    between atoms: C_6  and  C_7
REMARK                            x       y       z     vdW  Elec       q    Type
REMARK                         _______ _______ _______ _____ _____    ______ ____
ROOT
ATOM      1  O   UNL     1       5.544   4.160  15.019  0.00  0.00    +0.000 OA
ATOM      2  C   UNL     1       5.430   4.059  16.234  0.00  0.00    +0.000 A 
ATOM      3  N   UNL     1       4.607   3.144  16.817  0.00  0.00    +0.000 N 
ATOM      4  C   UNL     1       4.467   3.056  18.165  0.00  0.00    +0.000 A 
ATOM      5  N   UNL     1       5.099   3.795  19.009  0.00  0.00    +0.000 NA
ATOM      6  C   UNL     1       5.981   4.718  18.492  0.00  0.00    +0.000 A 
ATOM      7  C   UNL     1       6.186   4.917  17.176  0.00  0.00    +0.000 A 
ATOM      8  C   UNL     1       7.131   5.935  16.604  0.00  0.00    +0.000 C 
ATOM      9  C   UNL     1       7.661   6.916  17.654  0.00  0.00    +0.000 C 
ATOM     10  C   UNL     1       7.998   6.196  18.954  0.00  0.00    +0.000 C 
ATOM     11  C   UNL     1       6.759   5.501  19.523  0.00  0.00    +0.000 C 
ATOM     12  H   UNL     1       4.082   2.528  16.219  0.00  0.00    +0.000 HD
ENDROOT
BRANCH   4  13
ATOM     13  S   UNL     1       3.348   1.817  18.640  0.00  0.00    +0.000 S 
BRANCH  13  14
ATOM     14  C   UNL     1       1.770   2.696  18.429  0.00  0.00    +0.000 C 
BRANCH  14  15
ATOM     15  C   UNL     1       1.871   4.135  18.885  0.00  0.00    +0.000 A 
ATOM     16  C   UNL     1       2.113   5.165  17.963  0.00  0.00    +0.000 A 
ATOM     17  C   UNL     1       2.233   6.491  18.390  0.00  0.00    +0.000 A 
ATOM     18  C   UNL     1       2.115   6.803  19.743  0.00  0.00    +0.000 A 
ATOM     19  C   UNL     1       1.871   5.790  20.670  0.00  0.00    +0.000 A 
ATOM     20  C   UNL     1       1.749   4.465  20.245  0.00  0.00    +0.000 A 
ENDBRANCH  14  15
ENDBRANCH  13  14
ENDBRANCH   4  13
TORSDOF 3
ENDMDL
MODEL 7
REMARK VINA RESULT:      -7.3      1.577      2.226
REMARK  Name = 
REMARK  3 active torsions:
REMARK  status: ('A' for Active; 'I' for Inactive)
REMARK    1  A    between atoms: C_4  and  S_5
REMARK    2  A    between atoms: S_5  and  C_6
REMARK    3  A    between atoms: C_6  and  C_7
REMARK                            x       y       z     vdW  Elec       q    Type
REMARK                         _______ _______ _______ _____ _____    ______ ____
ROOT
ATOM      1  O   UNL     1       2.635   7.127  18.909  0.00  0.00    +0.000 OA
ATOM      2  C   UNL     1       3.019   6.014  18.569  0.00  0.00    +0.000 A 
ATOM      3  N   UNL     1       3.709   5.801  17.415  0.00  0.00    +0.000 N 
ATOM      4  C   UNL     1       4.108   4.560  17.033  0.00  0.00    +0.000 A 
ATOM      5  N   UNL     1       3.900   3.489  17.717  0.00  0.00    +0.000 NA
ATOM      6  C   UNL     1       3.241   3.635  18.918  0.00  0.00    +0.000 A 
ATOM      7  C   UNL     1       2.774   4.806  19.390  0.00  0.00    +0.000 A 
ATOM      8  C   UNL     1       2.037   4.969  20.688  0.00  0.00    +0.000 C 
ATOM      9  C   UNL     1       1.632   3.634  21.319  0.00  0.00    +0.000 C 
ATOM     10  C   UNL     1       2.752   2.607  21.191  0.00  0.00    +0.000 C 
ATOM     11  C   UNL     1       3.095   2.363  19.721  0.00  0.00    +0.000 C 
ATOM     12  H   UNL     1       3.913   6.594  16.829  0.00  0.00    +0.000 HD
ENDROOT
BRANCH   4  13
ATOM     13  S   UNL     1       4.956   4.569  15.518  0.00  0.00    +0.000 S 
BRANCH  13  14
ATOM     14  C   UNL     1       6.639   4.166  16.079  0.00  0.00    +0.000 C 
BRANCH  14  15
ATOM     15  C   UNL     1       7.177   5.218  17.025  0.00  0.00    +0.000 A 
ATOM     16  C   UNL     1       7.636   4.865  18.304  0.00  0.00    +0.000 A 
ATOM     17  C   UNL     1       8.106   5.842  19.186  0.00  0.00    +0.000 A 
ATOM     18  C   UNL     1       8.121   7.181  18.803  0.00  0.00    +0.000 A 
ATOM     19  C   UNL     1       7.672   7.545  17.535  0.00  0.00    +0.000 A 
ATOM     20  C   UNL     1       7.203   6.571  16.651  0.00  0.00    +0.000 A 
ENDBRANCH  14  15
ENDBRANCH  13  14
ENDBRANCH   4  13
TORSDOF 3
ENDMDL
MODEL 8
REMARK VINA RESULT:      -7.3      1.948      3.308
REMARK  Name = 
REMARK  3 active torsions:
REMARK  status: ('A' for Active; 'I' for Inactive)
REMARK    1  A    between atoms: C_4  and  S_5
REMARK    2  A    between atoms: S_5  and  C_6
REMARK    3  A    between atoms: C_6  and  C_7
REMARK                            x       y       z     vdW  Elec       q    Type
REMARK                         _______ _______ _______ _____ _____    ______ ____
ROOT
ATOM      1  O   UNL     1       3.360   1.339  17.843  0.00  0.00    +0.000 OA
ATOM      2  C   UNL     1       3.728   2.460  18.171  0.00  0.00    +0.000 A 
ATOM      3  N   UNL     1       4.853   3.037  17.666  0.00  0.00    +0.000 N 
ATOM      4  C   UNL     1       5.268   4.270  18.055  0.00  0.00    +0.000 A 
ATOM      5  N   UNL     1       4.644   5.010  18.905  0.00  0.00    +0.000 NA
ATOM      6  C   UNL     1       3.474   4.507  19.429  0.00  0.00    +0.000 A 
ATOM      7  C   UNL     1       2.975   3.290  19.141  0.00  0.00    +0.000 A 
ATOM      8  C   UNL     1       1.711   2.726  19.724  0.00  0.00    +0.000 C 
ATOM      9  C   UNL     1       1.162   3.561  20.883  0.00  0.00    +0.000 C 
ATOM     10  C   UNL     1       1.277   5.052  20.586  0.00  0.00    +0.000 C 
ATOM     11  C   UNL     1       2.736   5.446  20.355  0.00  0.00    +0.000 C 
ATOM     12  H   UNL     1       5.392   2.518  16.992  0.00  0.00    +0.000 HD
ENDROOT
BRANCH   4  13
ATOM     13  S   UNL     1       6.734   4.761  17.266  0.00  0.00    +0.000 S 
BRANCH  13  14
ATOM     14  C   UNL     1       6.058   5.706  15.868  0.00  0.00    +0.000 C 
BRANCH  14  15
ATOM     15  C   UNL     1       6.318   5.010  14.549  0.00  0.00    +0.000 A 
ATOM     16  C   UNL     1       7.452   5.326  13.783  0.00  0.00    +0.000 A 
ATOM     17  C   UNL     1       7.676   4.702  12.553  0.00  0.00    +0.000 A 
ATOM     18  C   UNL     1       6.770   3.759  12.071  0.00  0.00    +0.000 A 
ATOM     19  C   UNL     1       5.642   3.434  12.822  0.00  0.00    +0.000 A 
ATOM     20  C   UNL     1       5.417   4.055  14.054  0.00  0.00    +0.000 A 
ENDBRANCH  14  15
ENDBRANCH  13  14
ENDBRANCH   4  13
TORSDOF 3
ENDMDL
MODEL 9
REMARK VINA RESULT:      -7.3      2.332      3.809
REMARK  Name = 
REMARK  3 active torsions:
REMARK  status: ('A' for Active; 'I' for Inactive)
REMARK    1  A    between atoms: C_4  and  S_5
REMARK    2  A    between atoms: S_5  and  C_6
REMARK    3  A    between atoms: C_6  and  C_7
REMARK                            x       y       z     vdW  Elec       q    Type
REMARK                         _______ _______ _______ _____ _____    ______ ____
ROOT
ATOM      1  O   UNL     1       2.059   5.984  17.752  0.00  0.00    +0.000 OA
ATOM      2  C   UNL     1       2.933   5.233  18.170  0.00  0.00    +0.000 A 
ATOM      3  N   UNL     1       4.202   5.244  17.677  0.00  0.00    +0.000 N 
ATOM      4  C   UNL     1       5.158   4.391  18.127  0.00  0.00    +0.000 A 
ATOM      5  N   UNL     1       4.972   3.521  19.059  0.00  0.00    +0.000 NA
ATOM      6  C   UNL     1       3.721   3.480  19.633  0.00  0.00    +0.000 A 
ATOM      7  C   UNL     1       2.687   4.255  19.255  0.00  0.00    +0.000 A 
ATOM      8  C   UNL     1       1.314   4.202  19.862  0.00  0.00    +0.000 C 
ATOM      9  C   UNL     1       1.116   3.000  20.789  0.00  0.00    +0.000 C 
ATOM     10  C   UNL     1       2.350   2.764  21.651  0.00  0.00    +0.000 C 
ATOM     11  C   UNL     1       3.578   2.503  20.777  0.00  0.00    +0.000 C 
ATOM     12  H   UNL     1       4.423   5.902  16.947  0.00  0.00    +0.000 HD
ENDROOT
BRANCH   4  13
ATOM     13  S   UNL     1       6.680   4.608  17.321  0.00  0.00    +0.000 S 
BRANCH  13  14
ATOM     14  C   UNL     1       6.175   5.681  15.943  0.00  0.00    +0.000 C 
BRANCH  14  15
ATOM     15  C   UNL     1       6.397   5.009  14.605  0.00  0.00    +0.000 A 
ATOM     16  C   UNL     1       7.507   5.338  13.812  0.00  0.00    +0.000 A 
ATOM     17  C   UNL     1       7.695   4.736  12.565  0.00  0.00    +0.000 A 
ATOM     18  C   UNL     1       6.776   3.802  12.094  0.00  0.00    +0.000 A 
ATOM     19  C   UNL     1       5.670   3.462  12.872  0.00  0.00    +0.000 A 
ATOM     20  C   UNL     1       5.481   4.061  14.120  0.00  0.00    +0.000 A 
ENDBRANCH  14  15
ENDBRANCH  13  14
ENDBRANCH   4  13
TORSDOF 3
ENDMDL
