MODEL 1
REMARK VINA RESULT:      -7.1      0.000      0.000
REMARK  Name = 
REMARK  4 active torsions:
REMARK  status: ('A' for Active; 'I' for Inactive)
REMARK    1  A    between atoms: C_1  and  C_2
REMARK    2  A    between atoms: C_10  and  C_11
REMARK    3  A    between atoms: C_11  and  C_12
REMARK    4  A    between atoms: C_13  and  C_14
REMARK                            x       y       z     vdW  Elec       q    Type
REMARK                         _______ _______ _______ _____ _____    ______ ____
ROOT
ATOM      1  C   UNL     1      -6.064  13.257  19.268  0.00  0.00    +0.000 C 
ATOM      2  C   UNL     1      -6.970  13.295  17.964  0.00  0.00    +0.000 C 
ATOM      3  O   UNL     1      -7.440  12.395  17.283  0.00  0.00    +0.000 OA
ATOM      4  N   UNL     1      -7.298  14.615  17.694  0.00  0.00    +0.000 N 
ATOM      5  C   UNL     1      -6.673  15.476  18.564  0.00  0.00    +0.000 A 
ATOM      6  C   UNL     1      -6.815  16.852  18.561  0.00  0.00    +0.000 A 
ATOM      7  C   UNL     1      -6.056  17.583  19.470  0.00  0.00    +0.000 A 
ATOM      8  C   UNL     1      -5.116  16.932  20.273  0.00  0.00    +0.000 A 
ATOM      9  C   UNL     1      -4.976  15.531  20.225  0.00  0.00    +0.000 A 
ATOM     10  C   UNL     1      -5.830  14.774  19.430  0.00  0.00    +0.000 A 
ATOM     11  H   UNL     1      -7.895  14.877  16.923  0.00  0.00    +0.000 HD
ENDROOT
BRANCH   1  21
ATOM     12  C   UNL     1      -3.669  12.744  21.683  0.00  0.00    +0.000 C 
ATOM     13  C   UNL     1      -3.692  12.489  20.209  0.00  0.00    +0.000 A 
ATOM     14  N   UNL     1      -2.535  12.036  19.626  0.00  0.00    +0.000 N 
ATOM     15  C   UNL     1      -2.765  11.629  18.343  0.00  0.00    +0.000 A 
ATOM     16  C   UNL     1      -1.877  11.076  17.415  0.00  0.00    +0.000 A 
ATOM     17  C   UNL     1      -2.404  10.629  16.200  0.00  0.00    +0.000 A 
ATOM     18  C   UNL     1      -3.769  10.663  15.969  0.00  0.00    +0.000 A 
ATOM     19  C   UNL     1      -4.631  11.243  16.905  0.00  0.00    +0.000 A 
ATOM     20  C   UNL     1      -4.126  11.813  18.095  0.00  0.00    +0.000 A 
ATOM     21  C   UNL     1      -4.671  12.591  19.191  0.00  0.00    +0.000 A 
ATOM     22  H   UNL     1      -1.654  11.911  20.106  0.00  0.00    +0.000 HD
ENDBRANCH   1  21
BRANCH   1  23
ATOM     23  C   UNL     1      -6.898  12.678  20.426  0.00  0.00    +0.000 A 
ATOM     24  C   UNL     1      -7.207  11.318  20.582  0.00  0.00    +0.000 A 
ATOM     25  C   UNL     1      -6.996  10.117  19.727  0.00  0.00    +0.000 C 
ATOM     26  N   UNL     1      -7.722  11.137  21.837  0.00  0.00    +0.000 N 
ATOM     27  C   UNL     1      -7.648  12.301  22.550  0.00  0.00    +0.000 A 
ATOM     28  C   UNL     1      -7.796  12.521  23.921  0.00  0.00    +0.000 A 
ATOM     29  C   UNL     1      -7.687  13.831  24.382  0.00  0.00    +0.000 A 
ATOM     30  C   UNL     1      -7.580  14.887  23.488  0.00  0.00    +0.000 A 
ATOM     31  C   UNL     1      -7.468  14.639  22.118  0.00  0.00    +0.000 A 
ATOM     32  C   UNL     1      -7.367  13.317  21.638  0.00  0.00    +0.000 A 
ATOM     33  H   UNL     1      -7.998  10.243  22.221  0.00  0.00    +0.000 HD
ENDBRANCH   1  23
TORSDOF 2
ENDMDL
MODEL 2
REMARK VINA RESULT:      -7.0     12.599     15.848
REMARK  Name = 
REMARK  4 active torsions:
REMARK  status: ('A' for Active; 'I' for Inactive)
REMARK    1  A    between atoms: C_1  and  C_2
REMARK    2  A    between atoms: C_10  and  C_11
REMARK    3  A    between atoms: C_11  and  C_12
REMARK    4  A    between atoms: C_13  and  C_14
REMARK                            x       y       z     vdW  Elec       q    Type
REMARK                         _______ _______ _______ _____ _____    ______ ____
ROOT
ATOM      1  C   UNL     1      10.106  14.937  20.030  0.00  0.00    +0.000 C 
ATOM      2  C   UNL     1      11.640  15.316  19.869  0.00  0.00    +0.000 C 
ATOM      3  O   UNL     1      12.268  16.303  20.226  0.00  0.00    +0.000 OA
ATOM      4  N   UNL     1      12.301  14.240  19.296  0.00  0.00    +0.000 N 
ATOM      5  C   UNL     1      11.427  13.233  18.964  0.00  0.00    +0.000 A 
ATOM      6  C   UNL     1      11.786  12.025  18.393  0.00  0.00    +0.000 A 
ATOM      7  C   UNL     1      10.766  11.141  18.056  0.00  0.00    +0.000 A 
ATOM      8  C   UNL     1       9.431  11.528  18.204  0.00  0.00    +0.000 A 
ATOM      9  C   UNL     1       9.105  12.781  18.759  0.00  0.00    +0.000 A 
ATOM     10  C   UNL     1      10.111  13.614  19.237  0.00  0.00    +0.000 A 
ATOM     11  H   UNL     1      13.296  14.245  19.126  0.00  0.00    +0.000 HD
ENDROOT
BRANCH   1  21
ATOM     12  C   UNL     1      10.301  17.099  17.362  0.00  0.00    +0.000 C 
ATOM     13  C   UNL     1       9.207  16.786  18.334  0.00  0.00    +0.000 A 
ATOM     14  N   UNL     1       8.055  17.527  18.252  0.00  0.00    +0.000 N 
ATOM     15  C   UNL     1       7.073  16.984  19.031  0.00  0.00    +0.000 A 
ATOM     16  C   UNL     1       5.750  17.402  19.209  0.00  0.00    +0.000 A 
ATOM     17  C   UNL     1       4.911  16.588  19.975  0.00  0.00    +0.000 A 
ATOM     18  C   UNL     1       5.362  15.375  20.465  0.00  0.00    +0.000 A 
ATOM     19  C   UNL     1       6.696  14.993  20.292  0.00  0.00    +0.000 A 
ATOM     20  C   UNL     1       7.609  15.841  19.625  0.00  0.00    +0.000 A 
ATOM     21  C   UNL     1       9.039  15.849  19.382  0.00  0.00    +0.000 A 
ATOM     22  H   UNL     1       7.908  18.302  17.620  0.00  0.00    +0.000 HD
ENDBRANCH   1  21
BRANCH   1  23
ATOM     23  C   UNL     1       9.813  14.710  21.525  0.00  0.00    +0.000 A 
ATOM     24  C   UNL     1       9.782  15.724  22.494  0.00  0.00    +0.000 A 
ATOM     25  C   UNL     1      10.117  17.175  22.466  0.00  0.00    +0.000 C 
ATOM     26  N   UNL     1       9.238  15.206  23.639  0.00  0.00    +0.000 N 
ATOM     27  C   UNL     1       8.801  13.931  23.418  0.00  0.00    +0.000 A 
ATOM     28  C   UNL     1       7.958  13.128  24.191  0.00  0.00    +0.000 A 
ATOM     29  C   UNL     1       7.689  11.841  23.729  0.00  0.00    +0.000 A 
ATOM     30  C   UNL     1       8.353  11.335  22.622  0.00  0.00    +0.000 A 
ATOM     31  C   UNL     1       9.217  12.150  21.887  0.00  0.00    +0.000 A 
ATOM     32  C   UNL     1       9.350  13.518  22.206  0.00  0.00    +0.000 A 
ATOM     33  H   UNL     1       9.070  15.736  24.484  0.00  0.00    +0.000 HD
ENDBRANCH   1  23
TORSDOF 2
ENDMDL
MODEL 3
REMARK VINA RESULT:      -7.0      2.917      6.105
REMARK  Name = 
REMARK  4 active torsions:
REMARK  status: ('A' for Active; 'I' for Inactive)
REMARK    1  A    between atoms: C_1  and  C_2
REMARK    2  A    between atoms: C_10  and  C_11
REMARK    3  A    between atoms: C_11  and  C_12
REMARK    4  A    between atoms: C_13  and  C_14
REMARK                            x       y       z     vdW  Elec       q    Type
REMARK                         _______ _______ _______ _____ _____    ______ ____
ROOT
ATOM      1  C   UNL     1      -4.405  13.385  22.788  0.00  0.00    +0.000 C 
ATOM      2  C   UNL     1      -3.963  12.315  23.876  0.00  0.00    +0.000 C 
ATOM      3  O   UNL     1      -4.521  11.918  24.889  0.00  0.00    +0.000 OA
ATOM      4  N   UNL     1      -2.775  11.731  23.462  0.00  0.00    +0.000 N 
ATOM      5  C   UNL     1      -2.306  12.313  22.308  0.00  0.00    +0.000 A 
ATOM      6  C   UNL     1      -1.154  11.937  21.640  0.00  0.00    +0.000 A 
ATOM      7  C   UNL     1      -0.784  12.677  20.521  0.00  0.00    +0.000 A 
ATOM      8  C   UNL     1      -1.513  13.817  20.169  0.00  0.00    +0.000 A 
ATOM      9  C   UNL     1      -2.662  14.187  20.894  0.00  0.00    +0.000 A 
ATOM     10  C   UNL     1      -3.128  13.375  21.923  0.00  0.00    +0.000 A 
ATOM     11  H   UNL     1      -2.321  10.998  23.986  0.00  0.00    +0.000 HD
ENDROOT
BRANCH   1  21
ATOM     12  C   UNL     1      -2.988  15.234  25.319  0.00  0.00    +0.000 C 
ATOM     13  C   UNL     1      -4.084  15.526  24.342  0.00  0.00    +0.000 A 
ATOM     14  N   UNL     1      -4.752  16.717  24.477  0.00  0.00    +0.000 N 
ATOM     15  C   UNL     1      -5.551  16.950  23.394  0.00  0.00    +0.000 A 
ATOM     16  C   UNL     1      -6.369  18.050  23.115  0.00  0.00    +0.000 A 
ATOM     17  C   UNL     1      -6.992  18.094  21.865  0.00  0.00    +0.000 A 
ATOM     18  C   UNL     1      -6.738  17.118  20.916  0.00  0.00    +0.000 A 
ATOM     19  C   UNL     1      -5.934  16.018  21.230  0.00  0.00    +0.000 A 
ATOM     20  C   UNL     1      -5.378  15.875  22.522  0.00  0.00    +0.000 A 
ATOM     21  C   UNL     1      -4.639  14.848  23.231  0.00  0.00    +0.000 A 
ATOM     22  H   UNL     1      -4.596  17.389  25.216  0.00  0.00    +0.000 HD
ENDBRANCH   1  21
BRANCH   1  23
ATOM     23  C   UNL     1      -5.622  12.830  22.024  0.00  0.00    +0.000 A 
ATOM     24  C   UNL     1      -6.931  12.795  22.529  0.00  0.00    +0.000 A 
ATOM     25  C   UNL     1      -7.522  13.104  23.860  0.00  0.00    +0.000 C 
ATOM     26  N   UNL     1      -7.779  12.492  21.497  0.00  0.00    +0.000 N 
ATOM     27  C   UNL     1      -7.091  12.449  20.318  0.00  0.00    +0.000 A 
ATOM     28  C   UNL     1      -7.567  12.447  19.004  0.00  0.00    +0.000 A 
ATOM     29  C   UNL     1      -6.629  12.378  17.977  0.00  0.00    +0.000 A 
ATOM     30  C   UNL     1      -5.286  12.173  18.259  0.00  0.00    +0.000 A 
ATOM     31  C   UNL     1      -4.842  12.145  19.583  0.00  0.00    +0.000 A 
ATOM     32  C   UNL     1      -5.735  12.419  20.640  0.00  0.00    +0.000 A 
ATOM     33  H   UNL     1      -8.785  12.435  21.580  0.00  0.00    +0.000 HD
ENDBRANCH   1  23
TORSDOF 2
ENDMDL
MODEL 4
REMARK VINA RESULT:      -6.9     12.465     15.262
REMARK  Name = 
REMARK  4 active torsions:
REMARK  status: ('A' for Active; 'I' for Inactive)
REMARK    1  A    between atoms: C_1  and  C_2
REMARK    2  A    between atoms: C_10  and  C_11
REMARK    3  A    between atoms: C_11  and  C_12
REMARK    4  A    between atoms: C_13  and  C_14
REMARK                            x       y       z     vdW  Elec       q    Type
REMARK                         _______ _______ _______ _____ _____    ______ ____
ROOT
ATOM      1  C   UNL     1       8.962  14.323  19.370  0.00  0.00    +0.000 C 
ATOM      2  C   UNL     1       8.967  13.550  17.983  0.00  0.00    +0.000 C 
ATOM      3  O   UNL     1       9.820  12.853  17.452  0.00  0.00    +0.000 OA
ATOM      4  N   UNL     1       7.714  13.679  17.402  0.00  0.00    +0.000 N 
ATOM      5  C   UNL     1       6.899  14.499  18.145  0.00  0.00    +0.000 A 
ATOM      6  C   UNL     1       5.587  14.808  17.836  0.00  0.00    +0.000 A 
ATOM      7  C   UNL     1       4.923  15.711  18.660  0.00  0.00    +0.000 A 
ATOM      8  C   UNL     1       5.614  16.347  19.695  0.00  0.00    +0.000 A 
ATOM      9  C   UNL     1       6.961  16.031  19.959  0.00  0.00    +0.000 A 
ATOM     10  C   UNL     1       7.593  15.023  19.239  0.00  0.00    +0.000 A 
ATOM     11  H   UNL     1       7.478  13.241  16.525  0.00  0.00    +0.000 HD
ENDROOT
BRANCH   1  21
ATOM     12  C   UNL     1      10.569  16.431  17.178  0.00  0.00    +0.000 C 
ATOM     13  C   UNL     1      10.705  16.207  18.652  0.00  0.00    +0.000 A 
ATOM     14  N   UNL     1      11.702  16.885  19.307  0.00  0.00    +0.000 N 
ATOM     15  C   UNL     1      11.560  16.767  20.660  0.00  0.00    +0.000 A 
ATOM     16  C   UNL     1      12.333  17.324  21.685  0.00  0.00    +0.000 A 
ATOM     17  C   UNL     1      11.893  17.144  22.999  0.00  0.00    +0.000 A 
ATOM     18  C   UNL     1      10.692  16.507  23.259  0.00  0.00    +0.000 A 
ATOM     19  C   UNL     1       9.951  15.940  22.217  0.00  0.00    +0.000 A 
ATOM     20  C   UNL     1      10.420  15.997  20.885  0.00  0.00    +0.000 A 
ATOM     21  C   UNL     1      10.015  15.430  19.613  0.00  0.00    +0.000 A 
ATOM     22  H   UNL     1      12.384  17.484  18.863  0.00  0.00    +0.000 HD
ENDBRANCH   1  21
BRANCH   1  23
ATOM     23  C   UNL     1       8.970  13.285  20.508  0.00  0.00    +0.000 A 
ATOM     24  C   UNL     1      10.025  12.397  20.769  0.00  0.00    +0.000 A 
ATOM     25  C   UNL     1      11.290  12.074  20.053  0.00  0.00    +0.000 C 
ATOM     26  N   UNL     1       9.806  11.820  21.991  0.00  0.00    +0.000 N 
ATOM     27  C   UNL     1       8.717  12.386  22.592  0.00  0.00    +0.000 A 
ATOM     28  C   UNL     1       8.289  12.312  23.920  0.00  0.00    +0.000 A 
ATOM     29  C   UNL     1       7.115  12.981  24.259  0.00  0.00    +0.000 A 
ATOM     30  C   UNL     1       6.332  13.573  23.279  0.00  0.00    +0.000 A 
ATOM     31  C   UNL     1       6.768  13.603  21.953  0.00  0.00    +0.000 A 
ATOM     32  C   UNL     1       8.048  13.117  21.612  0.00  0.00    +0.000 A 
ATOM     33  H   UNL     1      10.433  11.163  22.436  0.00  0.00    +0.000 HD
ENDBRANCH   1  23
TORSDOF 2
ENDMDL
MODEL 5
REMARK VINA RESULT:      -6.9      3.990      7.208
REMARK  Name = 
REMARK  4 active torsions:
REMARK  status: ('A' for Active; 'I' for Inactive)
REMARK    1  A    between atoms: C_1  and  C_2
REMARK    2  A    between atoms: C_10  and  C_11
REMARK    3  A    between atoms: C_11  and  C_12
REMARK    4  A    between atoms: C_13  and  C_14
REMARK                            x       y       z     vdW  Elec       q    Type
REMARK                         _______ _______ _______ _____ _____    ______ ____
ROOT
ATOM      1  C   UNL     1      -0.611  12.739  20.875  0.00  0.00    +0.000 C 
ATOM      2  C   UNL     1      -0.539  13.356  22.337  0.00  0.00    +0.000 C 
ATOM      3  O   UNL     1      -1.043  12.993  23.390  0.00  0.00    +0.000 OA
ATOM      4  N   UNL     1       0.341  14.428  22.319  0.00  0.00    +0.000 N 
ATOM      5  C   UNL     1       0.798  14.681  21.048  0.00  0.00    +0.000 A 
ATOM      6  C   UNL     1       1.701  15.673  20.711  0.00  0.00    +0.000 A 
ATOM      7  C   UNL     1       2.007  15.839  19.363  0.00  0.00    +0.000 A 
ATOM      8  C   UNL     1       1.334  15.084  18.399  0.00  0.00    +0.000 A 
ATOM      9  C   UNL     1       0.397  14.105  18.780  0.00  0.00    +0.000 A 
ATOM     10  C   UNL     1       0.189  13.826  20.126  0.00  0.00    +0.000 A 
ATOM     11  H   UNL     1       0.566  14.956  23.149  0.00  0.00    +0.000 HD
ENDROOT
BRANCH   1  21
ATOM     12  C   UNL     1      -3.455  14.651  21.174  0.00  0.00    +0.000 C 
ATOM     13  C   UNL     1      -3.151  13.400  20.410  0.00  0.00    +0.000 A 
ATOM     14  N   UNL     1      -4.186  12.800  19.739  0.00  0.00    +0.000 N 
ATOM     15  C   UNL     1      -3.722  11.819  18.909  0.00  0.00    +0.000 A 
ATOM     16  C   UNL     1      -4.430  10.992  18.031  0.00  0.00    +0.000 A 
ATOM     17  C   UNL     1      -3.691  10.147  17.198  0.00  0.00    +0.000 A 
ATOM     18  C   UNL     1      -2.307  10.195  17.195  0.00  0.00    +0.000 A 
ATOM     19  C   UNL     1      -1.625  11.015  18.100  0.00  0.00    +0.000 A 
ATOM     20  C   UNL     1      -2.333  11.798  19.040  0.00  0.00    +0.000 A 
ATOM     21  C   UNL     1      -1.986  12.629  20.176  0.00  0.00    +0.000 A 
ATOM     22  H   UNL     1      -5.149  13.108  19.762  0.00  0.00    +0.000 HD
ENDBRANCH   1  21
BRANCH   1  23
ATOM     23  C   UNL     1       0.124  11.385  20.879  0.00  0.00    +0.000 A 
ATOM     24  C   UNL     1      -0.125  10.347  21.790  0.00  0.00    +0.000 A 
ATOM     25  C   UNL     1      -0.971  10.239  23.011  0.00  0.00    +0.000 C 
ATOM     26  N   UNL     1       0.507   9.221  21.338  0.00  0.00    +0.000 N 
ATOM     27  C   UNL     1       1.056   9.449  20.107  0.00  0.00    +0.000 A 
ATOM     28  C   UNL     1       1.547   8.542  19.165  0.00  0.00    +0.000 A 
ATOM     29  C   UNL     1       2.075   9.059  17.984  0.00  0.00    +0.000 A 
ATOM     30  C   UNL     1       2.235  10.427  17.822  0.00  0.00    +0.000 A 
ATOM     31  C   UNL     1       1.765  11.311  18.796  0.00  0.00    +0.000 A 
ATOM     32  C   UNL     1       1.040  10.828  19.906  0.00  0.00    +0.000 A 
ATOM     33  H   UNL     1       0.464   8.317  21.791  0.00  0.00    +0.000 HD
ENDBRANCH   1  23
TORSDOF 2
ENDMDL
MODEL 6
REMARK VINA RESULT:      -6.8      3.631      6.953
REMARK  Name = 
REMARK  4 active torsions:
REMARK  status: ('A' for Active; 'I' for Inactive)
REMARK    1  A    between atoms: C_1  and  C_2
REMARK    2  A    between atoms: C_10  and  C_11
REMARK    3  A    between atoms: C_11  and  C_12
REMARK    4  A    between atoms: C_13  and  C_14
REMARK                            x       y       z     vdW  Elec       q    Type
REMARK                         _______ _______ _______ _____ _____    ______ ____
ROOT
ATOM      1  C   UNL     1      -1.901  12.580  21.669  0.00  0.00    +0.000 C 
ATOM      2  C   UNL     1      -2.620  12.076  22.993  0.00  0.00    +0.000 C 
ATOM      3  O   UNL     1      -3.627  12.470  23.564  0.00  0.00    +0.000 OA
ATOM      4  N   UNL     1      -1.965  10.939  23.444  0.00  0.00    +0.000 N 
ATOM      5  C   UNL     1      -0.861  10.658  22.676  0.00  0.00    +0.000 A 
ATOM      6  C   UNL     1      -0.015   9.580  22.863  0.00  0.00    +0.000 A 
ATOM      7  C   UNL     1       1.100   9.480  22.036  0.00  0.00    +0.000 A 
ATOM      8  C   UNL     1       1.385  10.503  21.127  0.00  0.00    +0.000 A 
ATOM      9  C   UNL     1       0.517  11.603  20.988  0.00  0.00    +0.000 A 
ATOM     10  C   UNL     1      -0.676  11.642  21.701  0.00  0.00    +0.000 A 
ATOM     11  H   UNL     1      -2.269  10.428  24.259  0.00  0.00    +0.000 HD
ENDROOT
BRANCH   1  21
ATOM     12  C   UNL     1      -1.168  14.809  24.184  0.00  0.00    +0.000 C 
ATOM     13  C   UNL     1      -1.162  14.927  22.692  0.00  0.00    +0.000 A 
ATOM     14  N   UNL     1      -0.899  16.162  22.156  0.00  0.00    +0.000 N 
ATOM     15  C   UNL     1      -0.697  16.072  20.808  0.00  0.00    +0.000 A 
ATOM     16  C   UNL     1      -0.375  17.077  19.890  0.00  0.00    +0.000 A 
ATOM     17  C   UNL     1      -0.100  16.691  18.575  0.00  0.00    +0.000 A 
ATOM     18  C   UNL     1      -0.072  15.351  18.226  0.00  0.00    +0.000 A 
ATOM     19  C   UNL     1      -0.422  14.369  19.158  0.00  0.00    +0.000 A 
ATOM     20  C   UNL     1      -0.820  14.725  20.467  0.00  0.00    +0.000 A 
ATOM     21  C   UNL     1      -1.361  14.028  21.617  0.00  0.00    +0.000 A 
ATOM     22  H   UNL     1      -0.760  17.009  22.690  0.00  0.00    +0.000 HD
ENDBRANCH   1  21
BRANCH   1  23
ATOM     23  C   UNL     1      -2.821  12.283  20.470  0.00  0.00    +0.000 A 
ATOM     24  C   UNL     1      -4.008  12.977  20.186  0.00  0.00    +0.000 A 
ATOM     25  C   UNL     1      -4.784  14.016  20.916  0.00  0.00    +0.000 C 
ATOM     26  N   UNL     1      -4.413  12.630  18.925  0.00  0.00    +0.000 N 
ATOM     27  C   UNL     1      -3.476  11.834  18.329  0.00  0.00    +0.000 A 
ATOM     28  C   UNL     1      -3.333  11.472  16.988  0.00  0.00    +0.000 A 
ATOM     29  C   UNL     1      -2.281  10.620  16.657  0.00  0.00    +0.000 A 
ATOM     30  C   UNL     1      -1.501  10.043  17.648  0.00  0.00    +0.000 A 
ATOM     31  C   UNL     1      -1.689  10.398  18.986  0.00  0.00    +0.000 A 
ATOM     32  C   UNL     1      -2.606  11.413  19.333  0.00  0.00    +0.000 A 
ATOM     33  H   UNL     1      -5.226  13.013  18.459  0.00  0.00    +0.000 HD
ENDBRANCH   1  23
TORSDOF 2
ENDMDL
MODEL 7
REMARK VINA RESULT:      -6.8      1.582      5.242
REMARK  Name = 
REMARK  4 active torsions:
REMARK  status: ('A' for Active; 'I' for Inactive)
REMARK    1  A    between atoms: C_1  and  C_2
REMARK    2  A    between atoms: C_10  and  C_11
REMARK    3  A    between atoms: C_11  and  C_12
REMARK    4  A    between atoms: C_13  and  C_14
REMARK                            x       y       z     vdW  Elec       q    Type
REMARK                         _______ _______ _______ _____ _____    ______ ____
ROOT
ATOM      1  C   UNL     1      -5.696  13.450  20.040  0.00  0.00    +0.000 C 
ATOM      2  C   UNL     1      -5.390  14.883  20.653  0.00  0.00    +0.000 C 
ATOM      3  O   UNL     1      -4.854  15.214  21.701  0.00  0.00    +0.000 OA
ATOM      4  N   UNL     1      -5.750  15.846  19.722  0.00  0.00    +0.000 N 
ATOM      5  C   UNL     1      -6.337  15.280  18.616  0.00  0.00    +0.000 A 
ATOM      6  C   UNL     1      -6.786  15.977  17.509  0.00  0.00    +0.000 A 
ATOM      7  C   UNL     1      -7.419  15.256  16.502  0.00  0.00    +0.000 A 
ATOM      8  C   UNL     1      -7.671  13.892  16.676  0.00  0.00    +0.000 A 
ATOM      9  C   UNL     1      -7.227  13.222  17.833  0.00  0.00    +0.000 A 
ATOM     10  C   UNL     1      -6.464  13.898  18.779  0.00  0.00    +0.000 A 
ATOM     11  H   UNL     1      -5.617  16.833  19.886  0.00  0.00    +0.000 HD
ENDROOT
BRANCH   1  21
ATOM     12  C   UNL     1      -7.917  14.029  22.602  0.00  0.00    +0.000 C 
ATOM     13  C   UNL     1      -7.454  12.776  21.926  0.00  0.00    +0.000 A 
ATOM     14  N   UNL     1      -7.905  11.581  22.428  0.00  0.00    +0.000 N 
ATOM     15  C   UNL     1      -7.598  10.553  21.583  0.00  0.00    +0.000 A 
ATOM     16  C   UNL     1      -7.897   9.192  21.697  0.00  0.00    +0.000 A 
ATOM     17  C   UNL     1      -7.570   8.364  20.620  0.00  0.00    +0.000 A 
ATOM     18  C   UNL     1      -7.042   8.897  19.456  0.00  0.00    +0.000 A 
ATOM     19  C   UNL     1      -6.732  10.258  19.379  0.00  0.00    +0.000 A 
ATOM     20  C   UNL     1      -6.938  11.110  20.487  0.00  0.00    +0.000 A 
ATOM     21  C   UNL     1      -6.624  12.487  20.817  0.00  0.00    +0.000 A 
ATOM     22  H   UNL     1      -8.482  11.479  23.251  0.00  0.00    +0.000 HD
ENDBRANCH   1  21
BRANCH   1  23
ATOM     23  C   UNL     1      -4.357  12.774  19.688  0.00  0.00    +0.000 A 
ATOM     24  C   UNL     1      -3.316  12.546  20.600  0.00  0.00    +0.000 A 
ATOM     25  C   UNL     1      -3.091  12.948  22.016  0.00  0.00    +0.000 C 
ATOM     26  N   UNL     1      -2.411  11.703  20.014  0.00  0.00    +0.000 N 
ATOM     27  C   UNL     1      -2.880  11.273  18.804  0.00  0.00    +0.000 A 
ATOM     28  C   UNL     1      -2.440  10.222  17.996  0.00  0.00    +0.000 A 
ATOM     29  C   UNL     1      -3.100  10.017  16.786  0.00  0.00    +0.000 A 
ATOM     30  C   UNL     1      -4.059  10.916  16.344  0.00  0.00    +0.000 A 
ATOM     31  C   UNL     1      -4.456  11.979  17.159  0.00  0.00    +0.000 A 
ATOM     32  C   UNL     1      -3.957  12.094  18.473  0.00  0.00    +0.000 A 
ATOM     33  H   UNL     1      -1.578  11.350  20.467  0.00  0.00    +0.000 HD
ENDBRANCH   1  23
TORSDOF 2
ENDMDL
MODEL 8
REMARK VINA RESULT:      -6.7      4.868      7.307
REMARK  Name = 
REMARK  4 active torsions:
REMARK  status: ('A' for Active; 'I' for Inactive)
REMARK    1  A    between atoms: C_1  and  C_2
REMARK    2  A    between atoms: C_10  and  C_11
REMARK    3  A    between atoms: C_11  and  C_12
REMARK    4  A    between atoms: C_13  and  C_14
REMARK                            x       y       z     vdW  Elec       q    Type
REMARK                         _______ _______ _______ _____ _____    ______ ____
ROOT
ATOM      1  C   UNL     1       0.099  14.437  20.757  0.00  0.00    +0.000 C 
ATOM      2  C   UNL     1       1.637  14.045  20.790  0.00  0.00    +0.000 C 
ATOM      3  O   UNL     1       2.621  14.671  21.157  0.00  0.00    +0.000 OA
ATOM      4  N   UNL     1       1.762  12.718  20.405  0.00  0.00    +0.000 N 
ATOM      5  C   UNL     1       0.550  12.189  20.029  0.00  0.00    +0.000 A 
ATOM      6  C   UNL     1       0.347  10.886  19.612  0.00  0.00    +0.000 A 
ATOM      7  C   UNL     1      -0.934  10.531  19.200  0.00  0.00    +0.000 A 
ATOM      8  C   UNL     1      -1.935  11.503  19.123  0.00  0.00    +0.000 A 
ATOM      9  C   UNL     1      -1.681  12.829  19.525  0.00  0.00    +0.000 A 
ATOM     10  C   UNL     1      -0.449  13.164  20.078  0.00  0.00    +0.000 A 
ATOM     11  H   UNL     1       2.652  12.244  20.381  0.00  0.00    +0.000 HD
ENDROOT
BRANCH   1  21
ATOM     12  C   UNL     1      -2.801  16.288  20.785  0.00  0.00    +0.000 C 
ATOM     13  C   UNL     1      -1.597  16.304  19.895  0.00  0.00    +0.000 A 
ATOM     14  N   UNL     1      -1.623  17.143  18.810  0.00  0.00    +0.000 N 
ATOM     15  C   UNL     1      -0.388  17.226  18.232  0.00  0.00    +0.000 A 
ATOM     16  C   UNL     1       0.029  17.987  17.135  0.00  0.00    +0.000 A 
ATOM     17  C   UNL     1       1.391  17.983  16.823  0.00  0.00    +0.000 A 
ATOM     18  C   UNL     1       2.296  17.311  17.627  0.00  0.00    +0.000 A 
ATOM     19  C   UNL     1       1.849  16.540  18.704  0.00  0.00    +0.000 A 
ATOM     20  C   UNL     1       0.469  16.422  18.984  0.00  0.00    +0.000 A 
ATOM     21  C   UNL     1      -0.348  15.639  19.892  0.00  0.00    +0.000 A 
ATOM     22  H   UNL     1      -2.411  17.712  18.535  0.00  0.00    +0.000 HD
ENDBRANCH   1  21
BRANCH   1  23
ATOM     23  C   UNL     1      -0.402  14.575  22.207  0.00  0.00    +0.000 A 
ATOM     24  C   UNL     1      -0.143  15.677  23.037  0.00  0.00    +0.000 A 
ATOM     25  C   UNL     1       0.714  16.887  22.893  0.00  0.00    +0.000 C 
ATOM     26  N   UNL     1      -0.951  15.582  24.138  0.00  0.00    +0.000 N 
ATOM     27  C   UNL     1      -1.813  14.530  24.002  0.00  0.00    +0.000 A 
ATOM     28  C   UNL     1      -2.967  14.220  24.726  0.00  0.00    +0.000 A 
ATOM     29  C   UNL     1      -3.654  13.058  24.380  0.00  0.00    +0.000 A 
ATOM     30  C   UNL     1      -3.125  12.175  23.450  0.00  0.00    +0.000 A 
ATOM     31  C   UNL     1      -1.950  12.495  22.765  0.00  0.00    +0.000 A 
ATOM     32  C   UNL     1      -1.344  13.757  22.942  0.00  0.00    +0.000 A 
ATOM     33  H   UNL     1      -0.989  16.266  24.882  0.00  0.00    +0.000 HD
ENDBRANCH   1  23
TORSDOF 2
ENDMDL
MODEL 9
REMARK VINA RESULT:      -6.6     11.864     15.079
REMARK  Name = 
REMARK  4 active torsions:
REMARK  status: ('A' for Active; 'I' for Inactive)
REMARK    1  A    between atoms: C_1  and  C_2
REMARK    2  A    between atoms: C_10  and  C_11
REMARK    3  A    between atoms: C_11  and  C_12
REMARK    4  A    between atoms: C_13  and  C_14
REMARK                            x       y       z     vdW  Elec       q    Type
REMARK                         _______ _______ _______ _____ _____    ______ ____
ROOT
ATOM      1  C   UNL     1       8.211  15.896  19.815  0.00  0.00    +0.000 C 
ATOM      2  C   UNL     1       8.069  17.093  20.849  0.00  0.00    +0.000 C 
ATOM      3  O   UNL     1       7.384  17.211  21.856  0.00  0.00    +0.000 OA
ATOM      4  N   UNL     1       8.985  18.078  20.512  0.00  0.00    +0.000 N 
ATOM      5  C   UNL     1       9.655  17.764  19.354  0.00  0.00    +0.000 A 
ATOM      6  C   UNL     1      10.643  18.538  18.772  0.00  0.00    +0.000 A 
ATOM      7  C   UNL     1      11.172  18.108  17.559  0.00  0.00    +0.000 A 
ATOM      8  C   UNL     1      10.635  16.984  16.925  0.00  0.00    +0.000 A 
ATOM      9  C   UNL     1       9.606  16.239  17.533  0.00  0.00    +0.000 A 
ATOM     10  C   UNL     1       9.169  16.572  18.811  0.00  0.00    +0.000 A 
ATOM     11  H   UNL     1       9.093  18.923  21.052  0.00  0.00    +0.000 HD
ENDROOT
BRANCH   1  21
ATOM     12  C   UNL     1       7.749  13.272  17.639  0.00  0.00    +0.000 C 
ATOM     13  C   UNL     1       6.865  14.402  18.066  0.00  0.00    +0.000 A 
ATOM     14  N   UNL     1       5.645  14.521  17.448  0.00  0.00    +0.000 N 
ATOM     15  C   UNL     1       4.863  15.437  18.091  0.00  0.00    +0.000 A 
ATOM     16  C   UNL     1       3.551  15.834  17.813  0.00  0.00    +0.000 A 
ATOM     17  C   UNL     1       2.935  16.710  18.712  0.00  0.00    +0.000 A 
ATOM     18  C   UNL     1       3.581  17.098  19.873  0.00  0.00    +0.000 A 
ATOM     19  C   UNL     1       4.901  16.704  20.113  0.00  0.00    +0.000 A 
ATOM     20  C   UNL     1       5.602  15.915  19.174  0.00  0.00    +0.000 A 
ATOM     21  C   UNL     1       6.965  15.446  19.017  0.00  0.00    +0.000 A 
ATOM     22  H   UNL     1       5.319  13.936  16.691  0.00  0.00    +0.000 HD
ENDBRANCH   1  21
BRANCH   1  23
ATOM     23  C   UNL     1       8.876  14.706  20.532  0.00  0.00    +0.000 A 
ATOM     24  C   UNL     1       8.217  13.843  21.421  0.00  0.00    +0.000 A 
ATOM     25  C   UNL     1       6.857  13.845  22.029  0.00  0.00    +0.000 C 
ATOM     26  N   UNL     1       9.029  12.766  21.653  0.00  0.00    +0.000 N 
ATOM     27  C   UNL     1      10.138  12.831  20.856  0.00  0.00    +0.000 A 
ATOM     28  C   UNL     1      11.082  11.846  20.557  0.00  0.00    +0.000 A 
ATOM     29  C   UNL     1      12.138  12.197  19.717  0.00  0.00    +0.000 A 
ATOM     30  C   UNL     1      12.315  13.513  19.318  0.00  0.00    +0.000 A 
ATOM     31  C   UNL     1      11.372  14.485  19.661  0.00  0.00    +0.000 A 
ATOM     32  C   UNL     1      10.186  14.122  20.334  0.00  0.00    +0.000 A 
ATOM     33  H   UNL     1       8.782  11.975  22.234  0.00  0.00    +0.000 HD
ENDBRANCH   1  23
TORSDOF 2
ENDMDL
