MODEL 1
REMARK VINA RESULT:      -7.5      0.000      0.000
REMARK  Name = 
REMARK  4 active torsions:
REMARK  status: ('A' for Active; 'I' for Inactive)
REMARK    1  A    between atoms: C_2  and  O_3
REMARK    2  A    between atoms: C_2  and  C_4
REMARK    3  A    between atoms: C_4  and  C_5
REMARK    4  A    between atoms: C_11  and  O_12
REMARK                            x       y       z     vdW  Elec       q    Type
REMARK                         _______ _______ _______ _____ _____    ______ ____
ROOT
ATOM      1  C   UNL     1       2.286   3.905  19.093  0.00  0.00    +0.000 A 
ATOM      2  C   UNL     1       1.653   4.150  20.319  0.00  0.00    +0.000 A 
ATOM      3  C   UNL     1       1.538   5.455  20.805  0.00  0.00    +0.000 A 
ATOM      4  C   UNL     1       2.049   6.523  20.065  0.00  0.00    +0.000 A 
ATOM      5  C   UNL     1       2.732   6.297  18.867  0.00  0.00    +0.000 A 
ATOM      6  C   UNL     1       2.828   4.986  18.380  0.00  0.00    +0.000 A 
ATOM      7  C   UNL     1       3.318   7.486  18.149  0.00  0.00    +0.000 C 
ATOM      8  C   UNL     1       2.188   8.354  17.589  0.00  0.00    +0.000 C 
ATOM      9  C   UNL     1       1.288   9.032  18.595  0.00  0.00    +0.000 A 
ATOM     10  C   UNL     1       0.453  10.052  18.097  0.00  0.00    +0.000 A 
ATOM     11  C   UNL     1      -0.370  10.780  18.949  0.00  0.00    +0.000 A 
ATOM     12  F   UNL     1      -1.139  11.755  18.448  0.00  0.00    +0.000 F 
ATOM     13  C   UNL     1      -0.390  10.519  20.309  0.00  0.00    +0.000 A 
ATOM     14  C   UNL     1       0.410   9.496  20.817  0.00  0.00    +0.000 A 
ATOM     15  C   UNL     1       1.227   8.732  19.966  0.00  0.00    +0.000 A 
ATOM     16  O   UNL     1       1.979   7.779  20.622  0.00  0.00    +0.000 OA
ENDROOT
BRANCH   7  17
ATOM     17  O   UNL     1       4.196   7.081  17.099  0.00  0.00    +0.000 OA
ATOM     18  H   UNL     1       5.087   6.973  17.476  0.00  0.00    +0.000 HD
ENDBRANCH   7  17
BRANCH   1  19
ATOM     19  C   UNL     1       2.431   2.497  18.559  0.00  0.00    +0.000 C 
BRANCH  19  21
ATOM     20  O   UNL     1       4.445   2.142  19.837  0.00  0.00    +0.000 OA
ATOM     21  C   UNL     1       3.727   1.795  18.907  0.00  0.00    +0.000 C 
BRANCH  21  22
ATOM     22  O   UNL     1       4.015   0.701  18.166  0.00  0.00    +0.000 OA
ATOM     23  H   UNL     1       3.317   0.458  17.527  0.00  0.00    +0.000 HD
ENDBRANCH  21  22
ENDBRANCH  19  21
ENDBRANCH   1  19
TORSDOF 4
ENDMDL
MODEL 2
REMARK VINA RESULT:      -7.2      1.191      1.399
REMARK  Name = 
REMARK  4 active torsions:
REMARK  status: ('A' for Active; 'I' for Inactive)
REMARK    1  A    between atoms: C_2  and  O_3
REMARK    2  A    between atoms: C_2  and  C_4
REMARK    3  A    between atoms: C_4  and  C_5
REMARK    4  A    between atoms: C_11  and  O_12
REMARK                            x       y       z     vdW  Elec       q    Type
REMARK                         _______ _______ _______ _____ _____    ______ ____
ROOT
ATOM      1  C   UNL     1       2.062   4.622  18.455  0.00  0.00    +0.000 A 
ATOM      2  C   UNL     1       1.788   4.514  19.825  0.00  0.00    +0.000 A 
ATOM      3  C   UNL     1       1.747   5.657  20.628  0.00  0.00    +0.000 A 
ATOM      4  C   UNL     1       1.973   6.914  20.065  0.00  0.00    +0.000 A 
ATOM      5  C   UNL     1       2.301   7.041  18.713  0.00  0.00    +0.000 A 
ATOM      6  C   UNL     1       2.324   5.890  17.912  0.00  0.00    +0.000 A 
ATOM      7  C   UNL     1       2.599   8.419  18.181  0.00  0.00    +0.000 C 
ATOM      8  C   UNL     1       1.314   9.250  18.165  0.00  0.00    +0.000 C 
ATOM      9  C   UNL     1       0.700   9.579  19.505  0.00  0.00    +0.000 A 
ATOM     10  C   UNL     1      -0.294  10.579  19.508  0.00  0.00    +0.000 A 
ATOM     11  C   UNL     1      -0.880  10.999  20.697  0.00  0.00    +0.000 A 
ATOM     12  F   UNL     1      -1.809  11.962  20.669  0.00  0.00    +0.000 F 
ATOM     13  C   UNL     1      -0.503  10.443  21.908  0.00  0.00    +0.000 A 
ATOM     14  C   UNL     1       0.460   9.434  21.923  0.00  0.00    +0.000 A 
ATOM     15  C   UNL     1       1.043   8.978  20.729  0.00  0.00    +0.000 A 
ATOM     16  O   UNL     1       1.997   7.999  20.911  0.00  0.00    +0.000 OA
ENDROOT
BRANCH   7  17
ATOM     17  O   UNL     1       3.165   8.362  16.871  0.00  0.00    +0.000 OA
ATOM     18  H   UNL     1       2.874   9.152  16.383  0.00  0.00    +0.000 HD
ENDBRANCH   7  17
BRANCH   1  19
ATOM     19  C   UNL     1       2.123   3.394  17.573  0.00  0.00    +0.000 C 
BRANCH  19  21
ATOM     20  O   UNL     1       3.674   1.776  18.463  0.00  0.00    +0.000 OA
ATOM     21  C   UNL     1       2.511   2.107  18.271  0.00  0.00    +0.000 C 
BRANCH  21  22
ATOM     22  O   UNL     1       1.482   1.367  18.743  0.00  0.00    +0.000 OA
ATOM     23  H   UNL     1       1.366   0.510  18.288  0.00  0.00    +0.000 HD
ENDBRANCH  21  22
ENDBRANCH  19  21
ENDBRANCH   1  19
TORSDOF 4
ENDMDL
MODEL 3
REMARK VINA RESULT:      -7.1      2.454      3.735
REMARK  Name = 
REMARK  4 active torsions:
REMARK  status: ('A' for Active; 'I' for Inactive)
REMARK    1  A    between atoms: C_2  and  O_3
REMARK    2  A    between atoms: C_2  and  C_4
REMARK    3  A    between atoms: C_4  and  C_5
REMARK    4  A    between atoms: C_11  and  O_12
REMARK                            x       y       z     vdW  Elec       q    Type
REMARK                         _______ _______ _______ _____ _____    ______ ____
ROOT
ATOM      1  C   UNL     1       5.353   5.739  18.500  0.00  0.00    +0.000 A 
ATOM      2  C   UNL     1       5.159   6.548  17.373  0.00  0.00    +0.000 A 
ATOM      3  C   UNL     1       3.957   7.237  17.198  0.00  0.00    +0.000 A 
ATOM      4  C   UNL     1       2.943   7.126  18.151  0.00  0.00    +0.000 A 
ATOM      5  C   UNL     1       3.092   6.282  19.254  0.00  0.00    +0.000 A 
ATOM      6  C   UNL     1       4.309   5.608  19.430  0.00  0.00    +0.000 A 
ATOM      7  C   UNL     1       1.936   6.155  20.212  0.00  0.00    +0.000 C 
ATOM      8  C   UNL     1       1.755   7.470  20.974  0.00  0.00    +0.000 C 
ATOM      9  C   UNL     1       1.335   8.673  20.165  0.00  0.00    +0.000 A 
ATOM     10  C   UNL     1       0.882   9.791  20.895  0.00  0.00    +0.000 A 
ATOM     11  C   UNL     1       0.416  10.928  20.245  0.00  0.00    +0.000 A 
ATOM     12  F   UNL     1      -0.023  11.966  20.966  0.00  0.00    +0.000 F 
ATOM     13  C   UNL     1       0.386  10.990  18.861  0.00  0.00    +0.000 A 
ATOM     14  C   UNL     1       0.853   9.905  18.121  0.00  0.00    +0.000 A 
ATOM     15  C   UNL     1       1.354   8.759  18.762  0.00  0.00    +0.000 A 
ATOM     16  O   UNL     1       1.751   7.763  17.894  0.00  0.00    +0.000 OA
ENDROOT
BRANCH   7  17
ATOM     17  O   UNL     1       2.133   5.077  21.128  0.00  0.00    +0.000 OA
ATOM     18  H   UNL     1       1.704   5.316  21.970  0.00  0.00    +0.000 HD
ENDBRANCH   7  17
BRANCH   1  19
ATOM     19  C   UNL     1       6.644   4.975  18.699  0.00  0.00    +0.000 C 
BRANCH  19  21
ATOM     20  O   UNL     1       8.280   6.741  18.835  0.00  0.00    +0.000 OA
ATOM     21  C   UNL     1       7.770   5.753  19.347  0.00  0.00    +0.000 C 
BRANCH  21  22
ATOM     22  O   UNL     1       8.137   5.330  20.578  0.00  0.00    +0.000 OA
ATOM     23  H   UNL     1       8.421   6.048  21.178  0.00  0.00    +0.000 HD
ENDBRANCH  21  22
ENDBRANCH  19  21
ENDBRANCH   1  19
TORSDOF 4
ENDMDL
MODEL 4
REMARK VINA RESULT:      -6.9      2.343      3.422
REMARK  Name = 
REMARK  4 active torsions:
REMARK  status: ('A' for Active; 'I' for Inactive)
REMARK    1  A    between atoms: C_2  and  O_3
REMARK    2  A    between atoms: C_2  and  C_4
REMARK    3  A    between atoms: C_4  and  C_5
REMARK    4  A    between atoms: C_11  and  O_12
REMARK                            x       y       z     vdW  Elec       q    Type
REMARK                         _______ _______ _______ _____ _____    ______ ____
ROOT
ATOM      1  C   UNL     1       5.139   5.741  18.269  0.00  0.00    +0.000 A 
ATOM      2  C   UNL     1       5.023   6.736  17.291  0.00  0.00    +0.000 A 
ATOM      3  C   UNL     1       3.881   7.538  17.231  0.00  0.00    +0.000 A 
ATOM      4  C   UNL     1       2.850   7.354  18.155  0.00  0.00    +0.000 A 
ATOM      5  C   UNL     1       2.919   6.332  19.105  0.00  0.00    +0.000 A 
ATOM      6  C   UNL     1       4.077   5.543  19.167  0.00  0.00    +0.000 A 
ATOM      7  C   UNL     1       1.745   6.142  20.030  0.00  0.00    +0.000 C 
ATOM      8  C   UNL     1       1.659   7.325  20.997  0.00  0.00    +0.000 C 
ATOM      9  C   UNL     1       1.344   8.674  20.396  0.00  0.00    +0.000 A 
ATOM     10  C   UNL     1       0.972   9.690  21.300  0.00  0.00    +0.000 A 
ATOM     11  C   UNL     1       0.604  10.951  20.845  0.00  0.00    +0.000 A 
ATOM     12  F   UNL     1       0.239  11.889  21.728  0.00  0.00    +0.000 F 
ATOM     13  C   UNL     1       0.596  11.241  19.491  0.00  0.00    +0.000 A 
ATOM     14  C   UNL     1       0.985  10.258  18.582  0.00  0.00    +0.000 A 
ATOM     15  C   UNL     1       1.387   8.986  19.026  0.00  0.00    +0.000 A 
ATOM     16  O   UNL     1       1.714   8.117  18.007  0.00  0.00    +0.000 OA
ENDROOT
BRANCH   7  17
ATOM     17  O   UNL     1       1.846   4.917  20.757  0.00  0.00    +0.000 OA
ATOM     18  H   UNL     1       2.714   4.898  21.197  0.00  0.00    +0.000 HD
ENDBRANCH   7  17
BRANCH   1  19
ATOM     19  C   UNL     1       6.363   4.855  18.339  0.00  0.00    +0.000 C 
BRANCH  19  21
ATOM     20  O   UNL     1       7.972   4.547  16.570  0.00  0.00    +0.000 OA
ATOM     21  C   UNL     1       6.855   4.313  17.013  0.00  0.00    +0.000 C 
BRANCH  21  22
ATOM     22  O   UNL     1       6.003   3.481  16.372  0.00  0.00    +0.000 OA
ATOM     23  H   UNL     1       5.186   3.914  16.056  0.00  0.00    +0.000 HD
ENDBRANCH  21  22
ENDBRANCH  19  21
ENDBRANCH   1  19
TORSDOF 4
ENDMDL
MODEL 5
REMARK VINA RESULT:      -6.7      3.911      6.358
REMARK  Name = 
REMARK  4 active torsions:
REMARK  status: ('A' for Active; 'I' for Inactive)
REMARK    1  A    between atoms: C_2  and  O_3
REMARK    2  A    between atoms: C_2  and  C_4
REMARK    3  A    between atoms: C_4  and  C_5
REMARK    4  A    between atoms: C_11  and  O_12
REMARK                            x       y       z     vdW  Elec       q    Type
REMARK                         _______ _______ _______ _____ _____    ______ ____
ROOT
ATOM      1  C   UNL     1       6.130   7.004  17.133  0.00  0.00    +0.000 A 
ATOM      2  C   UNL     1       5.036   7.768  17.558  0.00  0.00    +0.000 A 
ATOM      3  C   UNL     1       3.813   7.155  17.838  0.00  0.00    +0.000 A 
ATOM      4  C   UNL     1       3.678   5.772  17.701  0.00  0.00    +0.000 A 
ATOM      5  C   UNL     1       4.738   4.997  17.226  0.00  0.00    +0.000 A 
ATOM      6  C   UNL     1       5.967   5.619  16.963  0.00  0.00    +0.000 A 
ATOM      7  C   UNL     1       4.509   3.519  17.037  0.00  0.00    +0.000 C 
ATOM      8  C   UNL     1       4.349   2.847  18.403  0.00  0.00    +0.000 C 
ATOM      9  C   UNL     1       3.134   3.232  19.213  0.00  0.00    +0.000 A 
ATOM     10  C   UNL     1       2.831   2.407  20.315  0.00  0.00    +0.000 A 
ATOM     11  C   UNL     1       1.700   2.638  21.090  0.00  0.00    +0.000 A 
ATOM     12  F   UNL     1       1.430   1.826  22.120  0.00  0.00    +0.000 F 
ATOM     13  C   UNL     1       0.844   3.688  20.799  0.00  0.00    +0.000 A 
ATOM     14  C   UNL     1       1.141   4.531  19.729  0.00  0.00    +0.000 A 
ATOM     15  C   UNL     1       2.294   4.328  18.952  0.00  0.00    +0.000 A 
ATOM     16  O   UNL     1       2.432   5.227  17.914  0.00  0.00    +0.000 OA
ENDROOT
BRANCH   7  17
ATOM     17  O   UNL     1       5.578   2.913  16.311  0.00  0.00    +0.000 OA
ATOM     18  H   UNL     1       5.607   1.969  16.550  0.00  0.00    +0.000 HD
ENDBRANCH   7  17
BRANCH   1  19
ATOM     19  C   UNL     1       7.458   7.654  16.813  0.00  0.00    +0.000 C 
BRANCH  19  21
ATOM     20  O   UNL     1       8.323   9.520  18.071  0.00  0.00    +0.000 OA
ATOM     21  C   UNL     1       8.164   8.309  17.981  0.00  0.00    +0.000 C 
BRANCH  21  22
ATOM     22  O   UNL     1       8.551   7.473  18.972  0.00  0.00    +0.000 OA
ATOM     23  H   UNL     1       9.489   7.567  19.229  0.00  0.00    +0.000 HD
ENDBRANCH  21  22
ENDBRANCH  19  21
ENDBRANCH   1  19
TORSDOF 4
ENDMDL
MODEL 6
REMARK VINA RESULT:      -6.7      2.652      3.706
REMARK  Name = 
REMARK  4 active torsions:
REMARK  status: ('A' for Active; 'I' for Inactive)
REMARK    1  A    between atoms: C_2  and  O_3
REMARK    2  A    between atoms: C_2  and  C_4
REMARK    3  A    between atoms: C_4  and  C_5
REMARK    4  A    between atoms: C_11  and  O_12
REMARK                            x       y       z     vdW  Elec       q    Type
REMARK                         _______ _______ _______ _____ _____    ______ ____
ROOT
ATOM      1  C   UNL     1       5.231   5.514  17.349  0.00  0.00    +0.000 A 
ATOM      2  C   UNL     1       5.113   6.786  16.776  0.00  0.00    +0.000 A 
ATOM      3  C   UNL     1       3.986   7.572  17.027  0.00  0.00    +0.000 A 
ATOM      4  C   UNL     1       2.971   7.092  17.858  0.00  0.00    +0.000 A 
ATOM      5  C   UNL     1       3.041   5.804  18.396  0.00  0.00    +0.000 A 
ATOM      6  C   UNL     1       4.185   5.030  18.151  0.00  0.00    +0.000 A 
ATOM      7  C   UNL     1       1.884   5.320  19.230  0.00  0.00    +0.000 C 
ATOM      8  C   UNL     1       1.841   6.098  20.548  0.00  0.00    +0.000 C 
ATOM      9  C   UNL     1       1.540   7.575  20.456  0.00  0.00    +0.000 A 
ATOM     10  C   UNL     1       1.207   8.220  21.665  0.00  0.00    +0.000 A 
ATOM     11  C   UNL     1       0.854   9.565  21.682  0.00  0.00    +0.000 A 
ATOM     12  F   UNL     1       0.526  10.145  22.843  0.00  0.00    +0.000 F 
ATOM     13  C   UNL     1       0.822  10.304  20.511  0.00  0.00    +0.000 A 
ATOM     14  C   UNL     1       1.173   9.690  19.309  0.00  0.00    +0.000 A 
ATOM     15  C   UNL     1       1.559   8.339  19.277  0.00  0.00    +0.000 A 
ATOM     16  O   UNL     1       1.848   7.871  18.012  0.00  0.00    +0.000 OA
ENDROOT
BRANCH   7  17
ATOM     17  O   UNL     1       1.976   3.918  19.488  0.00  0.00    +0.000 OA
ATOM     18  H   UNL     1       2.291   3.801  20.402  0.00  0.00    +0.000 HD
ENDBRANCH   7  17
BRANCH   1  19
ATOM     19  C   UNL     1       6.439   4.645  17.076  0.00  0.00    +0.000 C 
BRANCH  19  21
ATOM     20  O   UNL     1       7.422   5.322  19.172  0.00  0.00    +0.000 OA
ATOM     21  C   UNL     1       7.529   4.692  18.127  0.00  0.00    +0.000 C 
BRANCH  21  22
ATOM     22  O   UNL     1       8.615   3.928  17.875  0.00  0.00    +0.000 OA
ATOM     23  H   UNL     1       8.417   3.097  17.400  0.00  0.00    +0.000 HD
ENDBRANCH  21  22
ENDBRANCH  19  21
ENDBRANCH   1  19
TORSDOF 4
ENDMDL
MODEL 7
REMARK VINA RESULT:      -6.7      0.825      1.007
REMARK  Name = 
REMARK  4 active torsions:
REMARK  status: ('A' for Active; 'I' for Inactive)
REMARK    1  A    between atoms: C_2  and  O_3
REMARK    2  A    between atoms: C_2  and  C_4
REMARK    3  A    between atoms: C_4  and  C_5
REMARK    4  A    between atoms: C_11  and  O_12
REMARK                            x       y       z     vdW  Elec       q    Type
REMARK                         _______ _______ _______ _____ _____    ______ ____
ROOT
ATOM      1  C   UNL     1       2.137   4.136  19.453  0.00  0.00    +0.000 A 
ATOM      2  C   UNL     1       1.528   4.485  20.665  0.00  0.00    +0.000 A 
ATOM      3  C   UNL     1       1.421   5.827  21.040  0.00  0.00    +0.000 A 
ATOM      4  C   UNL     1       1.918   6.827  20.202  0.00  0.00    +0.000 A 
ATOM      5  C   UNL     1       2.579   6.500  19.016  0.00  0.00    +0.000 A 
ATOM      6  C   UNL     1       2.666   5.151  18.640  0.00  0.00    +0.000 A 
ATOM      7  C   UNL     1       3.151   7.622  18.188  0.00  0.00    +0.000 C 
ATOM      8  C   UNL     1       2.011   8.440  17.578  0.00  0.00    +0.000 C 
ATOM      9  C   UNL     1       1.130   9.203  18.538  0.00  0.00    +0.000 A 
ATOM     10  C   UNL     1       0.285  10.178  17.971  0.00  0.00    +0.000 A 
ATOM     11  C   UNL     1      -0.522  10.978  18.773  0.00  0.00    +0.000 A 
ATOM     12  F   UNL     1      -1.301  11.907  18.206  0.00  0.00    +0.000 F 
ATOM     13  C   UNL     1      -0.516  10.833  20.151  0.00  0.00    +0.000 A 
ATOM     14  C   UNL     1       0.293   9.856  20.729  0.00  0.00    +0.000 A 
ATOM     15  C   UNL     1       1.094   9.021  19.932  0.00  0.00    +0.000 A 
ATOM     16  O   UNL     1       1.858   8.127  20.652  0.00  0.00    +0.000 OA
ENDROOT
BRANCH   7  17
ATOM     17  O   UNL     1       4.009   7.127  17.160  0.00  0.00    +0.000 OA
ATOM     18  H   UNL     1       3.900   6.160  17.116  0.00  0.00    +0.000 HD
ENDBRANCH   7  17
BRANCH   1  19
ATOM     19  C   UNL     1       2.272   2.687  19.038  0.00  0.00    +0.000 C 
BRANCH  19  21
ATOM     20  O   UNL     1       2.405   2.829  16.634  0.00  0.00    +0.000 OA
ATOM     21  C   UNL     1       2.909   2.451  17.684  0.00  0.00    +0.000 C 
BRANCH  21  22
ATOM     22  O   UNL     1       4.123   1.855  17.707  0.00  0.00    +0.000 OA
ATOM     23  H   UNL     1       4.867   2.459  17.514  0.00  0.00    +0.000 HD
ENDBRANCH  21  22
ENDBRANCH  19  21
ENDBRANCH   1  19
TORSDOF 4
ENDMDL
MODEL 8
REMARK VINA RESULT:      -6.6      4.068      5.871
REMARK  Name = 
REMARK  4 active torsions:
REMARK  status: ('A' for Active; 'I' for Inactive)
REMARK    1  A    between atoms: C_2  and  O_3
REMARK    2  A    between atoms: C_2  and  C_4
REMARK    3  A    between atoms: C_4  and  C_5
REMARK    4  A    between atoms: C_11  and  O_12
REMARK                            x       y       z     vdW  Elec       q    Type
REMARK                         _______ _______ _______ _____ _____    ______ ____
ROOT
ATOM      1  C   UNL     1       6.579   5.270  15.559  0.00  0.00    +0.000 A 
ATOM      2  C   UNL     1       7.167   4.429  16.513  0.00  0.00    +0.000 A 
ATOM      3  C   UNL     1       6.626   4.332  17.798  0.00  0.00    +0.000 A 
ATOM      4  C   UNL     1       5.490   5.070  18.134  0.00  0.00    +0.000 A 
ATOM      5  C   UNL     1       4.919   5.956  17.216  0.00  0.00    +0.000 A 
ATOM      6  C   UNL     1       5.459   6.034  15.925  0.00  0.00    +0.000 A 
ATOM      7  C   UNL     1       3.733   6.772  17.662  0.00  0.00    +0.000 C 
ATOM      8  C   UNL     1       2.522   5.856  17.854  0.00  0.00    +0.000 C 
ATOM      9  C   UNL     1       2.610   4.836  18.963  0.00  0.00    +0.000 A 
ATOM     10  C   UNL     1       1.403   4.207  19.330  0.00  0.00    +0.000 A 
ATOM     11  C   UNL     1       1.363   3.297  20.381  0.00  0.00    +0.000 A 
ATOM     12  F   UNL     1       0.198   2.729  20.716  0.00  0.00    +0.000 F 
ATOM     13  C   UNL     1       2.510   2.984  21.091  0.00  0.00    +0.000 A 
ATOM     14  C   UNL     1       3.719   3.576  20.727  0.00  0.00    +0.000 A 
ATOM     15  C   UNL     1       3.783   4.477  19.650  0.00  0.00    +0.000 A 
ATOM     16  O   UNL     1       5.041   4.998  19.433  0.00  0.00    +0.000 OA
ENDROOT
BRANCH   7  17
ATOM     17  O   UNL     1       3.427   7.804  16.723  0.00  0.00    +0.000 OA
ATOM     18  H   UNL     1       2.678   7.503  16.178  0.00  0.00    +0.000 HD
ENDBRANCH   7  17
BRANCH   1  19
ATOM     19  C   UNL     1       7.160   5.397  14.168  0.00  0.00    +0.000 C 
BRANCH  19  21
ATOM     20  O   UNL     1       7.193   4.252  12.046  0.00  0.00    +0.000 OA
ATOM     21  C   UNL     1       6.818   4.273  13.211  0.00  0.00    +0.000 C 
BRANCH  21  22
ATOM     22  O   UNL     1       6.125   3.243  13.747  0.00  0.00    +0.000 OA
ATOM     23  H   UNL     1       6.248   3.137  14.710  0.00  0.00    +0.000 HD
ENDBRANCH  21  22
ENDBRANCH  19  21
ENDBRANCH   1  19
TORSDOF 4
ENDMDL
MODEL 9
REMARK VINA RESULT:      -6.6      4.973      5.703
REMARK  Name = 
REMARK  4 active torsions:
REMARK  status: ('A' for Active; 'I' for Inactive)
REMARK    1  A    between atoms: C_2  and  O_3
REMARK    2  A    between atoms: C_2  and  C_4
REMARK    3  A    between atoms: C_4  and  C_5
REMARK    4  A    between atoms: C_11  and  O_12
REMARK                            x       y       z     vdW  Elec       q    Type
REMARK                         _______ _______ _______ _____ _____    ______ ____
ROOT
ATOM      1  C   UNL     1       3.109   3.132  18.243  0.00  0.00    +0.000 A 
ATOM      2  C   UNL     1       3.856   3.101  19.427  0.00  0.00    +0.000 A 
ATOM      3  C   UNL     1       5.158   3.608  19.454  0.00  0.00    +0.000 A 
ATOM      4  C   UNL     1       5.718   4.155  18.297  0.00  0.00    +0.000 A 
ATOM      5  C   UNL     1       5.012   4.146  17.092  0.00  0.00    +0.000 A 
ATOM      6  C   UNL     1       3.700   3.650  17.079  0.00  0.00    +0.000 A 
ATOM      7  C   UNL     1       5.696   4.691  15.865  0.00  0.00    +0.000 C 
ATOM      8  C   UNL     1       5.864   6.206  16.002  0.00  0.00    +0.000 C 
ATOM      9  C   UNL     1       6.787   6.692  17.093  0.00  0.00    +0.000 A 
ATOM     10  C   UNL     1       7.172   8.047  17.028  0.00  0.00    +0.000 A 
ATOM     11  C   UNL     1       8.067   8.580  17.950  0.00  0.00    +0.000 A 
ATOM     12  F   UNL     1       8.426   9.866  17.851  0.00  0.00    +0.000 F 
ATOM     13  C   UNL     1       8.600   7.792  18.956  0.00  0.00    +0.000 A 
ATOM     14  C   UNL     1       8.212   6.456  19.053  0.00  0.00    +0.000 A 
ATOM     15  C   UNL     1       7.288   5.909  18.147  0.00  0.00    +0.000 A 
ATOM     16  O   UNL     1       7.028   4.570  18.356  0.00  0.00    +0.000 OA
ENDROOT
BRANCH   7  17
ATOM     17  O   UNL     1       4.965   4.380  14.678  0.00  0.00    +0.000 OA
ATOM     18  H   UNL     1       4.244   3.772  14.919  0.00  0.00    +0.000 HD
ENDBRANCH   7  17
BRANCH   1  19
ATOM     19  C   UNL     1       1.703   2.575  18.193  0.00  0.00    +0.000 C 
BRANCH  19  21
ATOM     20  O   UNL     1       0.850   4.169  19.789  0.00  0.00    +0.000 OA
ATOM     21  C   UNL     1       0.770   3.056  19.286  0.00  0.00    +0.000 C 
BRANCH  21  22
ATOM     22  O   UNL     1      -0.218   2.199  19.627  0.00  0.00    +0.000 OA
ATOM     23  H   UNL     1      -0.003   1.259  19.468  0.00  0.00    +0.000 HD
ENDBRANCH  21  22
ENDBRANCH  19  21
ENDBRANCH   1  19
TORSDOF 4
ENDMDL
