MODEL 1
REMARK VINA RESULT:      -7.9      0.000      0.000
REMARK  Name = 
REMARK  5 active torsions:
REMARK  status: ('A' for Active; 'I' for Inactive)
REMARK    1  A    between atoms: C_2  and  O_3
REMARK    2  A    between atoms: C_2  and  C_4
REMARK    3  A    between atoms: C_8  and  N_9
REMARK    4  A    between atoms: C_11  and  C_12
REMARK    5  A    between atoms: C_19  and  C_20
REMARK                            x       y       z     vdW  Elec       q    Type
REMARK                         _______ _______ _______ _____ _____    ______ ____
ROOT
ATOM      1  N   UNL     1       2.172   7.995  18.879  0.00  0.00    +0.000 N 
ATOM      2  N   UNL     1       3.133   7.983  17.863  0.00  0.00    +0.000 NA
ATOM      3  C   UNL     1       3.767   6.839  17.966  0.00  0.00    +0.000 C 
ATOM      4  C   UNL     1       3.155   5.974  19.000  0.00  0.00    +0.000 C 
ATOM      5  C   UNL     1       3.293   4.650  19.148  0.00  0.00    +0.000 C 
ATOM      6  C   UNL     1       2.183   6.850  19.692  0.00  0.00    +0.000 C 
ATOM      7  O   UNL     1       1.570   6.583  20.709  0.00  0.00    +0.000 OA
ENDROOT
BRANCH   1  12
ATOM      8  C   UNL     1      -0.595  10.410  18.172  0.00  0.00    +0.000 A 
ATOM      9  C   UNL     1      -0.573  11.199  19.328  0.00  0.00    +0.000 A 
ATOM     10  C   UNL     1       0.393  10.964  20.300  0.00  0.00    +0.000 A 
ATOM     11  C   UNL     1       1.308   9.921  20.137  0.00  0.00    +0.000 A 
ATOM     12  C   UNL     1       1.290   9.099  19.000  0.00  0.00    +0.000 A 
ATOM     13  C   UNL     1       0.335   9.369  18.008  0.00  0.00    +0.000 A 
BRANCH   8  15
ATOM     14  O   UNL     1      -2.231   9.658  16.616  0.00  0.00    +0.000 OA
ATOM     15  C   UNL     1      -1.646  10.591  17.139  0.00  0.00    +0.000 C 
BRANCH  15  16
ATOM     16  O   UNL     1      -1.880  11.881  16.816  0.00  0.00    +0.000 OA
ATOM     17  H   UNL     1      -1.216  12.286  16.228  0.00  0.00    +0.000 HD
ENDBRANCH  15  16
ENDBRANCH   8  15
ENDBRANCH   1  12
BRANCH   3  18
ATOM     18  C   UNL     1       4.947   6.457  17.165  0.00  0.00    +0.000 A 
ATOM     19  C   UNL     1       6.239   6.852  17.540  0.00  0.00    +0.000 A 
ATOM     20  C   UNL     1       7.349   6.453  16.793  0.00  0.00    +0.000 A 
ATOM     21  C   UNL     1       7.172   5.696  15.638  0.00  0.00    +0.000 A 
ATOM     22  C   UNL     1       5.884   5.343  15.229  0.00  0.00    +0.000 A 
ATOM     23  C   UNL     1       4.771   5.723  15.987  0.00  0.00    +0.000 A 
ENDBRANCH   3  18
BRANCH   5  24
ATOM     24  C   UNL     1       2.489   3.896  20.037  0.00  0.00    +0.000 A 
ATOM     25  C   UNL     1       1.237   3.327  19.846  0.00  0.00    +0.000 A 
ATOM     26  C   UNL     1       0.873   2.681  21.053  0.00  0.00    +0.000 A 
ATOM     27  C   UNL     1       1.914   2.892  21.921  0.00  0.00    +0.000 A 
ATOM     28  O   UNL     1       2.879   3.635  21.328  0.00  0.00    +0.000 OA
ENDBRANCH   5  24
TORSDOF 5
ENDMDL
MODEL 2
REMARK VINA RESULT:      -7.7      1.727      2.372
REMARK  Name = 
REMARK  5 active torsions:
REMARK  status: ('A' for Active; 'I' for Inactive)
REMARK    1  A    between atoms: C_2  and  O_3
REMARK    2  A    between atoms: C_2  and  C_4
REMARK    3  A    between atoms: C_8  and  N_9
REMARK    4  A    between atoms: C_11  and  C_12
REMARK    5  A    between atoms: C_19  and  C_20
REMARK                            x       y       z     vdW  Elec       q    Type
REMARK                         _______ _______ _______ _____ _____    ______ ____
ROOT
ATOM      1  N   UNL     1       2.231   7.786  19.027  0.00  0.00    +0.000 N 
ATOM      2  N   UNL     1       3.166   7.785  17.987  0.00  0.00    +0.000 NA
ATOM      3  C   UNL     1       3.782   6.629  18.044  0.00  0.00    +0.000 C 
ATOM      4  C   UNL     1       3.181   5.747  19.069  0.00  0.00    +0.000 C 
ATOM      5  C   UNL     1       3.299   4.417  19.178  0.00  0.00    +0.000 C 
ATOM      6  C   UNL     1       2.242   6.620  19.808  0.00  0.00    +0.000 C 
ATOM      7  O   UNL     1       1.650   6.335  20.833  0.00  0.00    +0.000 OA
ENDROOT
BRANCH   1  12
ATOM      8  C   UNL     1       0.299  10.550  20.644  0.00  0.00    +0.000 A 
ATOM      9  C   UNL     1      -0.207  11.222  19.525  0.00  0.00    +0.000 A 
ATOM     10  C   UNL     1       0.044  10.722  18.253  0.00  0.00    +0.000 A 
ATOM     11  C   UNL     1       0.830   9.578  18.096  0.00  0.00    +0.000 A 
ATOM     12  C   UNL     1       1.371   8.901  19.199  0.00  0.00    +0.000 A 
ATOM     13  C   UNL     1       1.080   9.393  20.480  0.00  0.00    +0.000 A 
BRANCH   8  15
ATOM     14  O   UNL     1       0.050  10.374  23.004  0.00  0.00    +0.000 OA
ATOM     15  C   UNL     1       0.103  11.085  22.015  0.00  0.00    +0.000 C 
BRANCH  15  16
ATOM     16  O   UNL     1      -0.032  12.427  22.065  0.00  0.00    +0.000 OA
ATOM     17  H   UNL     1      -0.604  12.758  22.781  0.00  0.00    +0.000 HD
ENDBRANCH  15  16
ENDBRANCH   8  15
ENDBRANCH   1  12
BRANCH   3  18
ATOM     18  C   UNL     1       4.935   6.249  17.203  0.00  0.00    +0.000 A 
ATOM     19  C   UNL     1       4.752   5.631  15.956  0.00  0.00    +0.000 A 
ATOM     20  C   UNL     1       5.850   5.310  15.156  0.00  0.00    +0.000 A 
ATOM     21  C   UNL     1       7.140   5.560  15.614  0.00  0.00    +0.000 A 
ATOM     22  C   UNL     1       7.332   6.126  16.877  0.00  0.00    +0.000 A 
ATOM     23  C   UNL     1       6.233   6.469  17.673  0.00  0.00    +0.000 A 
ENDBRANCH   3  18
BRANCH   5  24
ATOM     24  C   UNL     1       2.505   3.652  20.066  0.00  0.00    +0.000 A 
ATOM     25  C   UNL     1       1.219   3.153  19.911  0.00  0.00    +0.000 A 
ATOM     26  C   UNL     1       0.884   2.458  21.099  0.00  0.00    +0.000 A 
ATOM     27  C   UNL     1       1.976   2.573  21.921  0.00  0.00    +0.000 A 
ATOM     28  O   UNL     1       2.945   3.302  21.320  0.00  0.00    +0.000 OA
ENDBRANCH   5  24
TORSDOF 5
ENDMDL
MODEL 3
REMARK VINA RESULT:      -7.7      2.854      6.575
REMARK  Name = 
REMARK  5 active torsions:
REMARK  status: ('A' for Active; 'I' for Inactive)
REMARK    1  A    between atoms: C_2  and  O_3
REMARK    2  A    between atoms: C_2  and  C_4
REMARK    3  A    between atoms: C_8  and  N_9
REMARK    4  A    between atoms: C_11  and  C_12
REMARK    5  A    between atoms: C_19  and  C_20
REMARK                            x       y       z     vdW  Elec       q    Type
REMARK                         _______ _______ _______ _____ _____    ______ ____
ROOT
ATOM      1  N   UNL     1       4.109   5.793  17.259  0.00  0.00    +0.000 N 
ATOM      2  N   UNL     1       3.815   7.153  17.396  0.00  0.00    +0.000 NA
ATOM      3  C   UNL     1       2.841   7.235  18.271  0.00  0.00    +0.000 C 
ATOM      4  C   UNL     1       2.527   5.912  18.855  0.00  0.00    +0.000 C 
ATOM      5  C   UNL     1       1.864   5.652  19.989  0.00  0.00    +0.000 C 
ATOM      6  C   UNL     1       3.298   4.950  18.035  0.00  0.00    +0.000 C 
ATOM      7  O   UNL     1       3.211   3.737  18.077  0.00  0.00    +0.000 OA
ENDROOT
BRANCH   1  12
ATOM      8  C   UNL     1       5.929   4.323  14.340  0.00  0.00    +0.000 A 
ATOM      9  C   UNL     1       7.245   4.716  14.611  0.00  0.00    +0.000 A 
ATOM     10  C   UNL     1       7.526   5.411  15.782  0.00  0.00    +0.000 A 
ATOM     11  C   UNL     1       6.492   5.744  16.661  0.00  0.00    +0.000 A 
ATOM     12  C   UNL     1       5.161   5.384  16.400  0.00  0.00    +0.000 A 
ATOM     13  C   UNL     1       4.894   4.651  15.234  0.00  0.00    +0.000 A 
BRANCH   8  15
ATOM     14  O   UNL     1       4.483   3.729  12.546  0.00  0.00    +0.000 OA
ATOM     15  C   UNL     1       5.578   3.633  13.073  0.00  0.00    +0.000 C 
BRANCH  15  16
ATOM     16  O   UNL     1       6.574   2.873  12.570  0.00  0.00    +0.000 OA
ATOM     17  H   UNL     1       6.283   2.090  12.068  0.00  0.00    +0.000 HD
ENDBRANCH  15  16
ENDBRANCH   8  15
ENDBRANCH   1  12
BRANCH   3  18
ATOM     18  C   UNL     1       2.135   8.482  18.628  0.00  0.00    +0.000 A 
ATOM     19  C   UNL     1       1.452   8.606  19.847  0.00  0.00    +0.000 A 
ATOM     20  C   UNL     1       0.820   9.803  20.188  0.00  0.00    +0.000 A 
ATOM     21  C   UNL     1       0.825  10.869  19.294  0.00  0.00    +0.000 A 
ATOM     22  C   UNL     1       1.458  10.736  18.056  0.00  0.00    +0.000 A 
ATOM     23  C   UNL     1       2.111   9.545  17.720  0.00  0.00    +0.000 A 
ENDBRANCH   3  18
BRANCH   5  24
ATOM     24  C   UNL     1       1.813   4.359  20.562  0.00  0.00    +0.000 A 
ATOM     25  C   UNL     1       0.820   3.391  20.500  0.00  0.00    +0.000 A 
ATOM     26  C   UNL     1       1.263   2.275  21.250  0.00  0.00    +0.000 A 
ATOM     27  C   UNL     1       2.498   2.616  21.738  0.00  0.00    +0.000 A 
ATOM     28  O   UNL     1       2.830   3.869  21.347  0.00  0.00    +0.000 OA
ENDBRANCH   5  24
TORSDOF 5
ENDMDL
MODEL 4
REMARK VINA RESULT:      -7.7      1.793      2.363
REMARK  Name = 
REMARK  5 active torsions:
REMARK  status: ('A' for Active; 'I' for Inactive)
REMARK    1  A    between atoms: C_2  and  O_3
REMARK    2  A    between atoms: C_2  and  C_4
REMARK    3  A    between atoms: C_8  and  N_9
REMARK    4  A    between atoms: C_11  and  C_12
REMARK    5  A    between atoms: C_19  and  C_20
REMARK                            x       y       z     vdW  Elec       q    Type
REMARK                         _______ _______ _______ _____ _____    ______ ____
ROOT
ATOM      1  N   UNL     1       2.206   7.837  19.067  0.00  0.00    +0.000 N 
ATOM      2  N   UNL     1       3.160   7.862  18.044  0.00  0.00    +0.000 NA
ATOM      3  C   UNL     1       3.785   6.710  18.094  0.00  0.00    +0.000 C 
ATOM      4  C   UNL     1       3.174   5.806  19.094  0.00  0.00    +0.000 C 
ATOM      5  C   UNL     1       3.302   4.476  19.184  0.00  0.00    +0.000 C 
ATOM      6  C   UNL     1       2.214   6.659  19.830  0.00  0.00    +0.000 C 
ATOM      7  O   UNL     1       1.606   6.353  20.840  0.00  0.00    +0.000 OA
ENDROOT
BRANCH   1  12
ATOM      8  C   UNL     1       0.159  10.508  20.700  0.00  0.00    +0.000 A 
ATOM      9  C   UNL     1      -0.269  11.244  19.589  0.00  0.00    +0.000 A 
ATOM     10  C   UNL     1       0.073  10.817  18.311  0.00  0.00    +0.000 A 
ATOM     11  C   UNL     1       0.870   9.682  18.144  0.00  0.00    +0.000 A 
ATOM     12  C   UNL     1       1.334   8.942  19.243  0.00  0.00    +0.000 A 
ATOM     13  C   UNL     1       0.952   9.360  20.526  0.00  0.00    +0.000 A 
BRANCH   8  15
ATOM     14  O   UNL     1      -0.731  11.998  22.328  0.00  0.00    +0.000 OA
ATOM     15  C   UNL     1      -0.134  10.964  22.082  0.00  0.00    +0.000 C 
BRANCH  15  16
ATOM     16  O   UNL     1       0.338  10.140  23.042  0.00  0.00    +0.000 OA
ATOM     17  H   UNL     1      -0.337   9.776  23.643  0.00  0.00    +0.000 HD
ENDBRANCH  15  16
ENDBRANCH   8  15
ENDBRANCH   1  12
BRANCH   3  18
ATOM     18  C   UNL     1       4.956   6.353  17.267  0.00  0.00    +0.000 A 
ATOM     19  C   UNL     1       6.252   6.741  17.638  0.00  0.00    +0.000 A 
ATOM     20  C   UNL     1       7.353   6.366  16.866  0.00  0.00    +0.000 A 
ATOM     21  C   UNL     1       7.164   5.642  15.693  0.00  0.00    +0.000 A 
ATOM     22  C   UNL     1       5.872   5.297  15.290  0.00  0.00    +0.000 A 
ATOM     23  C   UNL     1       4.767   5.652  16.072  0.00  0.00    +0.000 A 
ENDBRANCH   3  18
BRANCH   5  24
ATOM     24  C   UNL     1       2.499   3.690  20.045  0.00  0.00    +0.000 A 
ATOM     25  C   UNL     1       2.788   3.145  21.288  0.00  0.00    +0.000 A 
ATOM     26  C   UNL     1       1.640   2.441  21.725  0.00  0.00    +0.000 A 
ATOM     27  C   UNL     1       0.710   2.584  20.727  0.00  0.00    +0.000 A 
ATOM     28  O   UNL     1       1.220   3.315  19.708  0.00  0.00    +0.000 OA
ENDBRANCH   5  24
TORSDOF 5
ENDMDL
MODEL 5
REMARK VINA RESULT:      -7.6      1.886      2.253
REMARK  Name = 
REMARK  5 active torsions:
REMARK  status: ('A' for Active; 'I' for Inactive)
REMARK    1  A    between atoms: C_2  and  O_3
REMARK    2  A    between atoms: C_2  and  C_4
REMARK    3  A    between atoms: C_8  and  N_9
REMARK    4  A    between atoms: C_11  and  C_12
REMARK    5  A    between atoms: C_19  and  C_20
REMARK                            x       y       z     vdW  Elec       q    Type
REMARK                         _______ _______ _______ _____ _____    ______ ____
ROOT
ATOM      1  N   UNL     1       2.599   7.528  18.847  0.00  0.00    +0.000 N 
ATOM      2  N   UNL     1       3.519   7.422  17.800  0.00  0.00    +0.000 NA
ATOM      3  C   UNL     1       4.031   6.217  17.877  0.00  0.00    +0.000 C 
ATOM      4  C   UNL     1       3.364   5.414  18.926  0.00  0.00    +0.000 C 
ATOM      5  C   UNL     1       3.365   4.081  19.064  0.00  0.00    +0.000 C 
ATOM      6  C   UNL     1       2.515   6.383  19.654  0.00  0.00    +0.000 C 
ATOM      7  O   UNL     1       1.910   6.173  20.690  0.00  0.00    +0.000 OA
ENDROOT
BRANCH   1  12
ATOM      8  C   UNL     1       0.536  10.235  20.398  0.00  0.00    +0.000 A 
ATOM      9  C   UNL     1       0.482  11.170  19.357  0.00  0.00    +0.000 A 
ATOM     10  C   UNL     1       1.076  10.871  18.136  0.00  0.00    +0.000 A 
ATOM     11  C   UNL     1       1.753   9.661  17.967  0.00  0.00    +0.000 A 
ATOM     12  C   UNL     1       1.844   8.719  19.003  0.00  0.00    +0.000 A 
ATOM     13  C   UNL     1       1.210   9.014  20.218  0.00  0.00    +0.000 A 
BRANCH   8  15
ATOM     14  O   UNL     1      -0.017  11.657  22.225  0.00  0.00    +0.000 OA
ATOM     15  C   UNL     1      -0.034  10.540  21.735  0.00  0.00    +0.000 C 
BRANCH  15  16
ATOM     16  O   UNL     1      -0.552   9.466  22.367  0.00  0.00    +0.000 OA
ATOM     17  H   UNL     1      -0.208   9.310  23.266  0.00  0.00    +0.000 HD
ENDBRANCH  15  16
ENDBRANCH   8  15
ENDBRANCH   1  12
BRANCH   3  18
ATOM     18  C   UNL     1       5.136   5.718  17.034  0.00  0.00    +0.000 A 
ATOM     19  C   UNL     1       6.339   5.272  17.602  0.00  0.00    +0.000 A 
ATOM     20  C   UNL     1       7.362   4.770  16.796  0.00  0.00    +0.000 A 
ATOM     21  C   UNL     1       7.209   4.751  15.413  0.00  0.00    +0.000 A 
ATOM     22  C   UNL     1       6.036   5.242  14.836  0.00  0.00    +0.000 A 
ATOM     23  C   UNL     1       5.000   5.727  15.642  0.00  0.00    +0.000 A 
ENDBRANCH   3  18
BRANCH   5  24
ATOM     24  C   UNL     1       2.515   3.409  19.975  0.00  0.00    +0.000 A 
ATOM     25  C   UNL     1       1.202   2.984  19.826  0.00  0.00    +0.000 A 
ATOM     26  C   UNL     1       0.812   2.368  21.040  0.00  0.00    +0.000 A 
ATOM     27  C   UNL     1       1.900   2.453  21.871  0.00  0.00    +0.000 A 
ATOM     28  O   UNL     1       2.920   3.092  21.249  0.00  0.00    +0.000 OA
ENDBRANCH   5  24
TORSDOF 5
ENDMDL
MODEL 6
REMARK VINA RESULT:      -7.5      2.884      6.622
REMARK  Name = 
REMARK  5 active torsions:
REMARK  status: ('A' for Active; 'I' for Inactive)
REMARK    1  A    between atoms: C_2  and  O_3
REMARK    2  A    between atoms: C_2  and  C_4
REMARK    3  A    between atoms: C_8  and  N_9
REMARK    4  A    between atoms: C_11  and  C_12
REMARK    5  A    between atoms: C_19  and  C_20
REMARK                            x       y       z     vdW  Elec       q    Type
REMARK                         _______ _______ _______ _____ _____    ______ ____
ROOT
ATOM      1  N   UNL     1       4.079   5.797  17.295  0.00  0.00    +0.000 N 
ATOM      2  N   UNL     1       3.787   7.158  17.432  0.00  0.00    +0.000 NA
ATOM      3  C   UNL     1       2.797   7.239  18.289  0.00  0.00    +0.000 C 
ATOM      4  C   UNL     1       2.468   5.915  18.862  0.00  0.00    +0.000 C 
ATOM      5  C   UNL     1       1.783   5.654  19.983  0.00  0.00    +0.000 C 
ATOM      6  C   UNL     1       3.251   4.954  18.054  0.00  0.00    +0.000 C 
ATOM      7  O   UNL     1       3.160   3.741  18.090  0.00  0.00    +0.000 OA
ENDROOT
BRANCH   1  12
ATOM      8  C   UNL     1       5.948   4.356  14.393  0.00  0.00    +0.000 A 
ATOM      9  C   UNL     1       7.263   4.721  14.705  0.00  0.00    +0.000 A 
ATOM     10  C   UNL     1       7.526   5.386  15.898  0.00  0.00    +0.000 A 
ATOM     11  C   UNL     1       6.476   5.719  16.757  0.00  0.00    +0.000 A 
ATOM     12  C   UNL     1       5.146   5.387  16.455  0.00  0.00    +0.000 A 
ATOM     13  C   UNL     1       4.897   4.684  15.268  0.00  0.00    +0.000 A 
BRANCH   8  15
ATOM     14  O   UNL     1       4.506   3.733  12.606  0.00  0.00    +0.000 OA
ATOM     15  C   UNL     1       5.619   3.699  13.104  0.00  0.00    +0.000 C 
BRANCH  15  16
ATOM     16  O   UNL     1       6.657   3.044  12.542  0.00  0.00    +0.000 OA
ATOM     17  H   UNL     1       6.486   2.109  12.324  0.00  0.00    +0.000 HD
ENDBRANCH  15  16
ENDBRANCH   8  15
ENDBRANCH   1  12
BRANCH   3  18
ATOM     18  C   UNL     1       2.088   8.487  18.637  0.00  0.00    +0.000 A 
ATOM     19  C   UNL     1       2.047   9.572  17.748  0.00  0.00    +0.000 A 
ATOM     20  C   UNL     1       1.343  10.732  18.076  0.00  0.00    +0.000 A 
ATOM     21  C   UNL     1       0.715  10.836  19.314  0.00  0.00    +0.000 A 
ATOM     22  C   UNL     1       0.796   9.781  20.225  0.00  0.00    +0.000 A 
ATOM     23  C   UNL     1       1.483   8.608  19.892  0.00  0.00    +0.000 A 
ENDBRANCH   3  18
BRANCH   5  24
ATOM     24  C   UNL     1       1.718   4.358  20.551  0.00  0.00    +0.000 A 
ATOM     25  C   UNL     1       2.415   3.815  21.622  0.00  0.00    +0.000 A 
ATOM     26  C   UNL     1       1.980   2.477  21.780  0.00  0.00    +0.000 A 
ATOM     27  C   UNL     1       1.047   2.266  20.796  0.00  0.00    +0.000 A 
ATOM     28  O   UNL     1       0.896   3.381  20.043  0.00  0.00    +0.000 OA
ENDBRANCH   5  24
TORSDOF 5
ENDMDL
MODEL 7
REMARK VINA RESULT:      -7.5      4.449      6.784
REMARK  Name = 
REMARK  5 active torsions:
REMARK  status: ('A' for Active; 'I' for Inactive)
REMARK    1  A    between atoms: C_2  and  O_3
REMARK    2  A    between atoms: C_2  and  C_4
REMARK    3  A    between atoms: C_8  and  N_9
REMARK    4  A    between atoms: C_11  and  C_12
REMARK    5  A    between atoms: C_19  and  C_20
REMARK                            x       y       z     vdW  Elec       q    Type
REMARK                         _______ _______ _______ _____ _____    ______ ____
ROOT
ATOM      1  N   UNL     1       4.079   4.476  17.106  0.00  0.00    +0.000 N 
ATOM      2  N   UNL     1       4.342   3.811  15.904  0.00  0.00    +0.000 NA
ATOM      3  C   UNL     1       5.343   4.445  15.342  0.00  0.00    +0.000 C 
ATOM      4  C   UNL     1       5.878   5.504  16.227  0.00  0.00    +0.000 C 
ATOM      5  C   UNL     1       7.072   6.106  16.157  0.00  0.00    +0.000 C 
ATOM      6  C   UNL     1       4.901   5.591  17.336  0.00  0.00    +0.000 C 
ATOM      7  O   UNL     1       4.876   6.439  18.208  0.00  0.00    +0.000 OA
ENDROOT
BRANCH   1  12
ATOM      8  C   UNL     1       2.368   3.038  20.105  0.00  0.00    +0.000 A 
ATOM      9  C   UNL     1       1.022   3.189  19.751  0.00  0.00    +0.000 A 
ATOM     10  C   UNL     1       0.694   3.708  18.504  0.00  0.00    +0.000 A 
ATOM     11  C   UNL     1       1.706   4.110  17.628  0.00  0.00    +0.000 A 
ATOM     12  C   UNL     1       3.062   3.994  17.969  0.00  0.00    +0.000 A 
ATOM     13  C   UNL     1       3.381   3.435  19.215  0.00  0.00    +0.000 A 
BRANCH   8  15
ATOM     14  O   UNL     1       3.842   2.037  21.682  0.00  0.00    +0.000 OA
ATOM     15  C   UNL     1       2.758   2.544  21.449  0.00  0.00    +0.000 C 
BRANCH  15  16
ATOM     16  O   UNL     1       1.797   2.688  22.386  0.00  0.00    +0.000 OA
ATOM     17  H   UNL     1       1.178   1.939  22.461  0.00  0.00    +0.000 HD
ENDBRANCH  15  16
ENDBRANCH   8  15
ENDBRANCH   1  12
BRANCH   3  18
ATOM     18  C   UNL     1       5.872   4.153  13.994  0.00  0.00    +0.000 A 
ATOM     19  C   UNL     1       7.068   4.731  13.542  0.00  0.00    +0.000 A 
ATOM     20  C   UNL     1       7.575   4.418  12.279  0.00  0.00    +0.000 A 
ATOM     21  C   UNL     1       6.868   3.561  11.441  0.00  0.00    +0.000 A 
ATOM     22  C   UNL     1       5.651   3.023  11.864  0.00  0.00    +0.000 A 
ATOM     23  C   UNL     1       5.150   3.318  13.137  0.00  0.00    +0.000 A 
ENDBRANCH   3  18
BRANCH   5  24
ATOM     24  C   UNL     1       7.562   6.947  17.186  0.00  0.00    +0.000 A 
ATOM     25  C   UNL     1       8.057   6.626  18.442  0.00  0.00    +0.000 A 
ATOM     26  C   UNL     1       8.411   7.838  19.084  0.00  0.00    +0.000 A 
ATOM     27  C   UNL     1       8.110   8.837  18.193  0.00  0.00    +0.000 A 
ATOM     28  O   UNL     1       7.583   8.315  17.060  0.00  0.00    +0.000 OA
ENDBRANCH   5  24
TORSDOF 5
ENDMDL
MODEL 8
REMARK VINA RESULT:      -7.2      1.742      2.138
REMARK  Name = 
REMARK  5 active torsions:
REMARK  status: ('A' for Active; 'I' for Inactive)
REMARK    1  A    between atoms: C_2  and  O_3
REMARK    2  A    between atoms: C_2  and  C_4
REMARK    3  A    between atoms: C_8  and  N_9
REMARK    4  A    between atoms: C_11  and  C_12
REMARK    5  A    between atoms: C_19  and  C_20
REMARK                            x       y       z     vdW  Elec       q    Type
REMARK                         _______ _______ _______ _____ _____    ______ ____
ROOT
ATOM      1  N   UNL     1       2.569   7.763  18.372  0.00  0.00    +0.000 N 
ATOM      2  N   UNL     1       3.503   7.587  17.346  0.00  0.00    +0.000 NA
ATOM      3  C   UNL     1       4.037   6.404  17.530  0.00  0.00    +0.000 C 
ATOM      4  C   UNL     1       3.375   5.679  18.639  0.00  0.00    +0.000 C 
ATOM      5  C   UNL     1       3.400   4.364  18.889  0.00  0.00    +0.000 C 
ATOM      6  C   UNL     1       2.499   6.689  19.273  0.00  0.00    +0.000 C 
ATOM      7  O   UNL     1       1.887   6.557  20.317  0.00  0.00    +0.000 OA
ENDROOT
BRANCH   1  12
ATOM      8  C   UNL     1       1.629  11.381  18.499  0.00  0.00    +0.000 A 
ATOM      9  C   UNL     1       0.240  11.310  18.342  0.00  0.00    +0.000 A 
ATOM     10  C   UNL     1      -0.377  10.067  18.256  0.00  0.00    +0.000 A 
ATOM     11  C   UNL     1       0.393   8.902  18.288  0.00  0.00    +0.000 A 
ATOM     12  C   UNL     1       1.789   8.947  18.418  0.00  0.00    +0.000 A 
ATOM     13  C   UNL     1       2.398  10.204  18.541  0.00  0.00    +0.000 A 
BRANCH   8  15
ATOM     14  O   UNL     1       2.596  13.273  19.571  0.00  0.00    +0.000 OA
ATOM     15  C   UNL     1       2.332  12.688  18.534  0.00  0.00    +0.000 C 
BRANCH  15  16
ATOM     16  O   UNL     1       2.633  13.181  17.314  0.00  0.00    +0.000 OA
ATOM     17  H   UNL     1       3.126  14.022  17.318  0.00  0.00    +0.000 HD
ENDBRANCH  15  16
ENDBRANCH   8  15
ENDBRANCH   1  12
BRANCH   3  18
ATOM     18  C   UNL     1       5.162   5.857  16.744  0.00  0.00    +0.000 A 
ATOM     19  C   UNL     1       6.354   5.455  17.364  0.00  0.00    +0.000 A 
ATOM     20  C   UNL     1       7.395   4.907  16.613  0.00  0.00    +0.000 A 
ATOM     21  C   UNL     1       7.271   4.800  15.231  0.00  0.00    +0.000 A 
ATOM     22  C   UNL     1       6.108   5.246  14.600  0.00  0.00    +0.000 A 
ATOM     23  C   UNL     1       5.054   5.777  15.352  0.00  0.00    +0.000 A 
ENDBRANCH   3  18
BRANCH   5  24
ATOM     24  C   UNL     1       2.553   3.755  19.846  0.00  0.00    +0.000 A 
ATOM     25  C   UNL     1       1.238   3.325  19.732  0.00  0.00    +0.000 A 
ATOM     26  C   UNL     1       0.853   2.789  20.985  0.00  0.00    +0.000 A 
ATOM     27  C   UNL     1       1.946   2.924  21.803  0.00  0.00    +0.000 A 
ATOM     28  O   UNL     1       2.964   3.518  21.136  0.00  0.00    +0.000 OA
ENDBRANCH   5  24
TORSDOF 5
ENDMDL
MODEL 9
REMARK VINA RESULT:      -7.2      3.633      6.845
REMARK  Name = 
REMARK  5 active torsions:
REMARK  status: ('A' for Active; 'I' for Inactive)
REMARK    1  A    between atoms: C_2  and  O_3
REMARK    2  A    between atoms: C_2  and  C_4
REMARK    3  A    between atoms: C_8  and  N_9
REMARK    4  A    between atoms: C_11  and  C_12
REMARK    5  A    between atoms: C_19  and  C_20
REMARK                            x       y       z     vdW  Elec       q    Type
REMARK                         _______ _______ _______ _____ _____    ______ ____
ROOT
ATOM      1  N   UNL     1       0.758  12.366  19.112  0.00  0.00    +0.000 N 
ATOM      2  N   UNL     1       1.671  11.315  19.248  0.00  0.00    +0.000 NA
ATOM      3  C   UNL     1       1.020  10.218  18.944  0.00  0.00    +0.000 C 
ATOM      4  C   UNL     1      -0.348  10.517  18.464  0.00  0.00    +0.000 C 
ATOM      5  C   UNL     1      -1.161   9.721  17.757  0.00  0.00    +0.000 C 
ATOM      6  C   UNL     1      -0.533  11.959  18.739  0.00  0.00    +0.000 C 
ATOM      7  O   UNL     1      -1.572  12.584  18.637  0.00  0.00    +0.000 OA
ENDROOT
BRANCH   1  12
ATOM      8  C   UNL     1       2.370  15.702  18.598  0.00  0.00    +0.000 A 
ATOM      9  C   UNL     1       1.889  16.412  19.705  0.00  0.00    +0.000 A 
ATOM     10  C   UNL     1       1.088  15.766  20.639  0.00  0.00    +0.000 A 
ATOM     11  C   UNL     1       0.736  14.427  20.450  0.00  0.00    +0.000 A 
ATOM     12  C   UNL     1       1.183  13.701  19.336  0.00  0.00    +0.000 A 
ATOM     13  C   UNL     1       2.021  14.352  18.419  0.00  0.00    +0.000 A 
BRANCH   8  15
ATOM     14  O   UNL     1       3.004  17.530  17.213  0.00  0.00    +0.000 OA
ATOM     15  C   UNL     1       3.178  16.371  17.548  0.00  0.00    +0.000 C 
BRANCH  15  16
ATOM     16  O   UNL     1       4.109  15.573  16.983  0.00  0.00    +0.000 OA
ATOM     17  H   UNL     1       5.022  15.720  17.293  0.00  0.00    +0.000 HD
ENDBRANCH  15  16
ENDBRANCH   8  15
ENDBRANCH   1  12
BRANCH   3  18
ATOM     18  C   UNL     1       1.570   8.853  19.070  0.00  0.00    +0.000 A 
ATOM     19  C   UNL     1       2.175   8.210  17.980  0.00  0.00    +0.000 A 
ATOM     20  C   UNL     1       2.722   6.934  18.123  0.00  0.00    +0.000 A 
ATOM     21  C   UNL     1       2.627   6.271  19.343  0.00  0.00    +0.000 A 
ATOM     22  C   UNL     1       1.980   6.883  20.418  0.00  0.00    +0.000 A 
ATOM     23  C   UNL     1       1.449   8.171  20.285  0.00  0.00    +0.000 A 
ENDBRANCH   3  18
BRANCH   5  24
ATOM     24  C   UNL     1      -2.359  10.189  17.166  0.00  0.00    +0.000 A 
ATOM     25  C   UNL     1      -3.658  10.189  17.655  0.00  0.00    +0.000 A 
ATOM     26  C   UNL     1      -4.488  10.769  16.666  0.00  0.00    +0.000 A 
ATOM     27  C   UNL     1      -3.659  11.089  15.621  0.00  0.00    +0.000 A 
ATOM     28  O   UNL     1      -2.385  10.729  15.902  0.00  0.00    +0.000 OA
ENDBRANCH   5  24
TORSDOF 5
ENDMDL
