MODEL 1
REMARK VINA RESULT:      -8.0      0.000      0.000
REMARK  Name = 
REMARK  3 active torsions:
REMARK  status: ('A' for Active; 'I' for Inactive)
REMARK    1  A    between atoms: S_2  and  C_4
REMARK    2  A    between atoms: S_2  and  N_19
REMARK    3  A    between atoms: C_10  and  C_11
REMARK                            x       y       z     vdW  Elec       q    Type
REMARK                         _______ _______ _______ _____ _____    ______ ____
ROOT
ATOM      1  O   UNL     1      -1.202   9.421  20.661  0.00  0.00    +0.000 OA
ATOM      2  S   UNL     1       0.062  10.043  20.968  0.00  0.00    +0.000 S 
ATOM      3  O   UNL     1       0.869   9.561  22.071  0.00  0.00    +0.000 OA
ENDROOT
BRANCH   2   4
ATOM      4  N   UNL     1      -0.179  11.705  21.228  0.00  0.00    +0.000 NA
ATOM      5  C   UNL     1      -0.989  12.453  20.204  0.00  0.00    +0.000 C 
ATOM      6  C   UNL     1      -2.513  12.308  20.412  0.00  0.00    +0.000 C 
ATOM      7  N   UNL     1      -2.821  12.767  21.778  0.00  0.00    +0.000 N 
ATOM      8  C   UNL     1      -4.182  12.945  22.065  0.00  0.00    +0.000 A 
ATOM      9  C   UNL     1      -4.509  13.900  23.032  0.00  0.00    +0.000 A 
ATOM     10  C   UNL     1      -5.838  14.116  23.378  0.00  0.00    +0.000 A 
ATOM     11  C   UNL     1      -6.816  13.362  22.753  0.00  0.00    +0.000 A 
ATOM     12  C   UNL     1      -6.417  12.442  21.796  0.00  0.00    +0.000 A 
ATOM     13  N   UNL     1      -5.129  12.228  21.430  0.00  0.00    +0.000 NA
ATOM     14  C   UNL     1      -2.160  11.918  22.791  0.00  0.00    +0.000 C 
ATOM     15  C   UNL     1      -0.633  12.048  22.622  0.00  0.00    +0.000 C 
ENDBRANCH   2   4
BRANCH   2  16
ATOM     16  C   UNL     1       1.093   9.856  19.581  0.00  0.00    +0.000 A 
ATOM     17  C   UNL     1       1.400  10.743  18.566  0.00  0.00    +0.000 A 
ATOM     18  N   UNL     1       2.209  10.179  17.620  0.00  0.00    +0.000 NA
ATOM     19  C   UNL     1       2.404   8.950  18.044  0.00  0.00    +0.000 A 
ATOM     20  C   UNL     1       3.117   7.890  17.451  0.00  0.00    +0.000 A 
ATOM     21  C   UNL     1       3.148   6.696  18.051  0.00  0.00    +0.000 A 
ATOM     22  C   UNL     1       2.402   6.546  19.338  0.00  0.00    +0.000 A 
ATOM     23  N   UNL     1       1.749   7.506  19.926  0.00  0.00    +0.000 NA
ATOM     24  N   UNL     1       1.768   8.704  19.253  0.00  0.00    +0.000 N 
BRANCH  22  25
ATOM     25  C   UNL     1       2.416   5.187  19.942  0.00  0.00    +0.000 A 
ATOM     26  C   UNL     1       1.328   4.711  20.676  0.00  0.00    +0.000 A 
ATOM     27  C   UNL     1       1.372   3.418  21.202  0.00  0.00    +0.000 A 
ATOM     28  C   UNL     1       2.498   2.643  20.966  0.00  0.00    +0.000 A 
ATOM     29  N   UNL     1       3.564   3.071  20.257  0.00  0.00    +0.000 NA
ATOM     30  C   UNL     1       3.494   4.327  19.754  0.00  0.00    +0.000 A 
ENDBRANCH  22  25
ENDBRANCH   2  16
TORSDOF 3
ENDMDL
MODEL 2
REMARK VINA RESULT:      -7.7      4.774     10.759
REMARK  Name = 
REMARK  3 active torsions:
REMARK  status: ('A' for Active; 'I' for Inactive)
REMARK    1  A    between atoms: S_2  and  C_4
REMARK    2  A    between atoms: S_2  and  N_19
REMARK    3  A    between atoms: C_10  and  C_11
REMARK                            x       y       z     vdW  Elec       q    Type
REMARK                         _______ _______ _______ _____ _____    ______ ____
ROOT
ATOM      1  O   UNL     1       6.786   5.874  19.647  0.00  0.00    +0.000 OA
ATOM      2  S   UNL     1       6.294   4.989  18.620  0.00  0.00    +0.000 S 
ATOM      3  O   UNL     1       7.157   3.974  18.051  0.00  0.00    +0.000 OA
ENDROOT
BRANCH   2   4
ATOM      4  N   UNL     1       5.701   5.910  17.322  0.00  0.00    +0.000 NA
ATOM      5  C   UNL     1       6.674   6.279  16.235  0.00  0.00    +0.000 C 
ATOM      6  C   UNL     1       6.885   5.151  15.200  0.00  0.00    +0.000 C 
ATOM      7  N   UNL     1       5.565   4.808  14.642  0.00  0.00    +0.000 N 
ATOM      8  C   UNL     1       5.583   3.981  13.510  0.00  0.00    +0.000 A 
ATOM      9  C   UNL     1       4.520   4.110  12.612  0.00  0.00    +0.000 A 
ATOM     10  C   UNL     1       4.464   3.309  11.476  0.00  0.00    +0.000 A 
ATOM     11  C   UNL     1       5.474   2.385  11.268  0.00  0.00    +0.000 A 
ATOM     12  C   UNL     1       6.501   2.322  12.197  0.00  0.00    +0.000 A 
ATOM     13  N   UNL     1       6.584   3.105  13.300  0.00  0.00    +0.000 NA
ATOM     14  C   UNL     1       4.662   4.279  15.686  0.00  0.00    +0.000 C 
ATOM     15  C   UNL     1       4.418   5.384  16.732  0.00  0.00    +0.000 C 
ENDBRANCH   2   4
BRANCH   2  16
ATOM     16  C   UNL     1       4.969   4.085  19.293  0.00  0.00    +0.000 A 
ATOM     17  C   UNL     1       4.806   2.723  19.457  0.00  0.00    +0.000 A 
ATOM     18  N   UNL     1       3.579   2.413  19.974  0.00  0.00    +0.000 NA
ATOM     19  C   UNL     1       2.984   3.574  20.128  0.00  0.00    +0.000 A 
ATOM     20  C   UNL     1       1.683   3.872  20.577  0.00  0.00    +0.000 A 
ATOM     21  C   UNL     1       1.271   5.144  20.616  0.00  0.00    +0.000 A 
ATOM     22  C   UNL     1       2.229   6.197  20.162  0.00  0.00    +0.000 A 
ATOM     23  N   UNL     1       3.444   5.963  19.760  0.00  0.00    +0.000 NA
ATOM     24  N   UNL     1       3.797   4.635  19.754  0.00  0.00    +0.000 N 
BRANCH  22  25
ATOM     25  C   UNL     1       1.711   7.592  20.168  0.00  0.00    +0.000 A 
ATOM     26  C   UNL     1       1.133   8.143  21.313  0.00  0.00    +0.000 A 
ATOM     27  C   UNL     1       0.685   9.466  21.283  0.00  0.00    +0.000 A 
ATOM     28  C   UNL     1       0.840  10.193  20.112  0.00  0.00    +0.000 A 
ATOM     29  N   UNL     1       1.399   9.691  18.989  0.00  0.00    +0.000 NA
ATOM     30  C   UNL     1       1.829   8.409  19.047  0.00  0.00    +0.000 A 
ENDBRANCH  22  25
ENDBRANCH   2  16
TORSDOF 3
ENDMDL
MODEL 3
REMARK VINA RESULT:      -7.7      1.335      1.464
REMARK  Name = 
REMARK  3 active torsions:
REMARK  status: ('A' for Active; 'I' for Inactive)
REMARK    1  A    between atoms: S_2  and  C_4
REMARK    2  A    between atoms: S_2  and  N_19
REMARK    3  A    between atoms: C_10  and  C_11
REMARK                            x       y       z     vdW  Elec       q    Type
REMARK                         _______ _______ _______ _____ _____    ______ ____
ROOT
ATOM      1  O   UNL     1      -1.371  10.105  19.915  0.00  0.00    +0.000 OA
ATOM      2  S   UNL     1      -0.170   9.622  20.551  0.00  0.00    +0.000 S 
ATOM      3  O   UNL     1      -0.157   8.334  21.214  0.00  0.00    +0.000 OA
ENDROOT
BRANCH   2   4
ATOM      4  N   UNL     1       0.360  10.764  21.691  0.00  0.00    +0.000 NA
ATOM      5  C   UNL     1       0.502  12.189  21.227  0.00  0.00    +0.000 C 
ATOM      6  C   UNL     1      -0.835  12.964  21.229  0.00  0.00    +0.000 C 
ATOM      7  N   UNL     1      -1.385  12.898  22.595  0.00  0.00    +0.000 N 
ATOM      8  C   UNL     1      -2.466  13.752  22.855  0.00  0.00    +0.000 A 
ATOM      9  C   UNL     1      -2.629  14.189  24.172  0.00  0.00    +0.000 A 
ATOM     10  C   UNL     1      -3.691  15.024  24.504  0.00  0.00    +0.000 A 
ATOM     11  C   UNL     1      -4.576  15.397  23.507  0.00  0.00    +0.000 A 
ATOM     12  C   UNL     1      -4.344  14.932  22.223  0.00  0.00    +0.000 A 
ATOM     13  N   UNL     1      -3.306  14.133  21.874  0.00  0.00    +0.000 NA
ATOM     14  C   UNL     1      -1.687  11.505  22.985  0.00  0.00    +0.000 C 
ATOM     15  C   UNL     1      -0.371  10.703  23.006  0.00  0.00    +0.000 C 
ENDBRANCH   2   4
BRANCH   2  16
ATOM     16  C   UNL     1       1.054   9.475  19.324  0.00  0.00    +0.000 A 
ATOM     17  C   UNL     1       1.440  10.357  18.333  0.00  0.00    +0.000 A 
ATOM     18  N   UNL     1       2.407   9.829  17.525  0.00  0.00    +0.000 NA
ATOM     19  C   UNL     1       2.620   8.626  18.010  0.00  0.00    +0.000 A 
ATOM     20  C   UNL     1       3.475   7.604  17.553  0.00  0.00    +0.000 A 
ATOM     21  C   UNL     1       3.499   6.428  18.190  0.00  0.00    +0.000 A 
ATOM     22  C   UNL     1       2.594   6.257  19.366  0.00  0.00    +0.000 A 
ATOM     23  N   UNL     1       1.805   7.183  19.829  0.00  0.00    +0.000 NA
ATOM     24  N   UNL     1       1.840   8.364  19.128  0.00  0.00    +0.000 N 
BRANCH  22  25
ATOM     25  C   UNL     1       2.611   4.915  20.010  0.00  0.00    +0.000 A 
ATOM     26  C   UNL     1       1.578   4.506  20.854  0.00  0.00    +0.000 A 
ATOM     27  C   UNL     1       1.621   3.227  21.414  0.00  0.00    +0.000 A 
ATOM     28  C   UNL     1       2.691   2.400  21.102  0.00  0.00    +0.000 A 
ATOM     29  N   UNL     1       3.702   2.764  20.285  0.00  0.00    +0.000 NA
ATOM     30  C   UNL     1       3.633   4.007  19.751  0.00  0.00    +0.000 A 
ENDBRANCH  22  25
ENDBRANCH   2  16
TORSDOF 3
ENDMDL
MODEL 4
REMARK VINA RESULT:      -7.7      3.556      5.414
REMARK  Name = 
REMARK  3 active torsions:
REMARK  status: ('A' for Active; 'I' for Inactive)
REMARK    1  A    between atoms: S_2  and  C_4
REMARK    2  A    between atoms: S_2  and  N_19
REMARK    3  A    between atoms: C_10  and  C_11
REMARK                            x       y       z     vdW  Elec       q    Type
REMARK                         _______ _______ _______ _____ _____    ______ ____
ROOT
ATOM      1  O   UNL     1       2.331  10.602  18.529  0.00  0.00    +0.000 OA
ATOM      2  S   UNL     1       1.004  10.126  18.829  0.00  0.00    +0.000 S 
ATOM      3  O   UNL     1       0.124   9.686  17.765  0.00  0.00    +0.000 OA
ENDROOT
BRANCH   2   4
ATOM      4  N   UNL     1       0.162  11.319  19.698  0.00  0.00    +0.000 NA
ATOM      5  C   UNL     1       0.967  12.208  20.606  0.00  0.00    +0.000 C 
ATOM      6  C   UNL     1       1.646  13.379  19.863  0.00  0.00    +0.000 C 
ATOM      7  N   UNL     1       0.591  14.138  19.169  0.00  0.00    +0.000 N 
ATOM      8  C   UNL     1       0.980  15.380  18.646  0.00  0.00    +0.000 A 
ATOM      9  C   UNL     1      -0.005  16.365  18.543  0.00  0.00    +0.000 A 
ATOM     10  C   UNL     1       0.307  17.613  18.018  0.00  0.00    +0.000 A 
ATOM     11  C   UNL     1       1.604  17.847  17.595  0.00  0.00    +0.000 A 
ATOM     12  C   UNL     1       2.530  16.826  17.738  0.00  0.00    +0.000 A 
ATOM     13  N   UNL     1       2.252  15.609  18.264  0.00  0.00    +0.000 NA
ATOM     14  C   UNL     1      -0.085  13.308  18.150  0.00  0.00    +0.000 C 
ATOM     15  C   UNL     1      -0.787  12.133  18.859  0.00  0.00    +0.000 C 
ENDBRANCH   2   4
BRANCH   2  16
ATOM     16  C   UNL     1       1.163   8.725  19.848  0.00  0.00    +0.000 A 
ATOM     17  C   UNL     1       0.669   8.478  21.115  0.00  0.00    +0.000 A 
ATOM     18  N   UNL     1       1.078   7.266  21.596  0.00  0.00    +0.000 NA
ATOM     19  C   UNL     1       1.821   6.764  20.635  0.00  0.00    +0.000 A 
ATOM     20  C   UNL     1       2.547   5.558  20.588  0.00  0.00    +0.000 A 
ATOM     21  C   UNL     1       3.276   5.267  19.506  0.00  0.00    +0.000 A 
ATOM     22  C   UNL     1       3.289   6.260  18.389  0.00  0.00    +0.000 A 
ATOM     23  N   UNL     1       2.616   7.374  18.387  0.00  0.00    +0.000 NA
ATOM     24  N   UNL     1       1.886   7.601  19.529  0.00  0.00    +0.000 N 
BRANCH  22  25
ATOM     25  C   UNL     1       4.158   5.922  17.230  0.00  0.00    +0.000 A 
ATOM     26  C   UNL     1       4.391   4.595  16.865  0.00  0.00    +0.000 A 
ATOM     27  C   UNL     1       5.191   4.323  15.752  0.00  0.00    +0.000 A 
ATOM     28  C   UNL     1       5.719   5.389  15.038  0.00  0.00    +0.000 A 
ATOM     29  N   UNL     1       5.508   6.683  15.362  0.00  0.00    +0.000 NA
ATOM     30  C   UNL     1       4.726   6.918  16.441  0.00  0.00    +0.000 A 
ENDBRANCH  22  25
ENDBRANCH   2  16
TORSDOF 3
ENDMDL
MODEL 5
REMARK VINA RESULT:      -7.7      4.710      7.934
REMARK  Name = 
REMARK  3 active torsions:
REMARK  status: ('A' for Active; 'I' for Inactive)
REMARK    1  A    between atoms: S_2  and  C_4
REMARK    2  A    between atoms: S_2  and  N_19
REMARK    3  A    between atoms: C_10  and  C_11
REMARK                            x       y       z     vdW  Elec       q    Type
REMARK                         _______ _______ _______ _____ _____    ______ ____
ROOT
ATOM      1  O   UNL     1      -5.962  12.145  23.097  0.00  0.00    +0.000 OA
ATOM      2  S   UNL     1      -6.508  13.476  22.987  0.00  0.00    +0.000 S 
ATOM      3  O   UNL     1      -7.746  13.818  23.658  0.00  0.00    +0.000 OA
ENDROOT
BRANCH   2   4
ATOM      4  N   UNL     1      -6.717  13.864  21.347  0.00  0.00    +0.000 NA
ATOM      5  C   UNL     1      -5.597  14.600  20.664  0.00  0.00    +0.000 C 
ATOM      6  C   UNL     1      -4.459  13.669  20.189  0.00  0.00    +0.000 C 
ATOM      7  N   UNL     1      -5.055  12.656  19.299  0.00  0.00    +0.000 N 
ATOM      8  C   UNL     1      -4.144  11.877  18.573  0.00  0.00    +0.000 A 
ATOM      9  C   UNL     1      -4.575  11.375  17.342  0.00  0.00    +0.000 A 
ATOM     10  C   UNL     1      -3.729  10.579  16.577  0.00  0.00    +0.000 A 
ATOM     11  C   UNL     1      -2.467  10.294  17.067  0.00  0.00    +0.000 A 
ATOM     12  C   UNL     1      -2.105  10.835  18.291  0.00  0.00    +0.000 A 
ATOM     13  N   UNL     1      -2.907  11.627  19.044  0.00  0.00    +0.000 NA
ATOM     14  C   UNL     1      -6.033  11.817  20.022  0.00  0.00    +0.000 C 
ATOM     15  C   UNL     1      -7.193  12.713  20.500  0.00  0.00    +0.000 C 
ENDBRANCH   2   4
BRANCH   2  16
ATOM     16  C   UNL     1      -5.346  14.580  23.661  0.00  0.00    +0.000 A 
ATOM     17  C   UNL     1      -5.517  15.837  24.210  0.00  0.00    +0.000 A 
ATOM     18  N   UNL     1      -4.327  16.405  24.570  0.00  0.00    +0.000 NA
ATOM     19  C   UNL     1      -3.423  15.507  24.246  0.00  0.00    +0.000 A 
ATOM     20  C   UNL     1      -2.018  15.563  24.341  0.00  0.00    +0.000 A 
ATOM     21  C   UNL     1      -1.285  14.531  23.909  0.00  0.00    +0.000 A 
ATOM     22  C   UNL     1      -2.010  13.360  23.327  0.00  0.00    +0.000 A 
ATOM     23  N   UNL     1      -3.304  13.265  23.241  0.00  0.00    +0.000 NA
ATOM     24  N   UNL     1      -3.990  14.359  23.712  0.00  0.00    +0.000 N 
BRANCH  22  25
ATOM     25  C   UNL     1      -1.153  12.261  22.806  0.00  0.00    +0.000 A 
ATOM     26  C   UNL     1      -1.333  10.943  23.229  0.00  0.00    +0.000 A 
ATOM     27  C   UNL     1      -0.525   9.938  22.693  0.00  0.00    +0.000 A 
ATOM     28  C   UNL     1       0.426  10.285  21.746  0.00  0.00    +0.000 A 
ATOM     29  N   UNL     1       0.622  11.548  21.312  0.00  0.00    +0.000 NA
ATOM     30  C   UNL     1      -0.177  12.503  21.844  0.00  0.00    +0.000 A 
ENDBRANCH  22  25
ENDBRANCH   2  16
TORSDOF 3
ENDMDL
MODEL 6
REMARK VINA RESULT:      -7.3      8.390     11.460
REMARK  Name = 
REMARK  3 active torsions:
REMARK  status: ('A' for Active; 'I' for Inactive)
REMARK    1  A    between atoms: S_2  and  C_4
REMARK    2  A    between atoms: S_2  and  N_19
REMARK    3  A    between atoms: C_10  and  C_11
REMARK                            x       y       z     vdW  Elec       q    Type
REMARK                         _______ _______ _______ _____ _____    ______ ____
ROOT
ATOM      1  O   UNL     1       9.044  12.492  17.586  0.00  0.00    +0.000 OA
ATOM      2  S   UNL     1      10.325  13.124  17.781  0.00  0.00    +0.000 S 
ATOM      3  O   UNL     1      11.381  12.959  16.803  0.00  0.00    +0.000 OA
ENDROOT
BRANCH   2   4
ATOM      4  N   UNL     1      10.966  12.643  19.279  0.00  0.00    +0.000 NA
ATOM      5  C   UNL     1      11.039  13.683  20.364  0.00  0.00    +0.000 C 
ATOM      6  C   UNL     1       9.702  13.870  21.116  0.00  0.00    +0.000 C 
ATOM      7  N   UNL     1       9.310  12.557  21.658  0.00  0.00    +0.000 N 
ATOM      8  C   UNL     1       8.254  12.573  22.581  0.00  0.00    +0.000 A 
ATOM      9  C   UNL     1       8.235  11.560  23.543  0.00  0.00    +0.000 A 
ATOM     10  C   UNL     1       7.208  11.505  24.479  0.00  0.00    +0.000 A 
ATOM     11  C   UNL     1       6.212  12.465  24.426  0.00  0.00    +0.000 A 
ATOM     12  C   UNL     1       6.304  13.445  23.451  0.00  0.00    +0.000 A 
ATOM     13  N   UNL     1       7.306  13.528  22.541  0.00  0.00    +0.000 NA
ATOM     14  C   UNL     1       9.069  11.580  20.576  0.00  0.00    +0.000 C 
ATOM     15  C   UNL     1      10.388  11.358  19.810  0.00  0.00    +0.000 C 
ENDBRANCH   2   4
BRANCH   2  16
ATOM     16  C   UNL     1      10.063  14.843  17.831  0.00  0.00    +0.000 A 
ATOM     17  C   UNL     1      10.952  15.890  17.679  0.00  0.00    +0.000 A 
ATOM     18  N   UNL     1      10.348  17.103  17.853  0.00  0.00    +0.000 NA
ATOM     19  C   UNL     1       9.093  16.812  18.112  0.00  0.00    +0.000 A 
ATOM     20  C   UNL     1       8.013  17.661  18.425  0.00  0.00    +0.000 A 
ATOM     21  C   UNL     1       6.814  17.134  18.696  0.00  0.00    +0.000 A 
ATOM     22  C   UNL     1       6.687  15.645  18.660  0.00  0.00    +0.000 A 
ATOM     23  N   UNL     1       7.655  14.831  18.357  0.00  0.00    +0.000 NA
ATOM     24  N   UNL     1       8.853  15.446  18.085  0.00  0.00    +0.000 N 
BRANCH  22  25
ATOM     25  C   UNL     1       5.351  15.099  19.023  0.00  0.00    +0.000 A 
ATOM     26  C   UNL     1       4.498  14.573  18.052  0.00  0.00    +0.000 A 
ATOM     27  C   UNL     1       3.265  14.045  18.440  0.00  0.00    +0.000 A 
ATOM     28  C   UNL     1       2.933  14.053  19.787  0.00  0.00    +0.000 A 
ATOM     29  N   UNL     1       3.737  14.550  20.751  0.00  0.00    +0.000 NA
ATOM     30  C   UNL     1       4.929  15.051  20.348  0.00  0.00    +0.000 A 
ENDBRANCH  22  25
ENDBRANCH   2  16
TORSDOF 3
ENDMDL
MODEL 7
REMARK VINA RESULT:      -7.1      2.759      4.008
REMARK  Name = 
REMARK  3 active torsions:
REMARK  status: ('A' for Active; 'I' for Inactive)
REMARK    1  A    between atoms: S_2  and  C_4
REMARK    2  A    between atoms: S_2  and  N_19
REMARK    3  A    between atoms: C_10  and  C_11
REMARK                            x       y       z     vdW  Elec       q    Type
REMARK                         _______ _______ _______ _____ _____    ______ ____
ROOT
ATOM      1  O   UNL     1       2.830   9.579  17.452  0.00  0.00    +0.000 OA
ATOM      2  S   UNL     1       1.623   9.471  18.234  0.00  0.00    +0.000 S 
ATOM      3  O   UNL     1       0.341   9.293  17.583  0.00  0.00    +0.000 OA
ENDROOT
BRANCH   2   4
ATOM      4  N   UNL     1       1.478  10.836  19.235  0.00  0.00    +0.000 NA
ATOM      5  C   UNL     1       0.956  12.099  18.607  0.00  0.00    +0.000 C 
ATOM      6  C   UNL     1      -0.585  12.138  18.512  0.00  0.00    +0.000 C 
ATOM      7  N   UNL     1      -1.120  11.956  19.873  0.00  0.00    +0.000 N 
ATOM      8  C   UNL     1      -2.490  12.211  20.025  0.00  0.00    +0.000 A 
ATOM      9  C   UNL     1      -2.921  12.648  21.280  0.00  0.00    +0.000 A 
ATOM     10  C   UNL     1      -4.269  12.903  21.507  0.00  0.00    +0.000 A 
ATOM     11  C   UNL     1      -5.163  12.705  20.469  0.00  0.00    +0.000 A 
ATOM     12  C   UNL     1      -4.661  12.281  19.249  0.00  0.00    +0.000 A 
ATOM     13  N   UNL     1      -3.350  12.044  19.001  0.00  0.00    +0.000 NA
ATOM     14  C   UNL     1      -0.749  10.635  20.422  0.00  0.00    +0.000 C 
ATOM     15  C   UNL     1       0.785  10.565  20.544  0.00  0.00    +0.000 C 
ENDBRANCH   2   4
BRANCH   2  16
ATOM     16  C   UNL     1       1.777   8.068  19.250  0.00  0.00    +0.000 A 
ATOM     17  C   UNL     1       1.196   7.777  20.470  0.00  0.00    +0.000 A 
ATOM     18  N   UNL     1       1.631   6.583  20.972  0.00  0.00    +0.000 NA
ATOM     19  C   UNL     1       2.477   6.135  20.071  0.00  0.00    +0.000 A 
ATOM     20  C   UNL     1       3.272   4.973  20.075  0.00  0.00    +0.000 A 
ATOM     21  C   UNL     1       4.103   4.736  19.054  0.00  0.00    +0.000 A 
ATOM     22  C   UNL     1       4.151   5.743  17.951  0.00  0.00    +0.000 A 
ATOM     23  N   UNL     1       3.419   6.818  17.903  0.00  0.00    +0.000 NA
ATOM     24  N   UNL     1       2.586   6.989  18.983  0.00  0.00    +0.000 N 
BRANCH  22  25
ATOM     25  C   UNL     1       5.129   5.470  16.864  0.00  0.00    +0.000 A 
ATOM     26  C   UNL     1       4.834   4.574  15.835  0.00  0.00    +0.000 A 
ATOM     27  C   UNL     1       5.771   4.368  14.819  0.00  0.00    +0.000 A 
ATOM     28  C   UNL     1       6.965   5.073  14.864  0.00  0.00    +0.000 A 
ATOM     29  N   UNL     1       7.279   5.949  15.842  0.00  0.00    +0.000 NA
ATOM     30  C   UNL     1       6.351   6.134  16.811  0.00  0.00    +0.000 A 
ENDBRANCH  22  25
ENDBRANCH   2  16
TORSDOF 3
ENDMDL
MODEL 8
REMARK VINA RESULT:      -7.1      3.569      9.864
REMARK  Name = 
REMARK  3 active torsions:
REMARK  status: ('A' for Active; 'I' for Inactive)
REMARK    1  A    between atoms: S_2  and  C_4
REMARK    2  A    between atoms: S_2  and  N_19
REMARK    3  A    between atoms: C_10  and  C_11
REMARK                            x       y       z     vdW  Elec       q    Type
REMARK                         _______ _______ _______ _____ _____    ______ ____
ROOT
ATOM      1  O   UNL     1       1.110  12.432  19.006  0.00  0.00    +0.000 OA
ATOM      2  S   UNL     1       0.603  11.773  20.185  0.00  0.00    +0.000 S 
ATOM      3  O   UNL     1       1.478  11.504  21.308  0.00  0.00    +0.000 OA
ENDROOT
BRANCH   2   4
ATOM      4  N   UNL     1      -0.097  10.290  19.742  0.00  0.00    +0.000 NA
ATOM      5  C   UNL     1      -0.073   9.924  18.283  0.00  0.00    +0.000 C 
ATOM      6  C   UNL     1       1.268   9.303  17.835  0.00  0.00    +0.000 C 
ATOM      7  N   UNL     1       1.521   8.127  18.686  0.00  0.00    +0.000 N 
ATOM      8  C   UNL     1       2.564   7.289  18.268  0.00  0.00    +0.000 A 
ATOM      9  C   UNL     1       2.472   5.938  18.613  0.00  0.00    +0.000 A 
ATOM     10  C   UNL     1       3.480   5.053  18.246  0.00  0.00    +0.000 A 
ATOM     11  C   UNL     1       4.568   5.543  17.545  0.00  0.00    +0.000 A 
ATOM     12  C   UNL     1       4.585   6.893  17.229  0.00  0.00    +0.000 A 
ATOM     13  N   UNL     1       3.605   7.769  17.561  0.00  0.00    +0.000 NA
ATOM     14  C   UNL     1       1.671   8.514  20.105  0.00  0.00    +0.000 C 
ATOM     15  C   UNL     1       0.344   9.127  20.591  0.00  0.00    +0.000 C 
ENDBRANCH   2   4
BRANCH   2  16
ATOM     16  C   UNL     1      -0.645  12.782  20.857  0.00  0.00    +0.000 A 
ATOM     17  C   UNL     1      -1.637  12.489  21.772  0.00  0.00    +0.000 A 
ATOM     18  N   UNL     1      -2.463  13.555  21.991  0.00  0.00    +0.000 NA
ATOM     19  C   UNL     1      -1.988  14.504  21.215  0.00  0.00    +0.000 A 
ATOM     20  C   UNL     1      -2.463  15.810  20.988  0.00  0.00    +0.000 A 
ATOM     21  C   UNL     1      -1.832  16.600  20.112  0.00  0.00    +0.000 A 
ATOM     22  C   UNL     1      -0.642  16.040  19.403  0.00  0.00    +0.000 A 
ATOM     23  N   UNL     1      -0.162  14.846  19.601  0.00  0.00    +0.000 NA
ATOM     24  N   UNL     1      -0.859  14.097  20.519  0.00  0.00    +0.000 N 
BRANCH  22  25
ATOM     25  C   UNL     1      -0.006  16.932  18.397  0.00  0.00    +0.000 A 
ATOM     26  C   UNL     1      -0.772  17.789  17.605  0.00  0.00    +0.000 A 
ATOM     27  C   UNL     1      -0.131  18.631  16.693  0.00  0.00    +0.000 A 
ATOM     28  C   UNL     1       1.253  18.592  16.613  0.00  0.00    +0.000 A 
ATOM     29  N   UNL     1       2.023  17.779  17.368  0.00  0.00    +0.000 NA
ATOM     30  C   UNL     1       1.377  16.977  18.247  0.00  0.00    +0.000 A 
ENDBRANCH  22  25
ENDBRANCH   2  16
TORSDOF 3
ENDMDL
MODEL 9
REMARK VINA RESULT:      -7.1      3.748      5.776
REMARK  Name = 
REMARK  3 active torsions:
REMARK  status: ('A' for Active; 'I' for Inactive)
REMARK    1  A    between atoms: S_2  and  C_4
REMARK    2  A    between atoms: S_2  and  N_19
REMARK    3  A    between atoms: C_10  and  C_11
REMARK                            x       y       z     vdW  Elec       q    Type
REMARK                         _______ _______ _______ _____ _____    ______ ____
ROOT
ATOM      1  O   UNL     1       2.237  10.720  18.194  0.00  0.00    +0.000 OA
ATOM      2  S   UNL     1       0.906  10.356  18.615  0.00  0.00    +0.000 S 
ATOM      3  O   UNL     1      -0.066   9.884  17.650  0.00  0.00    +0.000 OA
ENDROOT
BRANCH   2   4
ATOM      4  N   UNL     1       0.195  11.669  19.425  0.00  0.00    +0.000 NA
ATOM      5  C   UNL     1       0.732  12.012  20.788  0.00  0.00    +0.000 C 
ATOM      6  C   UNL     1       2.012  12.876  20.735  0.00  0.00    +0.000 C 
ATOM      7  N   UNL     1       1.698  14.090  19.962  0.00  0.00    +0.000 N 
ATOM      8  C   UNL     1       2.659  15.109  20.017  0.00  0.00    +0.000 A 
ATOM      9  C   UNL     1       2.206  16.421  19.856  0.00  0.00    +0.000 A 
ATOM     10  C   UNL     1       3.107  17.480  19.883  0.00  0.00    +0.000 A 
ATOM     11  C   UNL     1       4.451  17.200  20.061  0.00  0.00    +0.000 A 
ATOM     12  C   UNL     1       4.825  15.876  20.223  0.00  0.00    +0.000 A 
ATOM     13  N   UNL     1       3.961  14.831  20.220  0.00  0.00    +0.000 NA
ATOM     14  C   UNL     1       1.337  13.759  18.567  0.00  0.00    +0.000 C 
ATOM     15  C   UNL     1       0.053  12.907  18.580  0.00  0.00    +0.000 C 
ENDBRANCH   2   4
BRANCH   2  16
ATOM     16  C   UNL     1       1.052   9.039  19.742  0.00  0.00    +0.000 A 
ATOM     17  C   UNL     1       0.551   8.895  21.022  0.00  0.00    +0.000 A 
ATOM     18  N   UNL     1       0.950   7.723  21.599  0.00  0.00    +0.000 NA
ATOM     19  C   UNL     1       1.695   7.143  20.686  0.00  0.00    +0.000 A 
ATOM     20  C   UNL     1       2.415   5.933  20.739  0.00  0.00    +0.000 A 
ATOM     21  C   UNL     1       3.148   5.553  19.687  0.00  0.00    +0.000 A 
ATOM     22  C   UNL     1       3.172   6.455  18.496  0.00  0.00    +0.000 A 
ATOM     23  N   UNL     1       2.506   7.569  18.402  0.00  0.00    +0.000 NA
ATOM     24  N   UNL     1       1.771   7.889  19.518  0.00  0.00    +0.000 N 
BRANCH  22  25
ATOM     25  C   UNL     1       4.046   6.022  17.371  0.00  0.00    +0.000 A 
ATOM     26  C   UNL     1       4.206   4.671  17.061  0.00  0.00    +0.000 A 
ATOM     27  C   UNL     1       5.013   4.310  15.979  0.00  0.00    +0.000 A 
ATOM     28  C   UNL     1       5.622   5.314  15.241  0.00  0.00    +0.000 A 
ATOM     29  N   UNL     1       5.483   6.630  15.512  0.00  0.00    +0.000 NA
ATOM     30  C   UNL     1       4.692   6.952  16.562  0.00  0.00    +0.000 A 
ENDBRANCH  22  25
ENDBRANCH   2  16
TORSDOF 3
ENDMDL
