MODEL 1
REMARK VINA RESULT:      -7.5      0.000      0.000
REMARK  Name = 
REMARK  4 active torsions:
REMARK  status: ('A' for Active; 'I' for Inactive)
REMARK    1  A    between atoms: C_2  and  C_13
REMARK    2  A    between atoms: N_3  and  C_4
REMARK    3  A    between atoms: C_4  and  C_5
REMARK    4  A    between atoms: N_18  and  C_19
REMARK                            x       y       z     vdW  Elec       q    Type
REMARK                         _______ _______ _______ _____ _____    ______ ____
ROOT
ATOM      1  O   UNL     1       2.314   4.439  21.306  0.00  0.00    +0.000 OA
ATOM      2  C   UNL     1       2.209   5.330  20.461  0.00  0.00    +0.000 C 
ATOM      3  N   UNL     1       1.951   6.603  20.883  0.00  0.00    +0.000 N 
ATOM      4  H   UNL     1       1.917   6.698  21.892  0.00  0.00    +0.000 HD
ENDROOT
BRANCH   2   5
ATOM      5  C   UNL     1       2.275   5.074  18.948  0.00  0.00    +0.000 C 
ATOM      6  C   UNL     1       1.494   3.820  18.589  0.00  0.00    +0.000 C 
ATOM      7  C   UNL     1       2.170   3.334  17.321  0.00  0.00    +0.000 C 
ATOM      8  C   UNL     1       3.592   3.819  17.477  0.00  0.00    +0.000 C 
ATOM      9  O   UNL     1       4.533   3.424  16.811  0.00  0.00    +0.000 OA
ATOM     10  N   UNL     1       3.599   4.835  18.427  0.00  0.00    +0.000 N 
BRANCH  10  11
ATOM     11  C   UNL     1       4.736   5.719  18.740  0.00  0.00    +0.000 C 
ATOM     12  C   UNL     1       6.089   5.027  19.039  0.00  0.00    +0.000 C 
ATOM     13  C   UNL     1       6.773   6.166  18.258  0.00  0.00    +0.000 C 
ATOM     14  C   UNL     1       5.446   6.346  17.503  0.00  0.00    +0.000 C 
ENDBRANCH  10  11
ENDBRANCH   2   5
BRANCH   3  15
ATOM     15  C   UNL     1       1.864   7.812  20.088  0.00  0.00    +0.000 C 
BRANCH  15  16
ATOM     16  C   UNL     1       1.009   8.882  20.721  0.00  0.00    +0.000 A 
ATOM     17  C   UNL     1       0.796   8.900  22.113  0.00  0.00    +0.000 A 
ATOM     18  C   UNL     1      -0.017   9.868  22.701  0.00  0.00    +0.000 A 
ATOM     19  C   UNL     1      -0.641  10.824  21.908  0.00  0.00    +0.000 A 
ATOM     20  C   UNL     1      -0.473  10.807  20.521  0.00  0.00    +0.000 A 
ATOM     21 CL   UNL     1      -1.306  12.014  19.605  0.00  0.00    +0.000 Cl
ATOM     22  C   UNL     1       0.337   9.831  19.921  0.00  0.00    +0.000 A 
ATOM     23 CL   UNL     1       0.489   9.761  18.191  0.00  0.00    +0.000 Cl
ENDBRANCH  15  16
ENDBRANCH   3  15
TORSDOF 4
ENDMDL
MODEL 2
REMARK VINA RESULT:      -7.4      1.791      2.467
REMARK  Name = 
REMARK  4 active torsions:
REMARK  status: ('A' for Active; 'I' for Inactive)
REMARK    1  A    between atoms: C_2  and  C_13
REMARK    2  A    between atoms: N_3  and  C_4
REMARK    3  A    between atoms: C_4  and  C_5
REMARK    4  A    between atoms: N_18  and  C_19
REMARK                            x       y       z     vdW  Elec       q    Type
REMARK                         _______ _______ _______ _____ _____    ______ ____
ROOT
ATOM      1  O   UNL     1       4.127   3.657  19.387  0.00  0.00    +0.000 OA
ATOM      2  C   UNL     1       3.956   4.682  18.725  0.00  0.00    +0.000 C 
ATOM      3  N   UNL     1       3.126   5.648  19.219  0.00  0.00    +0.000 N 
ATOM      4  H   UNL     1       2.756   5.434  20.139  0.00  0.00    +0.000 HD
ENDROOT
BRANCH   2   5
ATOM      5  C   UNL     1       4.567   4.904  17.333  0.00  0.00    +0.000 C 
ATOM      6  C   UNL     1       4.465   3.633  16.503  0.00  0.00    +0.000 C 
ATOM      7  C   UNL     1       5.624   3.755  15.530  0.00  0.00    +0.000 C 
ATOM      8  C   UNL     1       6.638   4.571  16.297  0.00  0.00    +0.000 C 
ATOM      9  O   UNL     1       7.812   4.679  15.989  0.00  0.00    +0.000 OA
ATOM     10  N   UNL     1       5.973   5.225  17.329  0.00  0.00    +0.000 N 
BRANCH  10  11
ATOM     11  C   UNL     1       6.540   6.276  18.193  0.00  0.00    +0.000 C 
ATOM     12  C   UNL     1       7.846   5.922  18.948  0.00  0.00    +0.000 C 
ATOM     13  C   UNL     1       8.323   7.360  18.668  0.00  0.00    +0.000 C 
ATOM     14  C   UNL     1       7.382   7.359  17.453  0.00  0.00    +0.000 C 
ENDBRANCH  10  11
ENDBRANCH   2   5
BRANCH   3  15
ATOM     15  C   UNL     1       2.838   6.955  18.663  0.00  0.00    +0.000 C 
BRANCH  15  16
ATOM     16  C   UNL     1       1.964   7.802  19.554  0.00  0.00    +0.000 A 
ATOM     17  C   UNL     1       1.513   7.311  20.795  0.00  0.00    +0.000 A 
ATOM     18  C   UNL     1       0.682   8.078  21.609  0.00  0.00    +0.000 A 
ATOM     19  C   UNL     1       0.276   9.341  21.194  0.00  0.00    +0.000 A 
ATOM     20  C   UNL     1       0.682   9.838  19.953  0.00  0.00    +0.000 A 
ATOM     21 CL   UNL     1       0.112  11.406  19.500  0.00  0.00    +0.000 Cl
ATOM     22  C   UNL     1       1.513   9.069  19.123  0.00  0.00    +0.000 A 
ATOM     23 CL   UNL     1       1.959   9.652  17.548  0.00  0.00    +0.000 Cl
ENDBRANCH  15  16
ENDBRANCH   3  15
TORSDOF 4
ENDMDL
MODEL 3
REMARK VINA RESULT:      -7.3      1.281      1.450
REMARK  Name = 
REMARK  4 active torsions:
REMARK  status: ('A' for Active; 'I' for Inactive)
REMARK    1  A    between atoms: C_2  and  C_13
REMARK    2  A    between atoms: N_3  and  C_4
REMARK    3  A    between atoms: C_4  and  C_5
REMARK    4  A    between atoms: N_18  and  C_19
REMARK                            x       y       z     vdW  Elec       q    Type
REMARK                         _______ _______ _______ _____ _____    ______ ____
ROOT
ATOM      1  O   UNL     1       2.515   4.321  21.816  0.00  0.00    +0.000 OA
ATOM      2  C   UNL     1       2.163   4.975  20.833  0.00  0.00    +0.000 C 
ATOM      3  N   UNL     1       2.156   6.338  20.924  0.00  0.00    +0.000 N 
ATOM      4  H   UNL     1       2.500   6.688  21.812  0.00  0.00    +0.000 HD
ENDROOT
BRANCH   2   5
ATOM      5  C   UNL     1       1.656   4.340  19.530  0.00  0.00    +0.000 C 
ATOM      6  C   UNL     1       0.685   3.210  19.836  0.00  0.00    +0.000 C 
ATOM      7  C   UNL     1       0.811   2.300  18.628  0.00  0.00    +0.000 C 
ATOM      8  C   UNL     1       2.232   2.527  18.169  0.00  0.00    +0.000 C 
ATOM      9  O   UNL     1       2.829   1.804  17.390  0.00  0.00    +0.000 OA
ATOM     10  N   UNL     1       2.674   3.727  18.713  0.00  0.00    +0.000 N 
BRANCH  10  11
ATOM     11  C   UNL     1       3.924   4.427  18.364  0.00  0.00    +0.000 C 
ATOM     12  C   UNL     1       4.725   3.856  17.166  0.00  0.00    +0.000 C 
ATOM     13  C   UNL     1       5.030   5.310  16.758  0.00  0.00    +0.000 C 
ATOM     14  C   UNL     1       3.745   5.711  17.500  0.00  0.00    +0.000 C 
ENDBRANCH  10  11
ENDBRANCH   2   5
BRANCH   3  15
ATOM     15  C   UNL     1       1.860   7.306  19.886  0.00  0.00    +0.000 C 
BRANCH  15  16
ATOM     16  C   UNL     1       1.241   8.576  20.415  0.00  0.00    +0.000 A 
ATOM     17  C   UNL     1       0.819   8.665  21.755  0.00  0.00    +0.000 A 
ATOM     18  C   UNL     1       0.220   9.825  22.242  0.00  0.00    +0.000 A 
ATOM     19  C   UNL     1       0.019  10.910  21.395  0.00  0.00    +0.000 A 
ATOM     20  C   UNL     1       0.397  10.834  20.053  0.00  0.00    +0.000 A 
ATOM     21 CL   UNL     1       0.088  12.217  19.062  0.00  0.00    +0.000 Cl
ATOM     22  C   UNL     1       0.994   9.667  19.553  0.00  0.00    +0.000 A 
ATOM     23 CL   UNL     1       1.399   9.542  17.867  0.00  0.00    +0.000 Cl
ENDBRANCH  15  16
ENDBRANCH   3  15
TORSDOF 4
ENDMDL
MODEL 4
REMARK VINA RESULT:      -7.3      2.549      3.911
REMARK  Name = 
REMARK  4 active torsions:
REMARK  status: ('A' for Active; 'I' for Inactive)
REMARK    1  A    between atoms: C_2  and  C_13
REMARK    2  A    between atoms: N_3  and  C_4
REMARK    3  A    between atoms: C_4  and  C_5
REMARK    4  A    between atoms: N_18  and  C_19
REMARK                            x       y       z     vdW  Elec       q    Type
REMARK                         _______ _______ _______ _____ _____    ______ ____
ROOT
ATOM      1  O   UNL     1       5.629   3.629  19.074  0.00  0.00    +0.000 OA
ATOM      2  C   UNL     1       4.747   4.132  18.376  0.00  0.00    +0.000 C 
ATOM      3  N   UNL     1       3.464   4.133  18.845  0.00  0.00    +0.000 N 
ATOM      4  H   UNL     1       3.372   3.747  19.778  0.00  0.00    +0.000 HD
ENDROOT
BRANCH   2   5
ATOM      5  C   UNL     1       4.997   4.691  16.968  0.00  0.00    +0.000 C 
ATOM      6  C   UNL     1       5.125   3.556  15.963  0.00  0.00    +0.000 C 
ATOM      7  C   UNL     1       5.995   4.149  14.870  0.00  0.00    +0.000 C 
ATOM      8  C   UNL     1       6.844   5.155  15.610  0.00  0.00    +0.000 C 
ATOM      9  O   UNL     1       7.855   5.668  15.162  0.00  0.00    +0.000 OA
ATOM     10  N   UNL     1       6.218   5.443  16.818  0.00  0.00    +0.000 N 
BRANCH  10  11
ATOM     11  C   UNL     1       6.596   6.518  17.754  0.00  0.00    +0.000 C 
ATOM     12  C   UNL     1       7.837   6.254  18.644  0.00  0.00    +0.000 C 
ATOM     13  C   UNL     1       8.219   7.733  18.439  0.00  0.00    +0.000 C 
ATOM     14  C   UNL     1       7.420   7.682  17.127  0.00  0.00    +0.000 C 
ENDBRANCH  10  11
ENDBRANCH   2   5
BRANCH   3  15
ATOM     15  C   UNL     1       2.289   4.731  18.244  0.00  0.00    +0.000 C 
BRANCH  15  16
ATOM     16  C   UNL     1       2.134   6.197  18.566  0.00  0.00    +0.000 A 
ATOM     17  C   UNL     1       2.377   7.178  17.586  0.00  0.00    +0.000 A 
ATOM     18  C   UNL     1       2.265   8.534  17.885  0.00  0.00    +0.000 A 
ATOM     19  C   UNL     1       1.922   8.934  19.172  0.00  0.00    +0.000 A 
ATOM     20  C   UNL     1       1.710   7.982  20.172  0.00  0.00    +0.000 A 
ATOM     21 CL   UNL     1       1.315   8.564  21.751  0.00  0.00    +0.000 Cl
ATOM     22  C   UNL     1       1.829   6.615  19.880  0.00  0.00    +0.000 A 
ATOM     23 CL   UNL     1       1.638   5.431  21.139  0.00  0.00    +0.000 Cl
ENDBRANCH  15  16
ENDBRANCH   3  15
TORSDOF 4
ENDMDL
MODEL 5
REMARK VINA RESULT:      -6.8      1.334      1.786
REMARK  Name = 
REMARK  4 active torsions:
REMARK  status: ('A' for Active; 'I' for Inactive)
REMARK    1  A    between atoms: C_2  and  C_13
REMARK    2  A    between atoms: N_3  and  C_4
REMARK    3  A    between atoms: C_4  and  C_5
REMARK    4  A    between atoms: N_18  and  C_19
REMARK                            x       y       z     vdW  Elec       q    Type
REMARK                         _______ _______ _______ _____ _____    ______ ____
ROOT
ATOM      1  O   UNL     1       2.185   5.004  20.985  0.00  0.00    +0.000 OA
ATOM      2  C   UNL     1       2.223   5.794  20.041  0.00  0.00    +0.000 C 
ATOM      3  N   UNL     1       2.010   7.121  20.291  0.00  0.00    +0.000 N 
ATOM      4  H   UNL     1       1.885   7.334  21.274  0.00  0.00    +0.000 HD
ENDROOT
BRANCH   2   5
ATOM      5  C   UNL     1       2.418   5.361  18.580  0.00  0.00    +0.000 C 
ATOM      6  C   UNL     1       1.603   4.111  18.286  0.00  0.00    +0.000 C 
ATOM      7  C   UNL     1       2.369   3.450  17.155  0.00  0.00    +0.000 C 
ATOM      8  C   UNL     1       3.795   3.884  17.400  0.00  0.00    +0.000 C 
ATOM      9  O   UNL     1       4.772   3.371  16.881  0.00  0.00    +0.000 OA
ATOM     10  N   UNL     1       3.770   5.002  18.227  0.00  0.00    +0.000 N 
BRANCH  10  11
ATOM     11  C   UNL     1       4.920   5.863  18.552  0.00  0.00    +0.000 C 
ATOM     12  C   UNL     1       6.253   5.143  18.881  0.00  0.00    +0.000 C 
ATOM     13  C   UNL     1       6.975   6.260  18.103  0.00  0.00    +0.000 C 
ATOM     14  C   UNL     1       5.666   6.464  17.323  0.00  0.00    +0.000 C 
ENDBRANCH  10  11
ENDBRANCH   2   5
BRANCH   3  15
ATOM     15  C   UNL     1       2.083   8.232  19.363  0.00  0.00    +0.000 C 
BRANCH  15  16
ATOM     16  C   UNL     1       0.968   9.231  19.542  0.00  0.00    +0.000 A 
ATOM     17  C   UNL     1       0.317   9.788  18.424  0.00  0.00    +0.000 A 
ATOM     18  C   UNL     1      -0.695  10.734  18.581  0.00  0.00    +0.000 A 
ATOM     19  C   UNL     1      -1.063  11.150  19.856  0.00  0.00    +0.000 A 
ATOM     20  C   UNL     1      -0.410  10.639  20.979  0.00  0.00    +0.000 A 
ATOM     21 CL   UNL     1      -0.910  11.228  22.526  0.00  0.00    +0.000 Cl
ATOM     22  C   UNL     1       0.615   9.692  20.829  0.00  0.00    +0.000 A 
ATOM     23 CL   UNL     1       1.480   9.108  22.219  0.00  0.00    +0.000 Cl
ENDBRANCH  15  16
ENDBRANCH   3  15
TORSDOF 4
ENDMDL
MODEL 6
REMARK VINA RESULT:      -6.8      3.610      6.658
REMARK  Name = 
REMARK  4 active torsions:
REMARK  status: ('A' for Active; 'I' for Inactive)
REMARK    1  A    between atoms: C_2  and  C_13
REMARK    2  A    between atoms: N_3  and  C_4
REMARK    3  A    between atoms: C_4  and  C_5
REMARK    4  A    between atoms: N_18  and  C_19
REMARK                            x       y       z     vdW  Elec       q    Type
REMARK                         _______ _______ _______ _____ _____    ______ ____
ROOT
ATOM      1  O   UNL     1       1.040   3.828  17.331  0.00  0.00    +0.000 OA
ATOM      2  C   UNL     1       2.195   3.786  17.759  0.00  0.00    +0.000 C 
ATOM      3  N   UNL     1       3.112   3.025  17.091  0.00  0.00    +0.000 N 
ATOM      4  H   UNL     1       2.747   2.593  16.250  0.00  0.00    +0.000 HD
ENDROOT
BRANCH   2   5
ATOM      5  C   UNL     1       2.645   4.481  19.053  0.00  0.00    +0.000 C 
ATOM      6  C   UNL     1       2.205   3.675  20.266  0.00  0.00    +0.000 C 
ATOM      7  C   UNL     1       2.087   4.721  21.360  0.00  0.00    +0.000 C 
ATOM      8  C   UNL     1       1.731   5.978  20.602  0.00  0.00    +0.000 C 
ATOM      9  O   UNL     1       1.291   6.992  21.114  0.00  0.00    +0.000 OA
ATOM     10  N   UNL     1       2.081   5.791  19.269  0.00  0.00    +0.000 N 
BRANCH  10  11
ATOM     11  C   UNL     1       2.094   6.831  18.224  0.00  0.00    +0.000 C 
ATOM     12  C   UNL     1       1.889   8.292  18.699  0.00  0.00    +0.000 C 
ATOM     13  C   UNL     1       2.942   8.712  17.655  0.00  0.00    +0.000 C 
ATOM     14  C   UNL     1       3.510   7.287  17.761  0.00  0.00    +0.000 C 
ENDBRANCH  10  11
ENDBRANCH   2   5
BRANCH   3  15
ATOM     15  C   UNL     1       4.530   2.887  17.359  0.00  0.00    +0.000 C 
BRANCH  15  16
ATOM     16  C   UNL     1       5.372   3.928  16.664  0.00  0.00    +0.000 A 
ATOM     17  C   UNL     1       5.557   3.887  15.268  0.00  0.00    +0.000 A 
ATOM     18  C   UNL     1       6.357   4.828  14.623  0.00  0.00    +0.000 A 
ATOM     19  C   UNL     1       6.998   5.817  15.362  0.00  0.00    +0.000 A 
ATOM     20  C   UNL     1       6.858   5.859  16.751  0.00  0.00    +0.000 A 
ATOM     21 CL   UNL     1       7.709   7.104  17.597  0.00  0.00    +0.000 Cl
ATOM     22  C   UNL     1       6.060   4.911  17.409  0.00  0.00    +0.000 A 
ATOM     23 CL   UNL     1       5.943   4.915  19.143  0.00  0.00    +0.000 Cl
ENDBRANCH  15  16
ENDBRANCH   3  15
TORSDOF 4
ENDMDL
MODEL 7
REMARK VINA RESULT:      -6.8      2.224      3.018
REMARK  Name = 
REMARK  4 active torsions:
REMARK  status: ('A' for Active; 'I' for Inactive)
REMARK    1  A    between atoms: C_2  and  C_13
REMARK    2  A    between atoms: N_3  and  C_4
REMARK    3  A    between atoms: C_4  and  C_5
REMARK    4  A    between atoms: N_18  and  C_19
REMARK                            x       y       z     vdW  Elec       q    Type
REMARK                         _______ _______ _______ _____ _____    ______ ____
ROOT
ATOM      1  O   UNL     1       3.813   4.250  19.293  0.00  0.00    +0.000 OA
ATOM      2  C   UNL     1       3.778   5.166  18.470  0.00  0.00    +0.000 C 
ATOM      3  N   UNL     1       2.928   6.212  18.693  0.00  0.00    +0.000 N 
ATOM      4  H   UNL     1       2.426   6.148  19.571  0.00  0.00    +0.000 HD
ENDROOT
BRANCH   2   5
ATOM      5  C   UNL     1       4.584   5.162  17.162  0.00  0.00    +0.000 C 
ATOM      6  C   UNL     1       4.461   3.813  16.470  0.00  0.00    +0.000 C 
ATOM      7  C   UNL     1       5.741   3.713  15.662  0.00  0.00    +0.000 C 
ATOM      8  C   UNL     1       6.726   4.526  16.470  0.00  0.00    +0.000 C 
ATOM      9  O   UNL     1       7.935   4.493  16.320  0.00  0.00    +0.000 OA
ATOM     10  N   UNL     1       6.004   5.357  17.320  0.00  0.00    +0.000 N 
BRANCH  10  11
ATOM     11  C   UNL     1       6.559   6.453  18.135  0.00  0.00    +0.000 C 
ATOM     12  C   UNL     1       7.866   6.146  18.909  0.00  0.00    +0.000 C 
ATOM     13  C   UNL     1       8.332   7.573  18.563  0.00  0.00    +0.000 C 
ATOM     14  C   UNL     1       7.394   7.506  17.347  0.00  0.00    +0.000 C 
ENDBRANCH  10  11
ENDBRANCH   2   5
BRANCH   3  15
ATOM     15  C   UNL     1       2.774   7.426  17.915  0.00  0.00    +0.000 C 
BRANCH  15  16
ATOM     16  C   UNL     1       1.982   8.494  18.627  0.00  0.00    +0.000 A 
ATOM     17  C   UNL     1       1.831   9.774  18.061  0.00  0.00    +0.000 A 
ATOM     18  C   UNL     1       1.126  10.774  18.727  0.00  0.00    +0.000 A 
ATOM     19  C   UNL     1       0.570  10.517  19.976  0.00  0.00    +0.000 A 
ATOM     20  C   UNL     1       0.734   9.265  20.574  0.00  0.00    +0.000 A 
ATOM     21 CL   UNL     1       0.036   9.036  22.139  0.00  0.00    +0.000 Cl
ATOM     22  C   UNL     1       1.450   8.256  19.913  0.00  0.00    +0.000 A 
ATOM     23 CL   UNL     1       1.719   6.722  20.687  0.00  0.00    +0.000 Cl
ENDBRANCH  15  16
ENDBRANCH   3  15
TORSDOF 4
ENDMDL
MODEL 8
REMARK VINA RESULT:      -6.7      2.242      3.605
REMARK  Name = 
REMARK  4 active torsions:
REMARK  status: ('A' for Active; 'I' for Inactive)
REMARK    1  A    between atoms: C_2  and  C_13
REMARK    2  A    between atoms: N_3  and  C_4
REMARK    3  A    between atoms: C_4  and  C_5
REMARK    4  A    between atoms: N_18  and  C_19
REMARK                            x       y       z     vdW  Elec       q    Type
REMARK                         _______ _______ _______ _____ _____    ______ ____
ROOT
ATOM      1  O   UNL     1       1.470   4.903  17.364  0.00  0.00    +0.000 OA
ATOM      2  C   UNL     1       2.166   5.761  17.909  0.00  0.00    +0.000 C 
ATOM      3  N   UNL     1       1.844   7.076  17.728  0.00  0.00    +0.000 N 
ATOM      4  H   UNL     1       1.003   7.217  17.179  0.00  0.00    +0.000 HD
ENDROOT
BRANCH   2   5
ATOM      5  C   UNL     1       3.429   5.438  18.722  0.00  0.00    +0.000 C 
ATOM      6  C   UNL     1       4.610   5.204  17.792  0.00  0.00    +0.000 C 
ATOM      7  C   UNL     1       5.513   4.284  18.594  0.00  0.00    +0.000 C 
ATOM      8  C   UNL     1       4.545   3.521  19.466  0.00  0.00    +0.000 C 
ATOM      9  O   UNL     1       4.820   2.500  20.073  0.00  0.00    +0.000 OA
ATOM     10  N   UNL     1       3.353   4.235  19.515  0.00  0.00    +0.000 N 
BRANCH  10  11
ATOM     11  C   UNL     1       2.213   3.957  20.408  0.00  0.00    +0.000 C 
ATOM     12  C   UNL     1       1.390   2.681  20.101  0.00  0.00    +0.000 C 
ATOM     13  C   UNL     1       1.283   2.460  21.622  0.00  0.00    +0.000 C 
ATOM     14  C   UNL     1       2.582   3.272  21.757  0.00  0.00    +0.000 C 
ENDBRANCH  10  11
ENDBRANCH   2   5
BRANCH   3  15
ATOM     15  C   UNL     1       2.462   8.243  18.326  0.00  0.00    +0.000 C 
BRANCH  15  16
ATOM     16  C   UNL     1       1.476   9.149  19.020  0.00  0.00    +0.000 A 
ATOM     17  C   UNL     1       1.064  10.355  18.421  0.00  0.00    +0.000 A 
ATOM     18  C   UNL     1       0.176  11.211  19.070  0.00  0.00    +0.000 A 
ATOM     19  C   UNL     1      -0.304  10.884  20.334  0.00  0.00    +0.000 A 
ATOM     20  C   UNL     1       0.116   9.711  20.964  0.00  0.00    +0.000 A 
ATOM     21 CL   UNL     1      -0.507   9.392  22.546  0.00  0.00    +0.000 Cl
ATOM     22  C   UNL     1       1.015   8.848  20.321  0.00  0.00    +0.000 A 
ATOM     23 CL   UNL     1       1.597   7.424  21.132  0.00  0.00    +0.000 Cl
ENDBRANCH  15  16
ENDBRANCH   3  15
TORSDOF 4
ENDMDL
MODEL 9
REMARK VINA RESULT:      -6.7      4.119      8.006
REMARK  Name = 
REMARK  4 active torsions:
REMARK  status: ('A' for Active; 'I' for Inactive)
REMARK    1  A    between atoms: C_2  and  C_13
REMARK    2  A    between atoms: N_3  and  C_4
REMARK    3  A    between atoms: C_4  and  C_5
REMARK    4  A    between atoms: N_18  and  C_19
REMARK                            x       y       z     vdW  Elec       q    Type
REMARK                         _______ _______ _______ _____ _____    ______ ____
ROOT
ATOM      1  O   UNL     1       5.638   4.231  19.005  0.00  0.00    +0.000 OA
ATOM      2  C   UNL     1       4.914   4.428  18.028  0.00  0.00    +0.000 C 
ATOM      3  N   UNL     1       5.336   3.993  16.804  0.00  0.00    +0.000 N 
ATOM      4  H   UNL     1       6.216   3.490  16.832  0.00  0.00    +0.000 HD
ENDROOT
BRANCH   2   5
ATOM      5  C   UNL     1       3.593   5.209  18.096  0.00  0.00    +0.000 C 
ATOM      6  C   UNL     1       3.854   6.702  17.962  0.00  0.00    +0.000 C 
ATOM      7  C   UNL     1       2.683   7.331  18.694  0.00  0.00    +0.000 C 
ATOM      8  C   UNL     1       2.327   6.297  19.735  0.00  0.00    +0.000 C 
ATOM      9  O   UNL     1       1.615   6.507  20.702  0.00  0.00    +0.000 OA
ATOM     10  N   UNL     1       2.872   5.080  19.338  0.00  0.00    +0.000 N 
BRANCH  10  11
ATOM     11  C   UNL     1       2.600   3.769  19.954  0.00  0.00    +0.000 C 
ATOM     12  C   UNL     1       2.427   3.750  21.493  0.00  0.00    +0.000 C 
ATOM     13  C   UNL     1       1.306   2.712  21.291  0.00  0.00    +0.000 C 
ATOM     14  C   UNL     1       1.116   3.299  19.883  0.00  0.00    +0.000 C 
ENDBRANCH  10  11
ENDBRANCH   2   5
BRANCH   3  15
ATOM     15  C   UNL     1       4.628   4.042  15.540  0.00  0.00    +0.000 C 
BRANCH  15  16
ATOM     16  C   UNL     1       5.546   4.116  14.345  0.00  0.00    +0.000 A 
ATOM     17  C   UNL     1       5.313   3.315  13.210  0.00  0.00    +0.000 A 
ATOM     18  C   UNL     1       6.173   3.357  12.115  0.00  0.00    +0.000 A 
ATOM     19  C   UNL     1       7.288   4.188  12.140  0.00  0.00    +0.000 A 
ATOM     20  C   UNL     1       7.560   4.967  13.267  0.00  0.00    +0.000 A 
ATOM     21 CL   UNL     1       8.980   5.953  13.227  0.00  0.00    +0.000 Cl
ATOM     22  C   UNL     1       6.703   4.925  14.377  0.00  0.00    +0.000 A 
ATOM     23 CL   UNL     1       7.078   5.836  15.809  0.00  0.00    +0.000 Cl
ENDBRANCH  15  16
ENDBRANCH   3  15
TORSDOF 4
ENDMDL
