MODEL 1
REMARK VINA RESULT:      -8.5      0.000      0.000
REMARK  Name = 
REMARK  4 active torsions:
REMARK  status: ('A' for Active; 'I' for Inactive)
REMARK    1  A    between atoms: C_2  and  C_4
REMARK    2  A    between atoms: C_15  and  C_16
REMARK    3  A    between atoms: C_16  and  C_17
REMARK    4  A    between atoms: C_22  and  C_23
REMARK                            x       y       z     vdW  Elec       q    Type
REMARK                         _______ _______ _______ _____ _____    ______ ____
ROOT
ATOM      1  C   UNL     1       3.228   3.632  19.564  0.00  0.00    +0.000 A 
ATOM      2  C   UNL     1       2.504   3.610  20.766  0.00  0.00    +0.000 A 
ATOM      3  C   UNL     1       1.799   4.743  21.192  0.00  0.00    +0.000 A 
ATOM      4  C   UNL     1       1.805   5.911  20.428  0.00  0.00    +0.000 A 
ATOM      5  C   UNL     1       2.497   5.934  19.225  0.00  0.00    +0.000 A 
ATOM      6  C   UNL     1       3.222   4.807  18.815  0.00  0.00    +0.000 A 
ATOM      7  C   UNL     1       3.852   5.086  17.487  0.00  0.00    +0.000 C 
ATOM      8  C   UNL     1       3.662   6.609  17.359  0.00  0.00    +0.000 C 
ATOM      9  N   UNL     1       2.601   6.992  18.300  0.00  0.00    +0.000 N 
ATOM     10  C   UNL     1       2.187   8.322  18.337  0.00  0.00    +0.000 A 
ATOM     11  C   UNL     1       0.916   8.658  18.815  0.00  0.00    +0.000 A 
ATOM     12  C   UNL     1       0.477   9.989  18.813  0.00  0.00    +0.000 A 
ATOM     13  C   UNL     1       1.348  10.962  18.328  0.00  0.00    +0.000 A 
ATOM     14  C   UNL     1       2.591  10.561  17.872  0.00  0.00    +0.000 A 
ATOM     15  N   UNL     1       3.012   9.278  17.853  0.00  0.00    +0.000 NA
ENDROOT
BRANCH   1  17
ATOM     16  N   UNL     1       5.132   2.137  19.810  0.00  0.00    +0.000 N 
ATOM     17  C   UNL     1       3.994   2.442  19.111  0.00  0.00    +0.000 C 
ATOM     18  O   UNL     1       3.631   1.744  18.177  0.00  0.00    +0.000 OA
ATOM     19  H   UNL     1       5.590   1.269  19.558  0.00  0.00    +0.000 HD
ATOM     20  H   UNL     1       5.341   2.534  20.715  0.00  0.00    +0.000 HD
ENDBRANCH   1  17
BRANCH  12  21
ATOM     21  C   UNL     1      -0.897  10.357  19.318  0.00  0.00    +0.000 C 
BRANCH  21  22
ATOM     22  C   UNL     1      -1.948  10.452  18.232  0.00  0.00    +0.000 A 
ATOM     23  C   UNL     1      -1.748   9.822  16.995  0.00  0.00    +0.000 A 
ATOM     24  C   UNL     1      -2.696   9.939  15.980  0.00  0.00    +0.000 A 
ATOM     25  C   UNL     1      -3.860  10.670  16.196  0.00  0.00    +0.000 A 
ATOM     26  F   UNL     1      -4.744  10.765  15.195  0.00  0.00    +0.000 F 
ATOM     27  C   UNL     1      -4.107  11.285  17.419  0.00  0.00    +0.000 A 
ATOM     28  C   UNL     1      -3.135  11.179  18.434  0.00  0.00    +0.000 A 
BRANCH  27  29
ATOM     29  C   UNL     1      -5.389  12.026  17.664  0.00  0.00    +0.000 C 
ATOM     30  F   UNL     1      -5.704  12.969  16.736  0.00  0.00    +0.000 F 
ATOM     31  F   UNL     1      -6.460  11.183  17.709  0.00  0.00    +0.000 F 
ATOM     32  F   UNL     1      -5.388  12.674  18.864  0.00  0.00    +0.000 F 
ENDBRANCH  27  29
ENDBRANCH  21  22
ENDBRANCH  12  21
TORSDOF 4
ENDMDL
MODEL 2
REMARK VINA RESULT:      -8.3      6.385      9.801
REMARK  Name = 
REMARK  4 active torsions:
REMARK  status: ('A' for Active; 'I' for Inactive)
REMARK    1  A    between atoms: C_2  and  C_4
REMARK    2  A    between atoms: C_15  and  C_16
REMARK    3  A    between atoms: C_16  and  C_17
REMARK    4  A    between atoms: C_22  and  C_23
REMARK                            x       y       z     vdW  Elec       q    Type
REMARK                         _______ _______ _______ _____ _____    ______ ____
ROOT
ATOM      1  C   UNL     1       0.916  10.196  19.706  0.00  0.00    +0.000 A 
ATOM      2  C   UNL     1       1.453  10.655  18.494  0.00  0.00    +0.000 A 
ATOM      3  C   UNL     1       2.220   9.804  17.688  0.00  0.00    +0.000 A 
ATOM      4  C   UNL     1       2.463   8.487  18.079  0.00  0.00    +0.000 A 
ATOM      5  C   UNL     1       1.916   8.016  19.264  0.00  0.00    +0.000 A 
ATOM      6  C   UNL     1       1.169   8.878  20.079  0.00  0.00    +0.000 A 
ATOM      7  C   UNL     1       0.681   8.121  21.274  0.00  0.00    +0.000 C 
ATOM      8  C   UNL     1       1.512   6.827  21.192  0.00  0.00    +0.000 C 
ATOM      9  N   UNL     1       2.014   6.723  19.815  0.00  0.00    +0.000 N 
ATOM     10  C   UNL     1       2.751   5.597  19.456  0.00  0.00    +0.000 A 
ATOM     11  C   UNL     1       2.836   5.200  18.117  0.00  0.00    +0.000 A 
ATOM     12  C   UNL     1       3.539   4.044  17.754  0.00  0.00    +0.000 A 
ATOM     13  C   UNL     1       4.152   3.309  18.765  0.00  0.00    +0.000 A 
ATOM     14  C   UNL     1       4.031   3.758  20.068  0.00  0.00    +0.000 A 
ATOM     15  N   UNL     1       3.339   4.861  20.427  0.00  0.00    +0.000 NA
ENDROOT
BRANCH   1  17
ATOM     16  N   UNL     1      -1.182  11.323  20.204  0.00  0.00    +0.000 N 
ATOM     17  C   UNL     1       0.116  11.095  20.578  0.00  0.00    +0.000 C 
ATOM     18  O   UNL     1       0.568  11.595  21.596  0.00  0.00    +0.000 OA
ATOM     19  H   UNL     1      -1.747  11.854  20.857  0.00  0.00    +0.000 HD
ATOM     20  H   UNL     1      -1.662  10.757  19.518  0.00  0.00    +0.000 HD
ENDBRANCH   1  17
BRANCH  12  21
ATOM     21  C   UNL     1       3.625   3.605  16.311  0.00  0.00    +0.000 C 
BRANCH  21  22
ATOM     22  C   UNL     1       4.887   4.055  15.605  0.00  0.00    +0.000 A 
ATOM     23  C   UNL     1       5.852   4.808  16.289  0.00  0.00    +0.000 A 
ATOM     24  C   UNL     1       6.997   5.256  15.631  0.00  0.00    +0.000 A 
ATOM     25  C   UNL     1       7.197   4.941  14.290  0.00  0.00    +0.000 A 
ATOM     26  F   UNL     1       8.305   5.394  13.691  0.00  0.00    +0.000 F 
ATOM     27  C   UNL     1       6.275   4.172  13.587  0.00  0.00    +0.000 A 
ATOM     28  C   UNL     1       5.111   3.740  14.252  0.00  0.00    +0.000 A 
BRANCH  27  29
ATOM     29  C   UNL     1       6.523   3.789  12.156  0.00  0.00    +0.000 C 
ATOM     30  F   UNL     1       7.263   4.675  11.436  0.00  0.00    +0.000 F 
ATOM     31  F   UNL     1       7.180   2.597  12.058  0.00  0.00    +0.000 F 
ATOM     32  F   UNL     1       5.364   3.622  11.459  0.00  0.00    +0.000 F 
ENDBRANCH  27  29
ENDBRANCH  21  22
ENDBRANCH  12  21
TORSDOF 4
ENDMDL
MODEL 3
REMARK VINA RESULT:      -8.3      5.958      9.763
REMARK  Name = 
REMARK  4 active torsions:
REMARK  status: ('A' for Active; 'I' for Inactive)
REMARK    1  A    between atoms: C_2  and  C_4
REMARK    2  A    between atoms: C_15  and  C_16
REMARK    3  A    between atoms: C_16  and  C_17
REMARK    4  A    between atoms: C_22  and  C_23
REMARK                            x       y       z     vdW  Elec       q    Type
REMARK                         _______ _______ _______ _____ _____    ______ ____
ROOT
ATOM      1  C   UNL     1       1.189  15.427  18.837  0.00  0.00    +0.000 A 
ATOM      2  C   UNL     1       2.420  15.402  18.163  0.00  0.00    +0.000 A 
ATOM      3  C   UNL     1       3.105  14.194  17.979  0.00  0.00    +0.000 A 
ATOM      4  C   UNL     1       2.574  12.997  18.464  0.00  0.00    +0.000 A 
ATOM      5  C   UNL     1       1.346  13.009  19.109  0.00  0.00    +0.000 A 
ATOM      6  C   UNL     1       0.676  14.223  19.313  0.00  0.00    +0.000 A 
ATOM      7  C   UNL     1      -0.623  13.955  20.007  0.00  0.00    +0.000 C 
ATOM      8  C   UNL     1      -0.448  12.491  20.454  0.00  0.00    +0.000 C 
ATOM      9  N   UNL     1       0.629  11.916  19.638  0.00  0.00    +0.000 N 
ATOM     10  C   UNL     1       0.947  10.570  19.802  0.00  0.00    +0.000 A 
ATOM     11  C   UNL     1       1.579   9.858  18.777  0.00  0.00    +0.000 A 
ATOM     12  C   UNL     1       1.861   8.493  18.918  0.00  0.00    +0.000 A 
ATOM     13  C   UNL     1       1.498   7.873  20.111  0.00  0.00    +0.000 A 
ATOM     14  C   UNL     1       0.878   8.635  21.085  0.00  0.00    +0.000 A 
ATOM     15  N   UNL     1       0.586   9.946  20.946  0.00  0.00    +0.000 NA
ENDROOT
BRANCH   1  17
ATOM     16  N   UNL     1      -0.479  17.047  18.120  0.00  0.00    +0.000 N 
ATOM     17  C   UNL     1       0.462  16.705  19.054  0.00  0.00    +0.000 C 
ATOM     18  O   UNL     1       0.662  17.417  20.026  0.00  0.00    +0.000 OA
ATOM     19  H   UNL     1      -1.038  17.866  18.330  0.00  0.00    +0.000 HD
ATOM     20  H   UNL     1      -0.841  16.391  17.442  0.00  0.00    +0.000 HD
ENDBRANCH   1  17
BRANCH  12  21
ATOM     21  C   UNL     1       2.534   7.717  17.810  0.00  0.00    +0.000 C 
BRANCH  21  22
ATOM     22  C   UNL     1       3.080   6.373  18.243  0.00  0.00    +0.000 A 
ATOM     23  C   UNL     1       4.390   6.264  18.730  0.00  0.00    +0.000 A 
ATOM     24  C   UNL     1       4.908   5.021  19.094  0.00  0.00    +0.000 A 
ATOM     25  C   UNL     1       4.117   3.881  18.993  0.00  0.00    +0.000 A 
ATOM     26  F   UNL     1       4.652   2.705  19.346  0.00  0.00    +0.000 F 
ATOM     27  C   UNL     1       2.803   3.955  18.542  0.00  0.00    +0.000 A 
ATOM     28  C   UNL     1       2.293   5.210  18.157  0.00  0.00    +0.000 A 
BRANCH  27  29
ATOM     29  C   UNL     1       1.938   2.729  18.487  0.00  0.00    +0.000 C 
ATOM     30  F   UNL     1       0.612   2.960  18.291  0.00  0.00    +0.000 F 
ATOM     31  F   UNL     1       2.316   1.887  17.482  0.00  0.00    +0.000 F 
ATOM     32  F   UNL     1       2.020   1.989  19.629  0.00  0.00    +0.000 F 
ENDBRANCH  27  29
ENDBRANCH  21  22
ENDBRANCH  12  21
TORSDOF 4
ENDMDL
MODEL 4
REMARK VINA RESULT:      -8.2      5.846      9.489
REMARK  Name = 
REMARK  4 active torsions:
REMARK  status: ('A' for Active; 'I' for Inactive)
REMARK    1  A    between atoms: C_2  and  C_4
REMARK    2  A    between atoms: C_15  and  C_16
REMARK    3  A    between atoms: C_16  and  C_17
REMARK    4  A    between atoms: C_22  and  C_23
REMARK                            x       y       z     vdW  Elec       q    Type
REMARK                         _______ _______ _______ _____ _____    ______ ____
ROOT
ATOM      1  C   UNL     1      -5.821  11.995  18.699  0.00  0.00    +0.000 A 
ATOM      2  C   UNL     1      -5.756  11.471  17.399  0.00  0.00    +0.000 A 
ATOM      3  C   UNL     1      -4.518  11.189  16.807  0.00  0.00    +0.000 A 
ATOM      4  C   UNL     1      -3.331  11.425  17.502  0.00  0.00    +0.000 A 
ATOM      5  C   UNL     1      -3.386  11.919  18.797  0.00  0.00    +0.000 A 
ATOM      6  C   UNL     1      -4.626  12.223  19.377  0.00  0.00    +0.000 A 
ATOM      7  C   UNL     1      -4.407  12.713  20.773  0.00  0.00    +0.000 C 
ATOM      8  C   UNL     1      -2.885  12.955  20.790  0.00  0.00    +0.000 C 
ATOM      9  N   UNL     1      -2.315  12.192  19.672  0.00  0.00    +0.000 N 
ATOM     10  C   UNL     1      -0.932  12.188  19.501  0.00  0.00    +0.000 A 
ATOM     11  C   UNL     1      -0.304  11.149  18.808  0.00  0.00    +0.000 A 
ATOM     12  C   UNL     1       1.090  11.116  18.671  0.00  0.00    +0.000 A 
ATOM     13  C   UNL     1       1.825  12.153  19.240  0.00  0.00    +0.000 A 
ATOM     14  C   UNL     1       1.141  13.152  19.910  0.00  0.00    +0.000 A 
ATOM     15  N   UNL     1      -0.201  13.178  20.063  0.00  0.00    +0.000 NA
ENDROOT
BRANCH   1  17
ATOM     16  N   UNL     1      -7.792  11.280  19.935  0.00  0.00    +0.000 N 
ATOM     17  C   UNL     1      -7.128  12.314  19.331  0.00  0.00    +0.000 C 
ATOM     18  O   UNL     1      -7.592  13.444  19.343  0.00  0.00    +0.000 OA
ATOM     19  H   UNL     1      -8.631  11.528  20.448  0.00  0.00    +0.000 HD
ATOM     20  H   UNL     1      -7.349  10.399  20.154  0.00  0.00    +0.000 HD
ENDBRANCH   1  17
BRANCH  12  21
ATOM     21  C   UNL     1       1.775   9.991  17.932  0.00  0.00    +0.000 C 
BRANCH  21  22
ATOM     22  C   UNL     1       1.874   8.704  18.725  0.00  0.00    +0.000 A 
ATOM     23  C   UNL     1       1.385   8.641  20.037  0.00  0.00    +0.000 A 
ATOM     24  C   UNL     1       1.509   7.469  20.783  0.00  0.00    +0.000 A 
ATOM     25  C   UNL     1       2.105   6.346  20.219  0.00  0.00    +0.000 A 
ATOM     26  F   UNL     1       2.212   5.241  20.967  0.00  0.00    +0.000 F 
ATOM     27  C   UNL     1       2.576   6.362  18.909  0.00  0.00    +0.000 A 
ATOM     28  C   UNL     1       2.466   7.556  18.169  0.00  0.00    +0.000 A 
BRANCH  27  29
ATOM     29  C   UNL     1       3.169   5.131  18.289  0.00  0.00    +0.000 C 
ATOM     30  F   UNL     1       4.192   4.563  18.982  0.00  0.00    +0.000 F 
ATOM     31  F   UNL     1       2.239   4.144  18.134  0.00  0.00    +0.000 F 
ATOM     32  F   UNL     1       3.656   5.368  17.037  0.00  0.00    +0.000 F 
ENDBRANCH  27  29
ENDBRANCH  21  22
ENDBRANCH  12  21
TORSDOF 4
ENDMDL
MODEL 5
REMARK VINA RESULT:      -8.1      6.191      9.612
REMARK  Name = 
REMARK  4 active torsions:
REMARK  status: ('A' for Active; 'I' for Inactive)
REMARK    1  A    between atoms: C_2  and  C_4
REMARK    2  A    between atoms: C_15  and  C_16
REMARK    3  A    between atoms: C_16  and  C_17
REMARK    4  A    between atoms: C_22  and  C_23
REMARK                            x       y       z     vdW  Elec       q    Type
REMARK                         _______ _______ _______ _____ _____    ______ ____
ROOT
ATOM      1  C   UNL     1       0.627  15.192  18.915  0.00  0.00    +0.000 A 
ATOM      2  C   UNL     1       1.970  15.194  18.507  0.00  0.00    +0.000 A 
ATOM      3  C   UNL     1       2.739  14.026  18.588  0.00  0.00    +0.000 A 
ATOM      4  C   UNL     1       2.182  12.842  19.074  0.00  0.00    +0.000 A 
ATOM      5  C   UNL     1       0.848  12.824  19.456  0.00  0.00    +0.000 A 
ATOM      6  C   UNL     1       0.089  14.001  19.397  0.00  0.00    +0.000 A 
ATOM      7  C   UNL     1      -1.309  13.705  19.840  0.00  0.00    +0.000 C 
ATOM      8  C   UNL     1      -1.156  12.303  20.459  0.00  0.00    +0.000 C 
ATOM      9  N   UNL     1       0.094  11.735  19.938  0.00  0.00    +0.000 N 
ATOM     10  C   UNL     1       0.440  10.434  20.297  0.00  0.00    +0.000 A 
ATOM     11  C   UNL     1       1.305   9.681  19.497  0.00  0.00    +0.000 A 
ATOM     12  C   UNL     1       1.621   8.357  19.830  0.00  0.00    +0.000 A 
ATOM     13  C   UNL     1       1.052   7.821  20.982  0.00  0.00    +0.000 A 
ATOM     14  C   UNL     1       0.206   8.621  21.729  0.00  0.00    +0.000 A 
ATOM     15  N   UNL     1      -0.118   9.891  21.403  0.00  0.00    +0.000 NA
ENDROOT
BRANCH   1  17
ATOM     16  N   UNL     1      -0.402  17.094  20.031  0.00  0.00    +0.000 N 
ATOM     17  C   UNL     1      -0.193  16.429  18.851  0.00  0.00    +0.000 C 
ATOM     18  O   UNL     1      -0.647  16.863  17.803  0.00  0.00    +0.000 OA
ATOM     19  H   UNL     1      -0.876  17.987  19.961  0.00  0.00    +0.000 HD
ATOM     20  H   UNL     1       0.137  16.911  20.865  0.00  0.00    +0.000 HD
ENDBRANCH   1  17
BRANCH  12  21
ATOM     21  C   UNL     1       2.547   7.536  18.964  0.00  0.00    +0.000 C 
BRANCH  21  22
ATOM     22  C   UNL     1       2.244   6.052  18.973  0.00  0.00    +0.000 A 
ATOM     23  C   UNL     1       1.896   5.393  17.786  0.00  0.00    +0.000 A 
ATOM     24  C   UNL     1       1.580   4.035  17.797  0.00  0.00    +0.000 A 
ATOM     25  C   UNL     1       1.627   3.320  18.989  0.00  0.00    +0.000 A 
ATOM     26  F   UNL     1       1.311   2.019  18.962  0.00  0.00    +0.000 F 
ATOM     27  C   UNL     1       1.996   3.933  20.182  0.00  0.00    +0.000 A 
ATOM     28  C   UNL     1       2.295   5.310  20.167  0.00  0.00    +0.000 A 
BRANCH  27  29
ATOM     29  C   UNL     1       2.098   3.145  21.455  0.00  0.00    +0.000 C 
ATOM     30  F   UNL     1       3.032   2.156  21.455  0.00  0.00    +0.000 F 
ATOM     31  F   UNL     1       2.406   3.940  22.520  0.00  0.00    +0.000 F 
ATOM     32  F   UNL     1       0.920   2.541  21.783  0.00  0.00    +0.000 F 
ENDBRANCH  27  29
ENDBRANCH  21  22
ENDBRANCH  12  21
TORSDOF 4
ENDMDL
MODEL 6
REMARK VINA RESULT:      -8.0      1.095      2.106
REMARK  Name = 
REMARK  4 active torsions:
REMARK  status: ('A' for Active; 'I' for Inactive)
REMARK    1  A    between atoms: C_2  and  C_4
REMARK    2  A    between atoms: C_15  and  C_16
REMARK    3  A    between atoms: C_16  and  C_17
REMARK    4  A    between atoms: C_22  and  C_23
REMARK                            x       y       z     vdW  Elec       q    Type
REMARK                         _______ _______ _______ _____ _____    ______ ____
ROOT
ATOM      1  C   UNL     1       3.252   4.388  19.324  0.00  0.00    +0.000 A 
ATOM      2  C   UNL     1       2.641   4.256  20.580  0.00  0.00    +0.000 A 
ATOM      3  C   UNL     1       1.942   5.330  21.147  0.00  0.00    +0.000 A 
ATOM      4  C   UNL     1       1.844   6.547  20.472  0.00  0.00    +0.000 A 
ATOM      5  C   UNL     1       2.423   6.679  19.218  0.00  0.00    +0.000 A 
ATOM      6  C   UNL     1       3.143   5.611  18.665  0.00  0.00    +0.000 A 
ATOM      7  C   UNL     1       3.641   6.004  17.310  0.00  0.00    +0.000 C 
ATOM      8  C   UNL     1       3.393   7.525  17.311  0.00  0.00    +0.000 C 
ATOM      9  N   UNL     1       2.410   7.802  18.366  0.00  0.00    +0.000 N 
ATOM     10  C   UNL     1       1.960   9.110  18.536  0.00  0.00    +0.000 A 
ATOM     11  C   UNL     1       0.728   9.365  19.147  0.00  0.00    +0.000 A 
ATOM     12  C   UNL     1       0.250  10.675  19.280  0.00  0.00    +0.000 A 
ATOM     13  C   UNL     1       1.042  11.710  18.791  0.00  0.00    +0.000 A 
ATOM     14  C   UNL     1       2.252  11.389  18.200  0.00  0.00    +0.000 A 
ATOM     15  N   UNL     1       2.709  10.127  18.051  0.00  0.00    +0.000 NA
ENDROOT
BRANCH   1  17
ATOM     16  N   UNL     1       5.353   3.205  18.991  0.00  0.00    +0.000 N 
ATOM     17  C   UNL     1       4.011   3.262  18.720  0.00  0.00    +0.000 C 
ATOM     18  O   UNL     1       3.478   2.405  18.033  0.00  0.00    +0.000 OA
ATOM     19  H   UNL     1       5.839   2.380  18.660  0.00  0.00    +0.000 HD
ATOM     20  H   UNL     1       5.785   3.741  19.730  0.00  0.00    +0.000 HD
ENDBRANCH   1  17
BRANCH  12  21
ATOM     21  C   UNL     1      -1.084  10.955  19.929  0.00  0.00    +0.000 C 
BRANCH  21  22
ATOM     22  C   UNL     1      -2.217  11.163  18.945  0.00  0.00    +0.000 A 
ATOM     23  C   UNL     1      -3.315  11.964  19.288  0.00  0.00    +0.000 A 
ATOM     24  C   UNL     1      -4.377  12.126  18.399  0.00  0.00    +0.000 A 
ATOM     25  C   UNL     1      -4.343  11.506  17.154  0.00  0.00    +0.000 A 
ATOM     26  F   UNL     1      -5.384  11.681  16.330  0.00  0.00    +0.000 F 
ATOM     27  C   UNL     1      -3.257  10.728  16.767  0.00  0.00    +0.000 A 
ATOM     28  C   UNL     1      -2.196  10.552  17.679  0.00  0.00    +0.000 A 
BRANCH  27  29
ATOM     29  C   UNL     1      -3.201  10.106  15.402  0.00  0.00    +0.000 C 
ATOM     30  F   UNL     1      -2.981  10.972  14.376  0.00  0.00    +0.000 F 
ATOM     31  F   UNL     1      -2.211   9.171  15.312  0.00  0.00    +0.000 F 
ATOM     32  F   UNL     1      -4.352   9.446  15.089  0.00  0.00    +0.000 F 
ENDBRANCH  27  29
ENDBRANCH  21  22
ENDBRANCH  12  21
TORSDOF 4
ENDMDL
MODEL 7
REMARK VINA RESULT:      -8.0      5.740      9.279
REMARK  Name = 
REMARK  4 active torsions:
REMARK  status: ('A' for Active; 'I' for Inactive)
REMARK    1  A    between atoms: C_2  and  C_4
REMARK    2  A    between atoms: C_15  and  C_16
REMARK    3  A    between atoms: C_16  and  C_17
REMARK    4  A    between atoms: C_22  and  C_23
REMARK                            x       y       z     vdW  Elec       q    Type
REMARK                         _______ _______ _______ _____ _____    ______ ____
ROOT
ATOM      1  C   UNL     1      -5.182  11.939  19.242  0.00  0.00    +0.000 A 
ATOM      2  C   UNL     1      -5.382  11.151  18.099  0.00  0.00    +0.000 A 
ATOM      3  C   UNL     1      -4.288  10.663  17.371  0.00  0.00    +0.000 A 
ATOM      4  C   UNL     1      -2.984  10.955  17.772  0.00  0.00    +0.000 A 
ATOM      5  C   UNL     1      -2.776  11.712  18.916  0.00  0.00    +0.000 A 
ATOM      6  C   UNL     1      -3.873  12.218  19.627  0.00  0.00    +0.000 A 
ATOM      7  C   UNL     1      -3.377  12.974  20.819  0.00  0.00    +0.000 C 
ATOM      8  C   UNL     1      -1.874  13.105  20.510  0.00  0.00    +0.000 C 
ATOM      9  N   UNL     1      -1.550  12.086  19.503  0.00  0.00    +0.000 N 
ATOM     10  C   UNL     1      -0.226  11.948  19.091  0.00  0.00    +0.000 A 
ATOM     11  C   UNL     1       0.226  10.744  18.542  0.00  0.00    +0.000 A 
ATOM     12  C   UNL     1       1.567  10.585  18.167  0.00  0.00    +0.000 A 
ATOM     13  C   UNL     1       2.428  11.662  18.353  0.00  0.00    +0.000 A 
ATOM     14  C   UNL     1       1.916  12.826  18.900  0.00  0.00    +0.000 A 
ATOM     15  N   UNL     1       0.629  12.979  19.281  0.00  0.00    +0.000 NA
ENDROOT
BRANCH   1  17
ATOM     16  N   UNL     1      -6.771  11.729  21.074  0.00  0.00    +0.000 N 
ATOM     17  C   UNL     1      -6.334  12.476  20.012  0.00  0.00    +0.000 C 
ATOM     18  O   UNL     1      -6.864  13.542  19.741  0.00  0.00    +0.000 OA
ATOM     19  H   UNL     1      -7.488  12.152  21.651  0.00  0.00    +0.000 HD
ATOM     20  H   UNL     1      -6.228  10.976  21.473  0.00  0.00    +0.000 HD
ENDBRANCH   1  17
BRANCH  12  21
ATOM     21  C   UNL     1       2.064   9.283  17.583  0.00  0.00    +0.000 C 
BRANCH  21  22
ATOM     22  C   UNL     1       2.047   8.125  18.558  0.00  0.00    +0.000 A 
ATOM     23  C   UNL     1       1.656   8.324  19.890  0.00  0.00    +0.000 A 
ATOM     24  C   UNL     1       1.676   7.267  20.799  0.00  0.00    +0.000 A 
ATOM     25  C   UNL     1       2.069   5.999  20.383  0.00  0.00    +0.000 A 
ATOM     26  F   UNL     1       2.081   5.011  21.286  0.00  0.00    +0.000 F 
ATOM     27  C   UNL     1       2.437   5.756  19.063  0.00  0.00    +0.000 A 
ATOM     28  C   UNL     1       2.433   6.834  18.154  0.00  0.00    +0.000 A 
BRANCH  27  29
ATOM     29  C   UNL     1       2.807   4.375  18.607  0.00  0.00    +0.000 C 
ATOM     30  F   UNL     1       3.131   4.262  17.291  0.00  0.00    +0.000 F 
ATOM     31  F   UNL     1       3.881   3.887  19.293  0.00  0.00    +0.000 F 
ATOM     32  F   UNL     1       1.804   3.476  18.820  0.00  0.00    +0.000 F 
ENDBRANCH  27  29
ENDBRANCH  21  22
ENDBRANCH  12  21
TORSDOF 4
ENDMDL
MODEL 8
REMARK VINA RESULT:      -8.0      6.447      9.988
REMARK  Name = 
REMARK  4 active torsions:
REMARK  status: ('A' for Active; 'I' for Inactive)
REMARK    1  A    between atoms: C_2  and  C_4
REMARK    2  A    between atoms: C_15  and  C_16
REMARK    3  A    between atoms: C_16  and  C_17
REMARK    4  A    between atoms: C_22  and  C_23
REMARK                            x       y       z     vdW  Elec       q    Type
REMARK                         _______ _______ _______ _____ _____    ______ ____
ROOT
ATOM      1  C   UNL     1       0.794  14.498  19.342  0.00  0.00    +0.000 A 
ATOM      2  C   UNL     1       1.829  14.607  18.401  0.00  0.00    +0.000 A 
ATOM      3  C   UNL     1       2.536  13.471  17.987  0.00  0.00    +0.000 A 
ATOM      4  C   UNL     1       2.222  12.213  18.505  0.00  0.00    +0.000 A 
ATOM      5  C   UNL     1       1.183  12.092  19.417  0.00  0.00    +0.000 A 
ATOM      6  C   UNL     1       0.494  13.235  19.847  0.00  0.00    +0.000 A 
ATOM      7  C   UNL     1      -0.581  12.828  20.804  0.00  0.00    +0.000 C 
ATOM      8  C   UNL     1      -0.201  11.365  21.105  0.00  0.00    +0.000 C 
ATOM      9  N   UNL     1       0.692  10.920  20.027  0.00  0.00    +0.000 N 
ATOM     10  C   UNL     1       1.135   9.600  20.028  0.00  0.00    +0.000 A 
ATOM     11  C   UNL     1       1.557   8.991  18.841  0.00  0.00    +0.000 A 
ATOM     12  C   UNL     1       1.961   7.649  18.827  0.00  0.00    +0.000 A 
ATOM     13  C   UNL     1       1.936   6.948  20.029  0.00  0.00    +0.000 A 
ATOM     14  C   UNL     1       1.509   7.611  21.167  0.00  0.00    +0.000 A 
ATOM     15  N   UNL     1       1.100   8.898  21.183  0.00  0.00    +0.000 NA
ENDROOT
BRANCH   1  17
ATOM     16  N   UNL     1      -1.065  16.048  19.084  0.00  0.00    +0.000 N 
ATOM     17  C   UNL     1       0.048  15.699  19.802  0.00  0.00    +0.000 C 
ATOM     18  O   UNL     1       0.382  16.342  20.785  0.00  0.00    +0.000 OA
ATOM     19  H   UNL     1      -1.622  16.805  19.465  0.00  0.00    +0.000 HD
ATOM     20  H   UNL     1      -1.507  15.425  18.423  0.00  0.00    +0.000 HD
ENDBRANCH   1  17
BRANCH  12  21
ATOM     21  C   UNL     1       2.408   6.984  17.547  0.00  0.00    +0.000 C 
BRANCH  21  22
ATOM     22  C   UNL     1       3.760   6.308  17.643  0.00  0.00    +0.000 A 
ATOM     23  C   UNL     1       3.848   4.917  17.793  0.00  0.00    +0.000 A 
ATOM     24  C   UNL     1       5.091   4.296  17.919  0.00  0.00    +0.000 A 
ATOM     25  C   UNL     1       6.255   5.056  17.879  0.00  0.00    +0.000 A 
ATOM     26  F   UNL     1       7.429   4.425  18.010  0.00  0.00    +0.000 F 
ATOM     27  C   UNL     1       6.208   6.436  17.702  0.00  0.00    +0.000 A 
ATOM     28  C   UNL     1       4.949   7.058  17.595  0.00  0.00    +0.000 A 
BRANCH  27  29
ATOM     29  C   UNL     1       7.470   7.243  17.605  0.00  0.00    +0.000 C 
ATOM     30  F   UNL     1       8.199   7.050  16.473  0.00  0.00    +0.000 F 
ATOM     31  F   UNL     1       7.218   8.583  17.654  0.00  0.00    +0.000 F 
ATOM     32  F   UNL     1       8.321   6.997  18.641  0.00  0.00    +0.000 F 
ENDBRANCH  27  29
ENDBRANCH  21  22
ENDBRANCH  12  21
TORSDOF 4
ENDMDL
MODEL 9
REMARK VINA RESULT:      -7.9      5.624      9.215
REMARK  Name = 
REMARK  4 active torsions:
REMARK  status: ('A' for Active; 'I' for Inactive)
REMARK    1  A    between atoms: C_2  and  C_4
REMARK    2  A    between atoms: C_15  and  C_16
REMARK    3  A    between atoms: C_16  and  C_17
REMARK    4  A    between atoms: C_22  and  C_23
REMARK                            x       y       z     vdW  Elec       q    Type
REMARK                         _______ _______ _______ _____ _____    ______ ____
ROOT
ATOM      1  C   UNL     1      -5.047  11.615  17.614  0.00  0.00    +0.000 A 
ATOM      2  C   UNL     1      -4.976  10.932  16.391  0.00  0.00    +0.000 A 
ATOM      3  C   UNL     1      -3.750  10.441  15.921  0.00  0.00    +0.000 A 
ATOM      4  C   UNL     1      -2.583  10.624  16.663  0.00  0.00    +0.000 A 
ATOM      5  C   UNL     1      -2.648  11.276  17.886  0.00  0.00    +0.000 A 
ATOM      6  C   UNL     1      -3.871  11.787  18.341  0.00  0.00    +0.000 A 
ATOM      7  C   UNL     1      -3.671  12.418  19.683  0.00  0.00    +0.000 C 
ATOM      8  C   UNL     1      -2.134  12.485  19.775  0.00  0.00    +0.000 C 
ATOM      9  N   UNL     1      -1.600  11.531  18.794  0.00  0.00    +0.000 N 
ATOM     10  C   UNL     1      -0.221  11.350  18.719  0.00  0.00    +0.000 A 
ATOM     11  C   UNL     1       0.314  10.169  18.195  0.00  0.00    +0.000 A 
ATOM     12  C   UNL     1       1.699   9.962  18.158  0.00  0.00    +0.000 A 
ATOM     13  C   UNL     1       2.522  10.970  18.652  0.00  0.00    +0.000 A 
ATOM     14  C   UNL     1       1.928  12.115  19.154  0.00  0.00    +0.000 A 
ATOM     15  N   UNL     1       0.593  12.311  19.211  0.00  0.00    +0.000 NA
ENDROOT
BRANCH   1  17
ATOM     16  N   UNL     1      -7.239  11.249  18.606  0.00  0.00    +0.000 N 
ATOM     17  C   UNL     1      -6.338  12.156  18.114  0.00  0.00    +0.000 C 
ATOM     18  O   UNL     1      -6.592  13.350  18.118  0.00  0.00    +0.000 OA
ATOM     19  H   UNL     1      -8.072  11.636  19.036  0.00  0.00    +0.000 HD
ATOM     20  H   UNL     1      -6.988  10.298  18.839  0.00  0.00    +0.000 HD
ENDBRANCH   1  17
BRANCH  12  21
ATOM     21  C   UNL     1       2.281   8.684  17.602  0.00  0.00    +0.000 C 
BRANCH  21  22
ATOM     22  C   UNL     1       2.142   7.491  18.525  0.00  0.00    +0.000 A 
ATOM     23  C   UNL     1       1.969   7.678  19.903  0.00  0.00    +0.000 A 
ATOM     24  C   UNL     1       1.878   6.581  20.760  0.00  0.00    +0.000 A 
ATOM     25  C   UNL     1       1.940   5.290  20.246  0.00  0.00    +0.000 A 
ATOM     26  F   UNL     1       1.855   4.263  21.101  0.00  0.00    +0.000 F 
ATOM     27  C   UNL     1       2.082   5.065  18.880  0.00  0.00    +0.000 A 
ATOM     28  C   UNL     1       2.193   6.178  18.023  0.00  0.00    +0.000 A 
BRANCH  27  29
ATOM     29  C   UNL     1       2.093   3.671  18.326  0.00  0.00    +0.000 C 
ATOM     30  F   UNL     1       3.065   2.856  18.818  0.00  0.00    +0.000 F 
ATOM     31  F   UNL     1       0.917   3.022  18.564  0.00  0.00    +0.000 F 
ATOM     32  F   UNL     1       2.247   3.655  16.972  0.00  0.00    +0.000 F 
ENDBRANCH  27  29
ENDBRANCH  21  22
ENDBRANCH  12  21
TORSDOF 4
ENDMDL
