MODEL 1
REMARK VINA RESULT:      -6.0      0.000      0.000
REMARK  Name = 
REMARK  5 active torsions:
REMARK  status: ('A' for Active; 'I' for Inactive)
REMARK    1  A    between atoms: C_1  and  N_2
REMARK    2  A    between atoms: N_2  and  C_3
REMARK    3  A    between atoms: C_6  and  N_7
REMARK    4  A    between atoms: N_7  and  C_8
REMARK    5  A    between atoms: N_7  and  C_9
REMARK                            x       y       z     vdW  Elec       q    Type
REMARK                         _______ _______ _______ _____ _____    ______ ____
ROOT
ATOM      1  C   UNL     1       0.468   9.256  22.412  0.00  0.00    +0.000 C 
ATOM      2  N   UNL     1       0.444   9.823  21.075  0.00  0.00    +0.000 N 
ATOM      3  C   UNL     1      -0.238  11.080  20.818  0.00  0.00    +0.000 C 
ATOM      4  C   UNL     1       1.125   9.147  20.023  0.00  0.00    +0.000 A 
ATOM      5  N   UNL     1       1.721   7.931  20.217  0.00  0.00    +0.000 NA
ATOM      6  C   UNL     1       2.419   7.381  19.179  0.00  0.00    +0.000 A 
ATOM      7  S   UNL     1       2.399   8.308  17.746  0.00  0.00    +0.000 S 
ATOM      8  S   UNL     1       1.310   9.800  18.460  0.00  0.00    +0.000 S 
ENDROOT
BRANCH   6   9
ATOM      9  N   UNL     1       3.052   6.099  19.287  0.00  0.00    +0.000 N 
ATOM     10  C   UNL     1       4.486   5.994  19.052  0.00  0.00    +0.000 C 
BRANCH   9  11
ATOM     11  C   UNL     1       2.286   4.911  19.573  0.00  0.00    +0.000 A 
ATOM     12  C   UNL     1       1.702   4.167  18.524  0.00  0.00    +0.000 A 
ATOM     13  C   UNL     1       0.990   2.996  18.782  0.00  0.00    +0.000 A 
ATOM     14  C   UNL     1       0.839   2.545  20.091  0.00  0.00    +0.000 A 
ATOM     15  C   UNL     1       1.412   3.260  21.144  0.00  0.00    +0.000 A 
ATOM     16  C   UNL     1       2.139   4.427  20.891  0.00  0.00    +0.000 A 
ENDBRANCH   9  11
ENDBRANCH   6   9
TORSDOF 2
ENDMDL
MODEL 2
REMARK VINA RESULT:      -5.9      4.517      6.953
REMARK  Name = 
REMARK  5 active torsions:
REMARK  status: ('A' for Active; 'I' for Inactive)
REMARK    1  A    between atoms: C_1  and  N_2
REMARK    2  A    between atoms: N_2  and  C_3
REMARK    3  A    between atoms: C_6  and  N_7
REMARK    4  A    between atoms: N_7  and  C_8
REMARK    5  A    between atoms: N_7  and  C_9
REMARK                            x       y       z     vdW  Elec       q    Type
REMARK                         _______ _______ _______ _____ _____    ______ ____
ROOT
ATOM      1  C   UNL     1       2.915   1.719  18.713  0.00  0.00    +0.000 C 
ATOM      2  N   UNL     1       2.409   3.078  18.627  0.00  0.00    +0.000 N 
ATOM      3  C   UNL     1       1.094   3.411  19.149  0.00  0.00    +0.000 C 
ATOM      4  C   UNL     1       3.230   4.089  18.052  0.00  0.00    +0.000 A 
ATOM      5  N   UNL     1       4.445   3.797  17.494  0.00  0.00    +0.000 NA
ATOM      6  C   UNL     1       5.208   4.832  17.029  0.00  0.00    +0.000 A 
ATOM      7  S   UNL     1       4.482   6.369  17.186  0.00  0.00    +0.000 S 
ATOM      8  S   UNL     1       2.815   5.741  18.052  0.00  0.00    +0.000 S 
ENDROOT
BRANCH   6   9
ATOM      9  N   UNL     1       6.481   4.614  16.406  0.00  0.00    +0.000 N 
ATOM     10  C   UNL     1       7.676   4.552  17.237  0.00  0.00    +0.000 C 
BRANCH   9  11
ATOM     11  C   UNL     1       6.600   4.507  14.973  0.00  0.00    +0.000 A 
ATOM     12  C   UNL     1       7.588   5.241  14.280  0.00  0.00    +0.000 A 
ATOM     13  C   UNL     1       7.739   5.119  12.900  0.00  0.00    +0.000 A 
ATOM     14  C   UNL     1       6.906   4.268  12.178  0.00  0.00    +0.000 A 
ATOM     15  C   UNL     1       5.926   3.528  12.841  0.00  0.00    +0.000 A 
ATOM     16  C   UNL     1       5.778   3.634  14.228  0.00  0.00    +0.000 A 
ENDBRANCH   9  11
ENDBRANCH   6   9
TORSDOF 2
ENDMDL
MODEL 3
REMARK VINA RESULT:      -5.9      0.430      1.275
REMARK  Name = 
REMARK  5 active torsions:
REMARK  status: ('A' for Active; 'I' for Inactive)
REMARK    1  A    between atoms: C_1  and  N_2
REMARK    2  A    between atoms: N_2  and  C_3
REMARK    3  A    between atoms: C_6  and  N_7
REMARK    4  A    between atoms: N_7  and  C_8
REMARK    5  A    between atoms: N_7  and  C_9
REMARK                            x       y       z     vdW  Elec       q    Type
REMARK                         _______ _______ _______ _____ _____    ______ ____
ROOT
ATOM      1  C   UNL     1       0.778   9.150  22.658  0.00  0.00    +0.000 C 
ATOM      2  N   UNL     1       0.554   9.828  21.394  0.00  0.00    +0.000 N 
ATOM      3  C   UNL     1      -0.181  11.081  21.347  0.00  0.00    +0.000 C 
ATOM      4  C   UNL     1       1.091   9.266  20.201  0.00  0.00    +0.000 A 
ATOM      5  N   UNL     1       1.732   8.057  20.201  0.00  0.00    +0.000 NA
ATOM      6  C   UNL     1       2.286   7.619  19.031  0.00  0.00    +0.000 A 
ATOM      7  S   UNL     1       2.044   8.665  17.703  0.00  0.00    +0.000 S 
ATOM      8  S   UNL     1       1.040  10.055  18.692  0.00  0.00    +0.000 S 
ENDROOT
BRANCH   6   9
ATOM      9  N   UNL     1       2.952   6.354  18.935  0.00  0.00    +0.000 N 
ATOM     10  C   UNL     1       4.344   6.315  18.507  0.00  0.00    +0.000 C 
BRANCH   9  11
ATOM     11  C   UNL     1       2.253   5.121  19.206  0.00  0.00    +0.000 A 
ATOM     12  C   UNL     1       1.933   4.757  20.532  0.00  0.00    +0.000 A 
ATOM     13  C   UNL     1       1.225   3.587  20.807  0.00  0.00    +0.000 A 
ATOM     14  C   UNL     1       0.825   2.753  19.765  0.00  0.00    +0.000 A 
ATOM     15  C   UNL     1       1.124   3.095  18.446  0.00  0.00    +0.000 A 
ATOM     16  C   UNL     1       1.822   4.273  18.162  0.00  0.00    +0.000 A 
ENDBRANCH   9  11
ENDBRANCH   6   9
TORSDOF 2
ENDMDL
MODEL 4
REMARK VINA RESULT:      -5.8      3.078      4.933
REMARK  Name = 
REMARK  5 active torsions:
REMARK  status: ('A' for Active; 'I' for Inactive)
REMARK    1  A    between atoms: C_1  and  N_2
REMARK    2  A    between atoms: N_2  and  C_3
REMARK    3  A    between atoms: C_6  and  N_7
REMARK    4  A    between atoms: N_7  and  C_8
REMARK    5  A    between atoms: N_7  and  C_9
REMARK                            x       y       z     vdW  Elec       q    Type
REMARK                         _______ _______ _______ _____ _____    ______ ____
ROOT
ATOM      1  C   UNL     1       2.512   8.456  17.972  0.00  0.00    +0.000 C 
ATOM      2  N   UNL     1       2.090   7.862  19.228  0.00  0.00    +0.000 N 
ATOM      3  C   UNL     1       1.400   8.660  20.228  0.00  0.00    +0.000 C 
ATOM      4  C   UNL     1       2.334   6.478  19.457  0.00  0.00    +0.000 A 
ATOM      5  N   UNL     1       3.038   5.715  18.565  0.00  0.00    +0.000 NA
ATOM      6  C   UNL     1       3.166   4.378  18.819  0.00  0.00    +0.000 A 
ATOM      7  S   UNL     1       2.441   3.865  20.277  0.00  0.00    +0.000 S 
ATOM      8  S   UNL     1       1.737   5.637  20.812  0.00  0.00    +0.000 S 
ENDROOT
BRANCH   6   9
ATOM      9  N   UNL     1       3.908   3.511  17.952  0.00  0.00    +0.000 N 
ATOM     10  C   UNL     1       3.564   2.096  17.901  0.00  0.00    +0.000 C 
BRANCH   9  11
ATOM     11  C   UNL     1       5.016   4.006  17.173  0.00  0.00    +0.000 A 
ATOM     12  C   UNL     1       6.232   4.357  17.800  0.00  0.00    +0.000 A 
ATOM     13  C   UNL     1       7.324   4.801  17.056  0.00  0.00    +0.000 A 
ATOM     14  C   UNL     1       7.226   4.912  15.671  0.00  0.00    +0.000 A 
ATOM     15  C   UNL     1       6.037   4.565  15.027  0.00  0.00    +0.000 A 
ATOM     16  C   UNL     1       4.942   4.105  15.766  0.00  0.00    +0.000 A 
ENDBRANCH   9  11
ENDBRANCH   6   9
TORSDOF 2
ENDMDL
MODEL 5
REMARK VINA RESULT:      -5.8      3.027      4.765
REMARK  Name = 
REMARK  5 active torsions:
REMARK  status: ('A' for Active; 'I' for Inactive)
REMARK    1  A    between atoms: C_1  and  N_2
REMARK    2  A    between atoms: N_2  and  C_3
REMARK    3  A    between atoms: C_6  and  N_7
REMARK    4  A    between atoms: N_7  and  C_8
REMARK    5  A    between atoms: N_7  and  C_9
REMARK                            x       y       z     vdW  Elec       q    Type
REMARK                         _______ _______ _______ _____ _____    ______ ____
ROOT
ATOM      1  C   UNL     1       2.437   8.507  17.819  0.00  0.00    +0.000 C 
ATOM      2  N   UNL     1       2.060   7.960  19.110  0.00  0.00    +0.000 N 
ATOM      3  C   UNL     1       1.389   8.789  20.097  0.00  0.00    +0.000 C 
ATOM      4  C   UNL     1       2.329   6.589  19.387  0.00  0.00    +0.000 A 
ATOM      5  N   UNL     1       3.015   5.799  18.506  0.00  0.00    +0.000 NA
ATOM      6  C   UNL     1       3.168   4.475  18.809  0.00  0.00    +0.000 A 
ATOM      7  S   UNL     1       2.493   4.013  20.307  0.00  0.00    +0.000 S 
ATOM      8  S   UNL     1       1.782   5.796  20.792  0.00  0.00    +0.000 S 
ENDROOT
BRANCH   6   9
ATOM      9  N   UNL     1       3.895   3.581  17.956  0.00  0.00    +0.000 N 
ATOM     10  C   UNL     1       3.488   2.185  17.879  0.00  0.00    +0.000 C 
BRANCH   9  11
ATOM     11  C   UNL     1       5.049   4.032  17.216  0.00  0.00    +0.000 A 
ATOM     12  C   UNL     1       4.989   4.168  15.811  0.00  0.00    +0.000 A 
ATOM     13  C   UNL     1       6.084   4.637  15.087  0.00  0.00    +0.000 A 
ATOM     14  C   UNL     1       7.264   4.976  15.746  0.00  0.00    +0.000 A 
ATOM     15  C   UNL     1       7.345   4.856  17.134  0.00  0.00    +0.000 A 
ATOM     16  C   UNL     1       6.246   4.399  17.868  0.00  0.00    +0.000 A 
ENDBRANCH   9  11
ENDBRANCH   6   9
TORSDOF 2
ENDMDL
MODEL 6
REMARK VINA RESULT:      -5.7      2.709      6.119
REMARK  Name = 
REMARK  5 active torsions:
REMARK  status: ('A' for Active; 'I' for Inactive)
REMARK    1  A    between atoms: C_1  and  N_2
REMARK    2  A    between atoms: N_2  and  C_3
REMARK    3  A    between atoms: C_6  and  N_7
REMARK    4  A    between atoms: N_7  and  C_8
REMARK    5  A    between atoms: N_7  and  C_9
REMARK                            x       y       z     vdW  Elec       q    Type
REMARK                         _______ _______ _______ _____ _____    ______ ____
ROOT
ATOM      1  C   UNL     1       7.498   5.896  18.993  0.00  0.00    +0.000 C 
ATOM      2  N   UNL     1       6.862   5.111  17.950  0.00  0.00    +0.000 N 
ATOM      3  C   UNL     1       7.661   4.449  16.932  0.00  0.00    +0.000 C 
ATOM      4  C   UNL     1       5.445   4.971  17.954  0.00  0.00    +0.000 A 
ATOM      5  N   UNL     1       4.660   5.632  18.859  0.00  0.00    +0.000 NA
ATOM      6  C   UNL     1       3.315   5.389  18.847  0.00  0.00    +0.000 A 
ATOM      7  S   UNL     1       2.807   4.295  17.638  0.00  0.00    +0.000 S 
ATOM      8  S   UNL     1       4.605   3.941  16.888  0.00  0.00    +0.000 S 
ENDROOT
BRANCH   6   9
ATOM      9  N   UNL     1       2.416   6.057  19.742  0.00  0.00    +0.000 N 
ATOM     10  C   UNL     1       1.897   5.336  20.896  0.00  0.00    +0.000 C 
BRANCH   9  11
ATOM     11  C   UNL     1       1.982   7.409  19.489  0.00  0.00    +0.000 A 
ATOM     12  C   UNL     1       1.401   8.179  20.521  0.00  0.00    +0.000 A 
ATOM     13  C   UNL     1       1.011   9.499  20.302  0.00  0.00    +0.000 A 
ATOM     14  C   UNL     1       1.186  10.080  19.048  0.00  0.00    +0.000 A 
ATOM     15  C   UNL     1       1.764   9.342  18.014  0.00  0.00    +0.000 A 
ATOM     16  C   UNL     1       2.170   8.021  18.231  0.00  0.00    +0.000 A 
ENDBRANCH   9  11
ENDBRANCH   6   9
TORSDOF 2
ENDMDL
MODEL 7
REMARK VINA RESULT:      -5.7      3.932      6.196
REMARK  Name = 
REMARK  5 active torsions:
REMARK  status: ('A' for Active; 'I' for Inactive)
REMARK    1  A    between atoms: C_1  and  N_2
REMARK    2  A    between atoms: N_2  and  C_3
REMARK    3  A    between atoms: C_6  and  N_7
REMARK    4  A    between atoms: N_7  and  C_8
REMARK    5  A    between atoms: N_7  and  C_9
REMARK                            x       y       z     vdW  Elec       q    Type
REMARK                         _______ _______ _______ _____ _____    ______ ____
ROOT
ATOM      1  C   UNL     1       1.876   5.549  20.585  0.00  0.00    +0.000 C 
ATOM      2  N   UNL     1       1.938   4.117  20.355  0.00  0.00    +0.000 N 
ATOM      3  C   UNL     1       1.129   3.205  21.146  0.00  0.00    +0.000 C 
ATOM      4  C   UNL     1       2.781   3.617  19.321  0.00  0.00    +0.000 A 
ATOM      5  N   UNL     1       3.603   4.441  18.602  0.00  0.00    +0.000 NA
ATOM      6  C   UNL     1       4.325   3.899  17.576  0.00  0.00    +0.000 A 
ATOM      7  S   UNL     1       4.112   2.216  17.377  0.00  0.00    +0.000 S 
ATOM      8  S   UNL     1       2.807   1.981  18.847  0.00  0.00    +0.000 S 
ENDROOT
BRANCH   6   9
ATOM      9  N   UNL     1       5.230   4.684  16.789  0.00  0.00    +0.000 N 
ATOM     10  C   UNL     1       5.191   4.567  15.337  0.00  0.00    +0.000 C 
BRANCH   9  11
ATOM     11  C   UNL     1       6.206   5.544  17.411  0.00  0.00    +0.000 A 
ATOM     12  C   UNL     1       6.952   5.092  18.522  0.00  0.00    +0.000 A 
ATOM     13  C   UNL     1       7.925   5.899  19.111  0.00  0.00    +0.000 A 
ATOM     14  C   UNL     1       8.172   7.175  18.610  0.00  0.00    +0.000 A 
ATOM     15  C   UNL     1       7.451   7.641  17.510  0.00  0.00    +0.000 A 
ATOM     16  C   UNL     1       6.484   6.832  16.905  0.00  0.00    +0.000 A 
ENDBRANCH   9  11
ENDBRANCH   6   9
TORSDOF 2
ENDMDL
MODEL 8
REMARK VINA RESULT:      -5.6      3.826      6.105
REMARK  Name = 
REMARK  5 active torsions:
REMARK  status: ('A' for Active; 'I' for Inactive)
REMARK    1  A    between atoms: C_1  and  N_2
REMARK    2  A    between atoms: N_2  and  C_3
REMARK    3  A    between atoms: C_6  and  N_7
REMARK    4  A    between atoms: N_7  and  C_8
REMARK    5  A    between atoms: N_7  and  C_9
REMARK                            x       y       z     vdW  Elec       q    Type
REMARK                         _______ _______ _______ _____ _____    ______ ____
ROOT
ATOM      1  C   UNL     1       2.111   5.850  20.379  0.00  0.00    +0.000 C 
ATOM      2  N   UNL     1       2.009   4.414  20.191  0.00  0.00    +0.000 N 
ATOM      3  C   UNL     1       1.076   3.630  20.983  0.00  0.00    +0.000 C 
ATOM      4  C   UNL     1       2.814   3.785  19.199  0.00  0.00    +0.000 A 
ATOM      5  N   UNL     1       3.746   4.483  18.482  0.00  0.00    +0.000 NA
ATOM      6  C   UNL     1       4.426   3.827  17.495  0.00  0.00    +0.000 A 
ATOM      7  S   UNL     1       4.021   2.176  17.338  0.00  0.00    +0.000 S 
ATOM      8  S   UNL     1       2.657   2.143  18.773  0.00  0.00    +0.000 S 
ENDROOT
BRANCH   6   9
ATOM      9  N   UNL     1       5.439   4.474  16.713  0.00  0.00    +0.000 N 
ATOM     10  C   UNL     1       5.561   4.146  15.299  0.00  0.00    +0.000 C 
BRANCH   9  11
ATOM     11  C   UNL     1       6.366   5.401  17.315  0.00  0.00    +0.000 A 
ATOM     12  C   UNL     1       6.453   6.730  16.847  0.00  0.00    +0.000 A 
ATOM     13  C   UNL     1       7.317   7.648  17.443  0.00  0.00    +0.000 A 
ATOM     14  C   UNL     1       8.118   7.259  18.514  0.00  0.00    +0.000 A 
ATOM     15  C   UNL     1       8.045   5.952  18.998  0.00  0.00    +0.000 A 
ATOM     16  C   UNL     1       7.170   5.030  18.415  0.00  0.00    +0.000 A 
ENDBRANCH   9  11
ENDBRANCH   6   9
TORSDOF 2
ENDMDL
MODEL 9
REMARK VINA RESULT:      -5.6      2.821      6.032
REMARK  Name = 
REMARK  5 active torsions:
REMARK  status: ('A' for Active; 'I' for Inactive)
REMARK    1  A    between atoms: C_1  and  N_2
REMARK    2  A    between atoms: N_2  and  C_3
REMARK    3  A    between atoms: C_6  and  N_7
REMARK    4  A    between atoms: N_7  and  C_8
REMARK    5  A    between atoms: N_7  and  C_9
REMARK                            x       y       z     vdW  Elec       q    Type
REMARK                         _______ _______ _______ _____ _____    ______ ____
ROOT
ATOM      1  C   UNL     1       7.069   6.801  17.292  0.00  0.00    +0.000 C 
ATOM      2  N   UNL     1       6.440   5.638  16.692  0.00  0.00    +0.000 N 
ATOM      3  C   UNL     1       7.103   4.907  15.626  0.00  0.00    +0.000 C 
ATOM      4  C   UNL     1       5.175   5.204  17.183  0.00  0.00    +0.000 A 
ATOM      5  N   UNL     1       4.496   5.906  18.141  0.00  0.00    +0.000 NA
ATOM      6  C   UNL     1       3.325   5.385  18.614  0.00  0.00    +0.000 A 
ATOM      7  S   UNL     1       2.860   3.915  17.881  0.00  0.00    +0.000 S 
ATOM      8  S   UNL     1       4.424   3.761  16.677  0.00  0.00    +0.000 S 
ENDROOT
BRANCH   6   9
ATOM      9  N   UNL     1       2.535   6.067  19.598  0.00  0.00    +0.000 N 
ATOM     10  C   UNL     1       2.134   5.355  20.804  0.00  0.00    +0.000 C 
BRANCH   9  11
ATOM     11  C   UNL     1       2.093   7.423  19.388  0.00  0.00    +0.000 A 
ATOM     12  C   UNL     1       2.219   8.029  18.118  0.00  0.00    +0.000 A 
ATOM     13  C   UNL     1       1.762   9.326  17.891  0.00  0.00    +0.000 A 
ATOM     14  C   UNL     1       1.175  10.051  18.925  0.00  0.00    +0.000 A 
ATOM     15  C   UNL     1       1.033   9.472  20.187  0.00  0.00    +0.000 A 
ATOM     16  C   UNL     1       1.477   8.166  20.419  0.00  0.00    +0.000 A 
ENDBRANCH   9  11
ENDBRANCH   6   9
TORSDOF 2
ENDMDL
