MODEL 1
REMARK VINA RESULT:      -7.7      0.000      0.000
REMARK  Name = 
REMARK  14 active torsions:
REMARK  status: ('A' for Active; 'I' for Inactive)
REMARK    1  A    between atoms: C_2  and  C_3
REMARK    2  A    between atoms: C_2  and  O_13
REMARK    3  A    between atoms: C_4  and  C_5
REMARK    4  A    between atoms: C_8  and  O_9
REMARK    5  A    between atoms: C_10  and  O_11
REMARK    6  A    between atoms: O_13  and  C_14
REMARK    7  A    between atoms: C_14  and  C_15
REMARK    8  A    between atoms: C_18  and  O_19
REMARK    9  A    between atoms: O_19  and  C_20
REMARK   10  A    between atoms: C_22  and  C_23
REMARK   11  A    between atoms: C_23  and  O_24
REMARK   12  A    between atoms: C_25  and  O_26
REMARK   13  A    between atoms: C_27  and  O_28
REMARK   14  A    between atoms: C_29  and  O_30
REMARK                            x       y       z     vdW  Elec       q    Type
REMARK                         _______ _______ _______ _____ _____    ______ ____
ROOT
ATOM      1  C   UNL     1       2.149   3.166  18.173  0.00  0.00    +0.000 A 
ATOM      2  C   UNL     1       2.992   2.048  18.140  0.00  0.00    +0.000 A 
ATOM      3  C   UNL     1       4.261   2.125  17.554  0.00  0.00    +0.000 A 
ATOM      4  C   UNL     1       4.694   3.318  16.979  0.00  0.00    +0.000 A 
ATOM      5  C   UNL     1       3.857   4.435  17.003  0.00  0.00    +0.000 A 
ATOM      6  C   UNL     1       2.589   4.358  17.581  0.00  0.00    +0.000 A 
ENDROOT
BRANCH   1   7
ATOM      7  C   UNL     1       0.806   3.107  18.854  0.00  0.00    +0.000 C 
BRANCH   7   8
ATOM      8  O   UNL     1       1.006   2.654  20.200  0.00  0.00    +0.000 OA
BRANCH   8  10
ATOM      9  O   UNL     1       2.183   3.321  22.059  0.00  0.00    +0.000 OA
ATOM     10  C   UNL     1       1.509   3.556  21.067  0.00  0.00    +0.000 C 
BRANCH  10  11
ATOM     11  C   UNL     1       1.151   4.939  20.683  0.00  0.00    +0.000 C 
ATOM     12  C   UNL     1       2.021   5.959  20.609  0.00  0.00    +0.000 C 
BRANCH  12  13
ATOM     13  C   UNL     1       1.654   7.337  20.240  0.00  0.00    +0.000 A 
ATOM     14  C   UNL     1       1.064   8.229  21.156  0.00  0.00    +0.000 A 
ATOM     15  C   UNL     1       0.763   9.543  20.791  0.00  0.00    +0.000 A 
ATOM     16  C   UNL     1       1.070   9.979  19.515  0.00  0.00    +0.000 A 
ATOM     17  C   UNL     1       1.672   9.112  18.601  0.00  0.00    +0.000 A 
ATOM     18  C   UNL     1       1.969   7.798  18.956  0.00  0.00    +0.000 A 
BRANCH  16  19
ATOM     19  O   UNL     1       0.811  11.256  19.100  0.00  0.00    +0.000 OA
ATOM     20  H   UNL     1       0.001  11.558  19.544  0.00  0.00    +0.000 HD
ENDBRANCH  16  19
BRANCH  17  21
ATOM     21  O   UNL     1       1.982   9.548  17.349  0.00  0.00    +0.000 OA
ATOM     22  H   UNL     1       2.961   9.620  17.350  0.00  0.00    +0.000 HD
ENDBRANCH  17  21
ENDBRANCH  12  13
ENDBRANCH  10  11
ENDBRANCH   8  10
ENDBRANCH   7   8
ENDBRANCH   1   7
BRANCH   4  23
ATOM     23  O   UNL     1       5.916   3.526  16.406  0.00  0.00    +0.000 OA
BRANCH  23  24
ATOM     24  C   UNL     1       5.940   4.143  15.113  0.00  0.00    +0.000 C 
ATOM     25  O   UNL     1       5.791   3.150  14.092  0.00  0.00    +0.000 OA
ATOM     26  C   UNL     1       5.867   3.678  12.765  0.00  0.00    +0.000 C 
ATOM     27  C   UNL     1       7.243   4.317  12.523  0.00  0.00    +0.000 C 
ATOM     28  C   UNL     1       7.493   5.410  13.570  0.00  0.00    +0.000 C 
ATOM     29  C   UNL     1       7.303   4.867  14.993  0.00  0.00    +0.000 C 
BRANCH  27  30
ATOM     30  O   UNL     1       7.328   4.839  11.190  0.00  0.00    +0.000 OA
ATOM     31  H   UNL     1       7.285   4.093  10.562  0.00  0.00    +0.000 HD
ENDBRANCH  27  30
BRANCH  28  32
ATOM     32  O   UNL     1       8.802   5.966  13.389  0.00  0.00    +0.000 OA
ATOM     33  H   UNL     1       8.837   6.825  13.844  0.00  0.00    +0.000 HD
ENDBRANCH  28  32
BRANCH  29  34
ATOM     34  O   UNL     1       7.420   5.942  15.941  0.00  0.00    +0.000 OA
ATOM     35  H   UNL     1       7.992   5.659  16.673  0.00  0.00    +0.000 HD
ENDBRANCH  29  34
BRANCH  26  36
ATOM     36  C   UNL     1       5.598   2.543  11.764  0.00  0.00    +0.000 C 
BRANCH  36  37
ATOM     37  O   UNL     1       6.749   1.742  11.522  0.00  0.00    +0.000 OA
ATOM     38  H   UNL     1       7.144   2.058  10.679  0.00  0.00    +0.000 HD
ENDBRANCH  36  37
ENDBRANCH  26  36
ENDBRANCH  23  24
ENDBRANCH   4  23
TORSDOF 14
ENDMDL
MODEL 2
REMARK VINA RESULT:      -7.5      2.681      9.121
REMARK  Name = 
REMARK  14 active torsions:
REMARK  status: ('A' for Active; 'I' for Inactive)
REMARK    1  A    between atoms: C_2  and  C_3
REMARK    2  A    between atoms: C_2  and  O_13
REMARK    3  A    between atoms: C_4  and  C_5
REMARK    4  A    between atoms: C_8  and  O_9
REMARK    5  A    between atoms: C_10  and  O_11
REMARK    6  A    between atoms: O_13  and  C_14
REMARK    7  A    between atoms: C_14  and  C_15
REMARK    8  A    between atoms: C_18  and  O_19
REMARK    9  A    between atoms: O_19  and  C_20
REMARK   10  A    between atoms: C_22  and  C_23
REMARK   11  A    between atoms: C_23  and  O_24
REMARK   12  A    between atoms: C_25  and  O_26
REMARK   13  A    between atoms: C_27  and  O_28
REMARK   14  A    between atoms: C_29  and  O_30
REMARK                            x       y       z     vdW  Elec       q    Type
REMARK                         _______ _______ _______ _____ _____    ______ ____
ROOT
ATOM      1  C   UNL     1       2.211   6.477  19.729  0.00  0.00    +0.000 A 
ATOM      2  C   UNL     1       1.679   7.166  20.826  0.00  0.00    +0.000 A 
ATOM      3  C   UNL     1       1.140   8.449  20.673  0.00  0.00    +0.000 A 
ATOM      4  C   UNL     1       1.144   9.064  19.423  0.00  0.00    +0.000 A 
ATOM      5  C   UNL     1       1.678   8.385  18.326  0.00  0.00    +0.000 A 
ATOM      6  C   UNL     1       2.220   7.108  18.478  0.00  0.00    +0.000 A 
ENDROOT
BRANCH   1   7
ATOM      7  C   UNL     1       2.738   5.072  19.876  0.00  0.00    +0.000 C 
BRANCH   7   8
ATOM      8  O   UNL     1       1.691   4.161  19.516  0.00  0.00    +0.000 OA
BRANCH   8  10
ATOM      9  O   UNL     1       1.618   2.015  18.693  0.00  0.00    +0.000 OA
ATOM     10  C   UNL     1       2.027   3.166  18.669  0.00  0.00    +0.000 C 
BRANCH  10  11
ATOM     11  C   UNL     1       2.993   3.624  17.647  0.00  0.00    +0.000 C 
ATOM     12  C   UNL     1       4.328   3.578  17.785  0.00  0.00    +0.000 C 
BRANCH  12  13
ATOM     13  C   UNL     1       5.283   4.049  16.768  0.00  0.00    +0.000 A 
ATOM     14  C   UNL     1       5.323   3.511  15.467  0.00  0.00    +0.000 A 
ATOM     15  C   UNL     1       6.212   4.004  14.510  0.00  0.00    +0.000 A 
ATOM     16  C   UNL     1       7.052   5.052  14.841  0.00  0.00    +0.000 A 
ATOM     17  C   UNL     1       7.012   5.607  16.121  0.00  0.00    +0.000 A 
ATOM     18  C   UNL     1       6.132   5.117  17.083  0.00  0.00    +0.000 A 
BRANCH  16  19
ATOM     19  O   UNL     1       7.937   5.586  13.946  0.00  0.00    +0.000 OA
ATOM     20  H   UNL     1       7.580   6.437  13.641  0.00  0.00    +0.000 HD
ENDBRANCH  16  19
BRANCH  17  21
ATOM     21  O   UNL     1       7.833   6.645  16.440  0.00  0.00    +0.000 OA
ATOM     22  H   UNL     1       8.468   6.267  17.086  0.00  0.00    +0.000 HD
ENDBRANCH  17  21
ENDBRANCH  12  13
ENDBRANCH  10  11
ENDBRANCH   8  10
ENDBRANCH   7   8
ENDBRANCH   1   7
BRANCH   4  23
ATOM     23  O   UNL     1       0.623  10.294  19.142  0.00  0.00    +0.000 OA
BRANCH  23  24
ATOM     24  C   UNL     1      -0.792  10.378  18.936  0.00  0.00    +0.000 C 
ATOM     25  O   UNL     1      -1.084  10.396  17.534  0.00  0.00    +0.000 OA
ATOM     26  C   UNL     1      -2.476  10.541  17.241  0.00  0.00    +0.000 C 
ATOM     27  C   UNL     1      -3.000  11.878  17.789  0.00  0.00    +0.000 C 
ATOM     28  C   UNL     1      -2.740  11.951  19.299  0.00  0.00    +0.000 C 
ATOM     29  C   UNL     1      -1.262  11.685  19.620  0.00  0.00    +0.000 C 
BRANCH  27  30
ATOM     30  O   UNL     1      -4.393  12.034  17.490  0.00  0.00    +0.000 OA
ATOM     31  H   UNL     1      -4.718  11.205  17.087  0.00  0.00    +0.000 HD
ENDBRANCH  27  30
BRANCH  28  32
ATOM     32  O   UNL     1      -3.168  13.223  19.805  0.00  0.00    +0.000 OA
ATOM     33  H   UNL     1      -3.612  13.080  20.659  0.00  0.00    +0.000 HD
ENDBRANCH  28  32
BRANCH  29  34
ATOM     34  O   UNL     1      -1.078  11.636  21.045  0.00  0.00    +0.000 OA
ATOM     35  H   UNL     1      -0.514  12.378  21.318  0.00  0.00    +0.000 HD
ENDBRANCH  29  34
BRANCH  26  36
ATOM     36  C   UNL     1      -2.675  10.450  15.720  0.00  0.00    +0.000 C 
BRANCH  36  37
ATOM     37  O   UNL     1      -4.047  10.373  15.350  0.00  0.00    +0.000 OA
ATOM     38  H   UNL     1      -4.443   9.642  15.875  0.00  0.00    +0.000 HD
ENDBRANCH  36  37
ENDBRANCH  26  36
ENDBRANCH  23  24
ENDBRANCH   4  23
TORSDOF 14
ENDMDL
MODEL 3
REMARK VINA RESULT:      -7.5      4.162      6.088
REMARK  Name = 
REMARK  14 active torsions:
REMARK  status: ('A' for Active; 'I' for Inactive)
REMARK    1  A    between atoms: C_2  and  C_3
REMARK    2  A    between atoms: C_2  and  O_13
REMARK    3  A    between atoms: C_4  and  C_5
REMARK    4  A    between atoms: C_8  and  O_9
REMARK    5  A    between atoms: C_10  and  O_11
REMARK    6  A    between atoms: O_13  and  C_14
REMARK    7  A    between atoms: C_14  and  C_15
REMARK    8  A    between atoms: C_18  and  O_19
REMARK    9  A    between atoms: O_19  and  C_20
REMARK   10  A    between atoms: C_22  and  C_23
REMARK   11  A    between atoms: C_23  and  O_24
REMARK   12  A    between atoms: C_25  and  O_26
REMARK   13  A    between atoms: C_27  and  O_28
REMARK   14  A    between atoms: C_29  and  O_30
REMARK                            x       y       z     vdW  Elec       q    Type
REMARK                         _______ _______ _______ _____ _____    ______ ____
ROOT
ATOM      1  C   UNL     1       1.374   8.571  19.952  0.00  0.00    +0.000 A 
ATOM      2  C   UNL     1       1.419   7.411  20.735  0.00  0.00    +0.000 A 
ATOM      3  C   UNL     1       2.044   6.251  20.261  0.00  0.00    +0.000 A 
ATOM      4  C   UNL     1       2.616   6.235  18.990  0.00  0.00    +0.000 A 
ATOM      5  C   UNL     1       2.569   7.387  18.202  0.00  0.00    +0.000 A 
ATOM      6  C   UNL     1       1.942   8.541  18.671  0.00  0.00    +0.000 A 
ENDROOT
BRANCH   1   7
ATOM      7  C   UNL     1       0.755   9.840  20.480  0.00  0.00    +0.000 C 
BRANCH   7   8
ATOM      8  O   UNL     1      -0.262   9.482  21.426  0.00  0.00    +0.000 OA
BRANCH   8  10
ATOM      9  O   UNL     1       0.871   9.647  23.420  0.00  0.00    +0.000 OA
ATOM     10  C   UNL     1      -0.077   9.904  22.693  0.00  0.00    +0.000 C 
BRANCH  10  11
ATOM     11  C   UNL     1      -1.195  10.759  23.151  0.00  0.00    +0.000 C 
ATOM     12  C   UNL     1      -1.526  11.939  22.602  0.00  0.00    +0.000 C 
BRANCH  12  13
ATOM     13  C   UNL     1      -2.631  12.791  23.071  0.00  0.00    +0.000 A 
ATOM     14  C   UNL     1      -2.434  13.839  23.992  0.00  0.00    +0.000 A 
ATOM     15  C   UNL     1      -3.492  14.658  24.390  0.00  0.00    +0.000 A 
ATOM     16  C   UNL     1      -4.750  14.449  23.854  0.00  0.00    +0.000 A 
ATOM     17  C   UNL     1      -4.957  13.427  22.927  0.00  0.00    +0.000 A 
ATOM     18  C   UNL     1      -3.908  12.602  22.530  0.00  0.00    +0.000 A 
BRANCH  16  19
ATOM     19  O   UNL     1      -5.824  15.223  24.194  0.00  0.00    +0.000 OA
ATOM     20  H   UNL     1      -6.409  14.693  24.762  0.00  0.00    +0.000 HD
ENDBRANCH  16  19
BRANCH  17  21
ATOM     21  O   UNL     1      -6.195  13.231  22.393  0.00  0.00    +0.000 OA
ATOM     22  H   UNL     1      -6.343  12.263  22.466  0.00  0.00    +0.000 HD
ENDBRANCH  17  21
ENDBRANCH  12  13
ENDBRANCH  10  11
ENDBRANCH   8  10
ENDBRANCH   7   8
ENDBRANCH   1   7
BRANCH   4  23
ATOM     23  O   UNL     1       3.277   5.179  18.430  0.00  0.00    +0.000 OA
BRANCH  23  24
ATOM     24  C   UNL     1       4.463   5.469  17.681  0.00  0.00    +0.000 C 
ATOM     25  O   UNL     1       4.368   4.901  16.370  0.00  0.00    +0.000 OA
ATOM     26  C   UNL     1       5.542   5.093  15.576  0.00  0.00    +0.000 C 
ATOM     27  C   UNL     1       6.749   4.408  16.236  0.00  0.00    +0.000 C 
ATOM     28  C   UNL     1       6.941   4.961  17.654  0.00  0.00    +0.000 C 
ATOM     29  C   UNL     1       5.645   4.856  18.470  0.00  0.00    +0.000 C 
BRANCH  27  30
ATOM     30  O   UNL     1       7.927   4.589  15.439  0.00  0.00    +0.000 OA
ATOM     31  H   UNL     1       8.527   5.202  15.906  0.00  0.00    +0.000 HD
ENDBRANCH  27  30
BRANCH  28  32
ATOM     32  O   UNL     1       8.026   4.281  18.298  0.00  0.00    +0.000 OA
ATOM     33  H   UNL     1       7.658   3.687  18.975  0.00  0.00    +0.000 HD
ENDBRANCH  28  32
BRANCH  29  34
ATOM     34  O   UNL     1       5.824   5.495  19.745  0.00  0.00    +0.000 OA
ATOM     35  H   UNL     1       6.731   5.337  20.055  0.00  0.00    +0.000 HD
ENDBRANCH  29  34
BRANCH  26  36
ATOM     36  C   UNL     1       5.286   4.531  14.169  0.00  0.00    +0.000 C 
BRANCH  36  37
ATOM     37  O   UNL     1       6.076   3.382  13.885  0.00  0.00    +0.000 OA
ATOM     38  H   UNL     1       6.213   3.364  12.912  0.00  0.00    +0.000 HD
ENDBRANCH  36  37
ENDBRANCH  26  36
ENDBRANCH  23  24
ENDBRANCH   4  23
TORSDOF 14
ENDMDL
MODEL 4
REMARK VINA RESULT:      -7.5      4.251      8.990
REMARK  Name = 
REMARK  14 active torsions:
REMARK  status: ('A' for Active; 'I' for Inactive)
REMARK    1  A    between atoms: C_2  and  C_3
REMARK    2  A    between atoms: C_2  and  O_13
REMARK    3  A    between atoms: C_4  and  C_5
REMARK    4  A    between atoms: C_8  and  O_9
REMARK    5  A    between atoms: C_10  and  O_11
REMARK    6  A    between atoms: O_13  and  C_14
REMARK    7  A    between atoms: C_14  and  C_15
REMARK    8  A    between atoms: C_18  and  O_19
REMARK    9  A    between atoms: O_19  and  C_20
REMARK   10  A    between atoms: C_22  and  C_23
REMARK   11  A    between atoms: C_23  and  O_24
REMARK   12  A    between atoms: C_25  and  O_26
REMARK   13  A    between atoms: C_27  and  O_28
REMARK   14  A    between atoms: C_29  and  O_30
REMARK                            x       y       z     vdW  Elec       q    Type
REMARK                         _______ _______ _______ _____ _____    ______ ____
ROOT
ATOM      1  C   UNL     1       4.394   5.592  18.465  0.00  0.00    +0.000 A 
ATOM      2  C   UNL     1       3.615   5.681  19.625  0.00  0.00    +0.000 A 
ATOM      3  C   UNL     1       2.600   6.639  19.734  0.00  0.00    +0.000 A 
ATOM      4  C   UNL     1       2.365   7.531  18.690  0.00  0.00    +0.000 A 
ATOM      5  C   UNL     1       3.142   7.451  17.532  0.00  0.00    +0.000 A 
ATOM      6  C   UNL     1       4.158   6.500  17.424  0.00  0.00    +0.000 A 
ENDROOT
BRANCH   1   7
ATOM      7  C   UNL     1       5.449   4.525  18.318  0.00  0.00    +0.000 C 
BRANCH   7   8
ATOM      8  O   UNL     1       6.705   5.076  18.737  0.00  0.00    +0.000 OA
BRANCH   8  10
ATOM      9  O   UNL     1       7.631   5.490  16.673  0.00  0.00    +0.000 OA
ATOM     10  C   UNL     1       7.372   5.811  17.824  0.00  0.00    +0.000 C 
BRANCH  10  11
ATOM     11  C   UNL     1       7.785   7.120  18.375  0.00  0.00    +0.000 C 
ATOM     12  C   UNL     1       8.059   8.206  17.635  0.00  0.00    +0.000 C 
BRANCH  12  13
ATOM     13  C   UNL     1       8.483   9.503  18.190  0.00  0.00    +0.000 A 
ATOM     14  C   UNL     1       9.254   9.602  19.364  0.00  0.00    +0.000 A 
ATOM     15  C   UNL     1       9.677  10.842  19.847  0.00  0.00    +0.000 A 
ATOM     16  C   UNL     1       9.349  11.989  19.147  0.00  0.00    +0.000 A 
ATOM     17  C   UNL     1       8.601  11.906  17.972  0.00  0.00    +0.000 A 
ATOM     18  C   UNL     1       8.171  10.673  17.487  0.00  0.00    +0.000 A 
BRANCH  16  19
ATOM     19  O   UNL     1       9.742  13.231  19.561  0.00  0.00    +0.000 OA
ATOM     20  H   UNL     1      10.460  13.531  18.976  0.00  0.00    +0.000 HD
ENDBRANCH  16  19
BRANCH  17  21
ATOM     21  O   UNL     1       8.290  13.036  17.279  0.00  0.00    +0.000 OA
ATOM     22  H   UNL     1       8.272  12.752  16.340  0.00  0.00    +0.000 HD
ENDBRANCH  17  21
ENDBRANCH  12  13
ENDBRANCH  10  11
ENDBRANCH   8  10
ENDBRANCH   7   8
ENDBRANCH   1   7
BRANCH   4  23
ATOM     23  O   UNL     1       1.390   8.486  18.665  0.00  0.00    +0.000 OA
BRANCH  23  24
ATOM     24  C   UNL     1       1.480   9.543  19.628  0.00  0.00    +0.000 C 
ATOM     25  O   UNL     1       0.507   9.350  20.661  0.00  0.00    +0.000 OA
ATOM     26  C   UNL     1       0.490  10.398  21.633  0.00  0.00    +0.000 C 
ATOM     27  C   UNL     1       0.127  11.736  20.969  0.00  0.00    +0.000 C 
ATOM     28  C   UNL     1       1.126  12.038  19.845  0.00  0.00    +0.000 C 
ATOM     29  C   UNL     1       1.225  10.863  18.862  0.00  0.00    +0.000 C 
BRANCH  27  30
ATOM     30  O   UNL     1       0.097  12.789  21.941  0.00  0.00    +0.000 OA
ATOM     31  H   UNL     1      -0.799  12.830  22.327  0.00  0.00    +0.000 HD
ENDBRANCH  27  30
BRANCH  28  32
ATOM     32  O   UNL     1       0.754  13.252  19.179  0.00  0.00    +0.000 OA
ATOM     33  H   UNL     1      -0.027  13.622  19.626  0.00  0.00    +0.000 HD
ENDBRANCH  28  32
BRANCH  29  34
ATOM     34  O   UNL     1       2.258  11.127  17.897  0.00  0.00    +0.000 OA
ATOM     35  H   UNL     1       2.080  10.612  17.093  0.00  0.00    +0.000 HD
ENDBRANCH  29  34
BRANCH  26  36
ATOM     36  C   UNL     1      -0.518  10.035  22.736  0.00  0.00    +0.000 C 
BRANCH  36  37
ATOM     37  O   UNL     1       0.111   9.553  23.917  0.00  0.00    +0.000 OA
ATOM     38  H   UNL     1      -0.189   8.625  24.041  0.00  0.00    +0.000 HD
ENDBRANCH  36  37
ENDBRANCH  26  36
ENDBRANCH  23  24
ENDBRANCH   4  23
TORSDOF 14
ENDMDL
MODEL 5
REMARK VINA RESULT:      -7.5      4.145      6.221
REMARK  Name = 
REMARK  14 active torsions:
REMARK  status: ('A' for Active; 'I' for Inactive)
REMARK    1  A    between atoms: C_2  and  C_3
REMARK    2  A    between atoms: C_2  and  O_13
REMARK    3  A    between atoms: C_4  and  C_5
REMARK    4  A    between atoms: C_8  and  O_9
REMARK    5  A    between atoms: C_10  and  O_11
REMARK    6  A    between atoms: O_13  and  C_14
REMARK    7  A    between atoms: C_14  and  C_15
REMARK    8  A    between atoms: C_18  and  O_19
REMARK    9  A    between atoms: O_19  and  C_20
REMARK   10  A    between atoms: C_22  and  C_23
REMARK   11  A    between atoms: C_23  and  O_24
REMARK   12  A    between atoms: C_25  and  O_26
REMARK   13  A    between atoms: C_27  and  O_28
REMARK   14  A    between atoms: C_29  and  O_30
REMARK                            x       y       z     vdW  Elec       q    Type
REMARK                         _______ _______ _______ _____ _____    ______ ____
ROOT
ATOM      1  C   UNL     1       1.309   8.839  19.888  0.00  0.00    +0.000 A 
ATOM      2  C   UNL     1       1.825   8.890  18.587  0.00  0.00    +0.000 A 
ATOM      3  C   UNL     1       2.530   7.803  18.054  0.00  0.00    +0.000 A 
ATOM      4  C   UNL     1       2.740   6.661  18.823  0.00  0.00    +0.000 A 
ATOM      5  C   UNL     1       2.233   6.606  20.123  0.00  0.00    +0.000 A 
ATOM      6  C   UNL     1       1.535   7.690  20.658  0.00  0.00    +0.000 A 
ENDROOT
BRANCH   1   7
ATOM      7  C   UNL     1       0.499   9.981  20.446  0.00  0.00    +0.000 C 
BRANCH   7   8
ATOM      8  O   UNL     1       1.015  10.302  21.746  0.00  0.00    +0.000 OA
BRANCH   8  10
ATOM      9  O   UNL     1       0.341   9.669  23.851  0.00  0.00    +0.000 OA
ATOM     10  C   UNL     1       0.147  10.213  22.774  0.00  0.00    +0.000 C 
BRANCH  10  11
ATOM     11  C   UNL     1      -1.138  10.876  22.461  0.00  0.00    +0.000 C 
ATOM     12  C   UNL     1      -1.735  11.789  23.243  0.00  0.00    +0.000 C 
BRANCH  12  13
ATOM     13  C   UNL     1      -3.022  12.434  22.932  0.00  0.00    +0.000 A 
ATOM     14  C   UNL     1      -3.318  12.943  21.652  0.00  0.00    +0.000 A 
ATOM     15  C   UNL     1      -4.561  13.514  21.373  0.00  0.00    +0.000 A 
ATOM     16  C   UNL     1      -5.524  13.560  22.365  0.00  0.00    +0.000 A 
ATOM     17  C   UNL     1      -5.252  13.044  23.633  0.00  0.00    +0.000 A 
ATOM     18  C   UNL     1      -4.012  12.479  23.921  0.00  0.00    +0.000 A 
BRANCH  16  19
ATOM     19  O   UNL     1      -6.763  14.096  22.152  0.00  0.00    +0.000 OA
ATOM     20  H   UNL     1      -7.404  13.595  22.685  0.00  0.00    +0.000 HD
ENDBRANCH  16  19
BRANCH  17  21
ATOM     21  O   UNL     1      -6.206  13.082  24.604  0.00  0.00    +0.000 OA
ATOM     22  H   UNL     1      -6.059  13.940  25.059  0.00  0.00    +0.000 HD
ENDBRANCH  17  21
ENDBRANCH  12  13
ENDBRANCH  10  11
ENDBRANCH   8  10
ENDBRANCH   7   8
ENDBRANCH   1   7
BRANCH   4  23
ATOM     23  O   UNL     1       3.383   5.531  18.407  0.00  0.00    +0.000 OA
BRANCH  23  24
ATOM     24  C   UNL     1       4.587   5.700  17.649  0.00  0.00    +0.000 C 
ATOM     25  O   UNL     1       4.435   5.118  16.349  0.00  0.00    +0.000 OA
ATOM     26  C   UNL     1       5.616   5.190  15.548  0.00  0.00    +0.000 C 
ATOM     27  C   UNL     1       6.762   4.414  16.216  0.00  0.00    +0.000 C 
ATOM     28  C   UNL     1       7.010   4.975  17.622  0.00  0.00    +0.000 C 
ATOM     29  C   UNL     1       5.714   4.999  18.445  0.00  0.00    +0.000 C 
BRANCH  27  30
ATOM     30  O   UNL     1       7.947   4.475  15.412  0.00  0.00    +0.000 OA
ATOM     31  H   UNL     1       8.683   4.797  15.966  0.00  0.00    +0.000 HD
ENDBRANCH  27  30
BRANCH  28  32
ATOM     32  O   UNL     1       8.034   4.213  18.275  0.00  0.00    +0.000 OA
ATOM     33  H   UNL     1       7.919   3.276  18.038  0.00  0.00    +0.000 HD
ENDBRANCH  28  32
BRANCH  29  34
ATOM     34  O   UNL     1       5.955   5.644  19.707  0.00  0.00    +0.000 OA
ATOM     35  H   UNL     1       5.150   6.114  19.982  0.00  0.00    +0.000 HD
ENDBRANCH  29  34
BRANCH  26  36
ATOM     36  C   UNL     1       5.304   4.626  14.152  0.00  0.00    +0.000 C 
BRANCH  36  37
ATOM     37  O   UNL     1       6.000   3.415  13.882  0.00  0.00    +0.000 OA
ATOM     38  H   UNL     1       6.828   3.661  13.413  0.00  0.00    +0.000 HD
ENDBRANCH  36  37
ENDBRANCH  26  36
ENDBRANCH  23  24
ENDBRANCH   4  23
TORSDOF 14
ENDMDL
MODEL 6
REMARK VINA RESULT:      -7.4      2.292      9.240
REMARK  Name = 
REMARK  14 active torsions:
REMARK  status: ('A' for Active; 'I' for Inactive)
REMARK    1  A    between atoms: C_2  and  C_3
REMARK    2  A    between atoms: C_2  and  O_13
REMARK    3  A    between atoms: C_4  and  C_5
REMARK    4  A    between atoms: C_8  and  O_9
REMARK    5  A    between atoms: C_10  and  O_11
REMARK    6  A    between atoms: O_13  and  C_14
REMARK    7  A    between atoms: C_14  and  C_15
REMARK    8  A    between atoms: C_18  and  O_19
REMARK    9  A    between atoms: O_19  and  C_20
REMARK   10  A    between atoms: C_22  and  C_23
REMARK   11  A    between atoms: C_23  and  O_24
REMARK   12  A    between atoms: C_25  and  O_26
REMARK   13  A    between atoms: C_27  and  O_28
REMARK   14  A    between atoms: C_29  and  O_30
REMARK                            x       y       z     vdW  Elec       q    Type
REMARK                         _______ _______ _______ _____ _____    ______ ____
ROOT
ATOM      1  C   UNL     1       2.194   6.332  19.957  0.00  0.00    +0.000 A 
ATOM      2  C   UNL     1       2.587   6.851  18.717  0.00  0.00    +0.000 A 
ATOM      3  C   UNL     1       2.310   8.181  18.377  0.00  0.00    +0.000 A 
ATOM      4  C   UNL     1       1.622   9.001  19.268  0.00  0.00    +0.000 A 
ATOM      5  C   UNL     1       1.223   8.489  20.505  0.00  0.00    +0.000 A 
ATOM      6  C   UNL     1       1.493   7.162  20.842  0.00  0.00    +0.000 A 
ENDROOT
BRANCH   1   7
ATOM      7  C   UNL     1       2.541   4.919  20.353  0.00  0.00    +0.000 C 
BRANCH   7   8
ATOM      8  O   UNL     1       1.620   4.033  19.701  0.00  0.00    +0.000 OA
BRANCH   8  10
ATOM      9  O   UNL     1       1.960   1.836  19.118  0.00  0.00    +0.000 OA
ATOM     10  C   UNL     1       2.161   3.033  18.977  0.00  0.00    +0.000 C 
BRANCH  10  11
ATOM     11  C   UNL     1       3.073   3.548  17.933  0.00  0.00    +0.000 C 
ATOM     12  C   UNL     1       4.404   3.664  18.074  0.00  0.00    +0.000 C 
BRANCH  12  13
ATOM     13  C   UNL     1       5.305   4.192  17.035  0.00  0.00    +0.000 A 
ATOM     14  C   UNL     1       6.164   5.284  17.269  0.00  0.00    +0.000 A 
ATOM     15  C   UNL     1       7.037   5.738  16.279  0.00  0.00    +0.000 A 
ATOM     16  C   UNL     1       7.073   5.091  15.057  0.00  0.00    +0.000 A 
ATOM     17  C   UNL     1       6.240   3.998  14.817  0.00  0.00    +0.000 A 
ATOM     18  C   UNL     1       5.362   3.542  15.797  0.00  0.00    +0.000 A 
BRANCH  16  19
ATOM     19  O   UNL     1       7.913   5.481  14.051  0.00  0.00    +0.000 OA
ATOM     20  H   UNL     1       7.689   6.396  13.809  0.00  0.00    +0.000 HD
ENDBRANCH  16  19
BRANCH  17  21
ATOM     21  O   UNL     1       6.286   3.357  13.616  0.00  0.00    +0.000 OA
ATOM     22  H   UNL     1       5.883   2.478  13.791  0.00  0.00    +0.000 HD
ENDBRANCH  17  21
ENDBRANCH  12  13
ENDBRANCH  10  11
ENDBRANCH   8  10
ENDBRANCH   7   8
ENDBRANCH   1   7
BRANCH   4  23
ATOM     23  O   UNL     1       1.320  10.317  19.065  0.00  0.00    +0.000 OA
BRANCH  23  24
ATOM     24  C   UNL     1       0.099  10.807  19.633  0.00  0.00    +0.000 C 
ATOM     25  O   UNL     1      -0.961  10.711  18.675  0.00  0.00    +0.000 OA
ATOM     26  C   UNL     1      -2.205  11.239  19.143  0.00  0.00    +0.000 C 
ATOM     27  C   UNL     1      -2.065  12.737  19.456  0.00  0.00    +0.000 C 
ATOM     28  C   UNL     1      -0.950  12.943  20.490  0.00  0.00    +0.000 C 
ATOM     29  C   UNL     1       0.357  12.279  20.034  0.00  0.00    +0.000 C 
BRANCH  27  30
ATOM     30  O   UNL     1      -3.312  13.273  19.916  0.00  0.00    +0.000 OA
ATOM     31  H   UNL     1      -3.490  12.922  20.810  0.00  0.00    +0.000 HD
ENDBRANCH  27  30
BRANCH  28  32
ATOM     32  O   UNL     1      -0.771  14.344  20.738  0.00  0.00    +0.000 OA
ATOM     33  H   UNL     1      -1.271  14.841  20.067  0.00  0.00    +0.000 HD
ENDBRANCH  28  32
BRANCH  29  34
ATOM     34  O   UNL     1       1.340  12.382  21.078  0.00  0.00    +0.000 OA
ATOM     35  H   UNL     1       0.911  12.225  21.935  0.00  0.00    +0.000 HD
ENDBRANCH  29  34
BRANCH  26  36
ATOM     36  C   UNL     1      -3.281  10.994  18.073  0.00  0.00    +0.000 C 
BRANCH  36  37
ATOM     37  O   UNL     1      -3.244  11.958  17.028  0.00  0.00    +0.000 OA
ATOM     38  H   UNL     1      -2.323  12.299  16.987  0.00  0.00    +0.000 HD
ENDBRANCH  36  37
ENDBRANCH  26  36
ENDBRANCH  23  24
ENDBRANCH   4  23
TORSDOF 14
ENDMDL
MODEL 7
REMARK VINA RESULT:      -7.4      4.478      8.887
REMARK  Name = 
REMARK  14 active torsions:
REMARK  status: ('A' for Active; 'I' for Inactive)
REMARK    1  A    between atoms: C_2  and  C_3
REMARK    2  A    between atoms: C_2  and  O_13
REMARK    3  A    between atoms: C_4  and  C_5
REMARK    4  A    between atoms: C_8  and  O_9
REMARK    5  A    between atoms: C_10  and  O_11
REMARK    6  A    between atoms: O_13  and  C_14
REMARK    7  A    between atoms: C_14  and  C_15
REMARK    8  A    between atoms: C_18  and  O_19
REMARK    9  A    between atoms: O_19  and  C_20
REMARK   10  A    between atoms: C_22  and  C_23
REMARK   11  A    between atoms: C_23  and  O_24
REMARK   12  A    between atoms: C_25  and  O_26
REMARK   13  A    between atoms: C_27  and  O_28
REMARK   14  A    between atoms: C_29  and  O_30
REMARK                            x       y       z     vdW  Elec       q    Type
REMARK                         _______ _______ _______ _____ _____    ______ ____
ROOT
ATOM      1  C   UNL     1       5.110   5.644  17.511  0.00  0.00    +0.000 A 
ATOM      2  C   UNL     1       4.266   5.029  18.444  0.00  0.00    +0.000 A 
ATOM      3  C   UNL     1       3.077   5.648  18.851  0.00  0.00    +0.000 A 
ATOM      4  C   UNL     1       2.730   6.897  18.341  0.00  0.00    +0.000 A 
ATOM      5  C   UNL     1       3.570   7.518  17.414  0.00  0.00    +0.000 A 
ATOM      6  C   UNL     1       4.758   6.905  17.012  0.00  0.00    +0.000 A 
ENDROOT
BRANCH   1   7
ATOM      7  C   UNL     1       6.361   4.957  17.024  0.00  0.00    +0.000 C 
BRANCH   7   8
ATOM      8  O   UNL     1       7.471   5.838  17.246  0.00  0.00    +0.000 OA
BRANCH   8  10
ATOM      9  O   UNL     1       7.721   5.239  19.452  0.00  0.00    +0.000 OA
ATOM     10  C   UNL     1       7.835   6.032  18.530  0.00  0.00    +0.000 C 
BRANCH  10  11
ATOM     11  C   UNL     1       8.421   7.376  18.732  0.00  0.00    +0.000 C 
ATOM     12  C   UNL     1       7.932   8.508  18.201  0.00  0.00    +0.000 C 
BRANCH  12  13
ATOM     13  C   UNL     1       8.529   9.840  18.394  0.00  0.00    +0.000 A 
ATOM     14  C   UNL     1       8.312  10.900  17.491  0.00  0.00    +0.000 A 
ATOM     15  C   UNL     1       8.857  12.165  17.720  0.00  0.00    +0.000 A 
ATOM     16  C   UNL     1       9.605  12.384  18.863  0.00  0.00    +0.000 A 
ATOM     17  C   UNL     1       9.814  11.349  19.776  0.00  0.00    +0.000 A 
ATOM     18  C   UNL     1       9.278  10.083  19.552  0.00  0.00    +0.000 A 
BRANCH  16  19
ATOM     19  O   UNL     1      10.156  13.602  19.149  0.00  0.00    +0.000 OA
ATOM     20  H   UNL     1      10.533  13.963  18.328  0.00  0.00    +0.000 HD
ENDBRANCH  16  19
BRANCH  17  21
ATOM     21  O   UNL     1      10.541  11.572  20.905  0.00  0.00    +0.000 OA
ATOM     22  H   UNL     1      11.371  11.988  20.585  0.00  0.00    +0.000 HD
ENDBRANCH  17  21
ENDBRANCH  12  13
ENDBRANCH  10  11
ENDBRANCH   8  10
ENDBRANCH   7   8
ENDBRANCH   1   7
BRANCH   4  23
ATOM     23  O   UNL     1       1.588   7.586  18.636  0.00  0.00    +0.000 OA
BRANCH  23  24
ATOM     24  C   UNL     1       1.719   8.753  19.456  0.00  0.00    +0.000 C 
ATOM     25  O   UNL     1       1.111   8.527  20.733  0.00  0.00    +0.000 OA
ATOM     26  C   UNL     1       1.143   9.669  21.593  0.00  0.00    +0.000 C 
ATOM     27  C   UNL     1       0.360  10.833  20.964  0.00  0.00    +0.000 C 
ATOM     28  C   UNL     1       0.947  11.159  19.585  0.00  0.00    +0.000 C 
ATOM     29  C   UNL     1       1.014   9.906  18.701  0.00  0.00    +0.000 C 
BRANCH  27  30
ATOM     30  O   UNL     1       0.381  11.977  21.827  0.00  0.00    +0.000 OA
ATOM     31  H   UNL     1       1.239  12.430  21.721  0.00  0.00    +0.000 HD
ENDBRANCH  27  30
BRANCH  28  32
ATOM     32  O   UNL     1       0.181  12.200  18.965  0.00  0.00    +0.000 OA
ATOM     33  H   UNL     1       0.322  13.024  19.464  0.00  0.00    +0.000 HD
ENDBRANCH  28  32
BRANCH  29  34
ATOM     34  O   UNL     1       1.682  10.220  17.467  0.00  0.00    +0.000 OA
ATOM     35  H   UNL     1       1.421   9.573  16.791  0.00  0.00    +0.000 HD
ENDBRANCH  29  34
BRANCH  26  36
ATOM     36  C   UNL     1       0.555   9.278  22.958  0.00  0.00    +0.000 C 
BRANCH  36  37
ATOM     37  O   UNL     1      -0.837   9.557  23.055  0.00  0.00    +0.000 OA
ATOM     38  H   UNL     1      -1.182   9.606  22.136  0.00  0.00    +0.000 HD
ENDBRANCH  36  37
ENDBRANCH  26  36
ENDBRANCH  23  24
ENDBRANCH   4  23
TORSDOF 14
ENDMDL
MODEL 8
REMARK VINA RESULT:      -7.4      3.636      5.667
REMARK  Name = 
REMARK  14 active torsions:
REMARK  status: ('A' for Active; 'I' for Inactive)
REMARK    1  A    between atoms: C_2  and  C_3
REMARK    2  A    between atoms: C_2  and  O_13
REMARK    3  A    between atoms: C_4  and  C_5
REMARK    4  A    between atoms: C_8  and  O_9
REMARK    5  A    between atoms: C_10  and  O_11
REMARK    6  A    between atoms: O_13  and  C_14
REMARK    7  A    between atoms: C_14  and  C_15
REMARK    8  A    between atoms: C_18  and  O_19
REMARK    9  A    between atoms: O_19  and  C_20
REMARK   10  A    between atoms: C_22  and  C_23
REMARK   11  A    between atoms: C_23  and  O_24
REMARK   12  A    between atoms: C_25  and  O_26
REMARK   13  A    between atoms: C_27  and  O_28
REMARK   14  A    between atoms: C_29  and  O_30
REMARK                            x       y       z     vdW  Elec       q    Type
REMARK                         _______ _______ _______ _____ _____    ______ ____
ROOT
ATOM      1  C   UNL     1       1.534   7.341  20.459  0.00  0.00    +0.000 A 
ATOM      2  C   UNL     1       1.480   6.019  20.916  0.00  0.00    +0.000 A 
ATOM      3  C   UNL     1       2.141   4.995  20.225  0.00  0.00    +0.000 A 
ATOM      4  C   UNL     1       2.848   5.283  19.059  0.00  0.00    +0.000 A 
ATOM      5  C   UNL     1       2.901   6.599  18.595  0.00  0.00    +0.000 A 
ATOM      6  C   UNL     1       2.238   7.618  19.280  0.00  0.00    +0.000 A 
ENDROOT
BRANCH   1   7
ATOM      7  C   UNL     1       0.874   8.456  21.230  0.00  0.00    +0.000 C 
BRANCH   7   8
ATOM      8  O   UNL     1       1.048   9.675  20.493  0.00  0.00    +0.000 OA
BRANCH   8  10
ATOM      9  O   UNL     1      -0.663  10.306  19.094  0.00  0.00    +0.000 OA
ATOM     10  C   UNL     1      -0.076  10.342  20.165  0.00  0.00    +0.000 C 
BRANCH  10  11
ATOM     11  C   UNL     1      -0.564  11.172  21.288  0.00  0.00    +0.000 C 
ATOM     12  C   UNL     1      -1.696  11.895  21.266  0.00  0.00    +0.000 C 
BRANCH  12  13
ATOM     13  C   UNL     1      -2.168  12.730  22.383  0.00  0.00    +0.000 A 
ATOM     14  C   UNL     1      -3.491  12.666  22.864  0.00  0.00    +0.000 A 
ATOM     15  C   UNL     1      -3.902  13.439  23.950  0.00  0.00    +0.000 A 
ATOM     16  C   UNL     1      -2.988  14.267  24.578  0.00  0.00    +0.000 A 
ATOM     17  C   UNL     1      -1.670  14.328  24.125  0.00  0.00    +0.000 A 
ATOM     18  C   UNL     1      -1.254  13.564  23.038  0.00  0.00    +0.000 A 
BRANCH  16  19
ATOM     19  O   UNL     1      -3.326  15.040  25.653  0.00  0.00    +0.000 OA
ATOM     20  H   UNL     1      -2.526  15.176  26.189  0.00  0.00    +0.000 HD
ENDBRANCH  16  19
BRANCH  17  21
ATOM     21  O   UNL     1      -0.770  15.136  24.752  0.00  0.00    +0.000 OA
ATOM     22  H   UNL     1      -0.858  16.001  24.296  0.00  0.00    +0.000 HD
ENDBRANCH  17  21
ENDBRANCH  12  13
ENDBRANCH  10  11
ENDBRANCH   8  10
ENDBRANCH   7   8
ENDBRANCH   1   7
BRANCH   4  23
ATOM     23  O   UNL     1       3.555   4.381  18.316  0.00  0.00    +0.000 OA
BRANCH  23  24
ATOM     24  C   UNL     1       4.638   4.886  17.526  0.00  0.00    +0.000 C 
ATOM     25  O   UNL     1       4.507   4.439  16.172  0.00  0.00    +0.000 OA
ATOM     26  C   UNL     1       5.586   4.849  15.327  0.00  0.00    +0.000 C 
ATOM     27  C   UNL     1       6.913   4.259  15.831  0.00  0.00    +0.000 C 
ATOM     28  C   UNL     1       7.149   4.693  17.283  0.00  0.00    +0.000 C 
ATOM     29  C   UNL     1       5.941   4.350  18.167  0.00  0.00    +0.000 C 
BRANCH  27  30
ATOM     30  O   UNL     1       7.996   4.659  14.982  0.00  0.00    +0.000 OA
ATOM     31  H   UNL     1       7.947   4.144  14.153  0.00  0.00    +0.000 HD
ENDBRANCH  27  30
BRANCH  28  32
ATOM     32  O   UNL     1       8.352   4.093  17.780  0.00  0.00    +0.000 OA
ATOM     33  H   UNL     1       8.286   4.027  18.748  0.00  0.00    +0.000 HD
ENDBRANCH  28  32
BRANCH  29  34
ATOM     34  O   UNL     1       6.142   4.881  19.488  0.00  0.00    +0.000 OA
ATOM     35  H   UNL     1       6.579   5.746  19.419  0.00  0.00    +0.000 HD
ENDBRANCH  29  34
BRANCH  26  36
ATOM     36  C   UNL     1       5.288   4.397  13.888  0.00  0.00    +0.000 C 
BRANCH  36  37
ATOM     37  O   UNL     1       6.130   3.332  13.463  0.00  0.00    +0.000 OA
ATOM     38  H   UNL     1       5.610   2.503  13.557  0.00  0.00    +0.000 HD
ENDBRANCH  36  37
ENDBRANCH  26  36
ENDBRANCH  23  24
ENDBRANCH   4  23
TORSDOF 14
ENDMDL
MODEL 9
REMARK VINA RESULT:      -7.3      3.924     11.356
REMARK  Name = 
REMARK  14 active torsions:
REMARK  status: ('A' for Active; 'I' for Inactive)
REMARK    1  A    between atoms: C_2  and  C_3
REMARK    2  A    between atoms: C_2  and  O_13
REMARK    3  A    between atoms: C_4  and  C_5
REMARK    4  A    between atoms: C_8  and  O_9
REMARK    5  A    between atoms: C_10  and  O_11
REMARK    6  A    between atoms: O_13  and  C_14
REMARK    7  A    between atoms: C_14  and  C_15
REMARK    8  A    between atoms: C_18  and  O_19
REMARK    9  A    between atoms: O_19  and  C_20
REMARK   10  A    between atoms: C_22  and  C_23
REMARK   11  A    between atoms: C_23  and  O_24
REMARK   12  A    between atoms: C_25  and  O_26
REMARK   13  A    between atoms: C_27  and  O_28
REMARK   14  A    between atoms: C_29  and  O_30
REMARK                            x       y       z     vdW  Elec       q    Type
REMARK                         _______ _______ _______ _____ _____    ______ ____
ROOT
ATOM      1  C   UNL     1       1.070   8.721  20.250  0.00  0.00    +0.000 A 
ATOM      2  C   UNL     1       0.883   9.617  19.191  0.00  0.00    +0.000 A 
ATOM      3  C   UNL     1       0.062  10.742  19.340  0.00  0.00    +0.000 A 
ATOM      4  C   UNL     1      -0.596  10.971  20.547  0.00  0.00    +0.000 A 
ATOM      5  C   UNL     1      -0.419  10.078  21.605  0.00  0.00    +0.000 A 
ATOM      6  C   UNL     1       0.395   8.954  21.456  0.00  0.00    +0.000 A 
ENDROOT
BRANCH   1   7
ATOM      7  C   UNL     1       1.998   7.541  20.115  0.00  0.00    +0.000 C 
BRANCH   7   8
ATOM      8  O   UNL     1       1.471   6.463  20.900  0.00  0.00    +0.000 OA
BRANCH   8  10
ATOM      9  O   UNL     1       1.436   4.167  21.014  0.00  0.00    +0.000 OA
ATOM     10  C   UNL     1       1.798   5.216  20.504  0.00  0.00    +0.000 C 
BRANCH  10  11
ATOM     11  C   UNL     1       2.689   5.237  19.323  0.00  0.00    +0.000 C 
ATOM     12  C   UNL     1       4.031   5.253  19.381  0.00  0.00    +0.000 C 
BRANCH  12  13
ATOM     13  C   UNL     1       4.911   5.287  18.201  0.00  0.00    +0.000 A 
ATOM     14  C   UNL     1       4.579   6.005  17.035  0.00  0.00    +0.000 A 
ATOM     15  C   UNL     1       5.450   6.055  15.946  0.00  0.00    +0.000 A 
ATOM     16  C   UNL     1       6.669   5.405  16.023  0.00  0.00    +0.000 A 
ATOM     17  C   UNL     1       7.020   4.704  17.177  0.00  0.00    +0.000 A 
ATOM     18  C   UNL     1       6.153   4.645  18.266  0.00  0.00    +0.000 A 
BRANCH  16  19
ATOM     19  O   UNL     1       7.570   5.424  14.995  0.00  0.00    +0.000 OA
ATOM     20  H   UNL     1       8.378   5.863  15.311  0.00  0.00    +0.000 HD
ENDBRANCH  16  19
BRANCH  17  21
ATOM     21  O   UNL     1       8.225   4.074  17.253  0.00  0.00    +0.000 OA
ATOM     22  H   UNL     1       8.275   3.749  18.178  0.00  0.00    +0.000 HD
ENDBRANCH  17  21
ENDBRANCH  12  13
ENDBRANCH  10  11
ENDBRANCH   8  10
ENDBRANCH   7   8
ENDBRANCH   1   7
BRANCH   4  23
ATOM     23  O   UNL     1      -1.396  12.042  20.824  0.00  0.00    +0.000 OA
BRANCH  23  24
ATOM     24  C   UNL     1      -1.640  12.341  22.204  0.00  0.00    +0.000 C 
ATOM     25  O   UNL     1      -3.048  12.446  22.442  0.00  0.00    +0.000 OA
ATOM     26  C   UNL     1      -3.375  12.805  23.787  0.00  0.00    +0.000 C 
ATOM     27  C   UNL     1      -2.794  14.186  24.127  0.00  0.00    +0.000 C 
ATOM     28  C   UNL     1      -1.276  14.172  23.911  0.00  0.00    +0.000 C 
ATOM     29  C   UNL     1      -0.923  13.680  22.500  0.00  0.00    +0.000 C 
BRANCH  27  30
ATOM     30  O   UNL     1      -3.129  14.555  25.472  0.00  0.00    +0.000 OA
ATOM     31  H   UNL     1      -3.019  13.772  26.045  0.00  0.00    +0.000 HD
ENDBRANCH  27  30
BRANCH  28  32
ATOM     32  O   UNL     1      -0.737  15.476  24.164  0.00  0.00    +0.000 OA
ATOM     33  H   UNL     1      -1.210  16.118  23.607  0.00  0.00    +0.000 HD
ENDBRANCH  28  32
BRANCH  29  34
ATOM     34  O   UNL     1       0.505  13.559  22.374  0.00  0.00    +0.000 OA
ATOM     35  H   UNL     1       0.773  13.875  21.496  0.00  0.00    +0.000 HD
ENDBRANCH  29  34
BRANCH  26  36
ATOM     36  C   UNL     1      -4.905  12.792  23.945  0.00  0.00    +0.000 C 
BRANCH  36  37
ATOM     37  O   UNL     1      -5.578  12.452  22.739  0.00  0.00    +0.000 OA
ATOM     38  H   UNL     1      -6.253  11.776  22.970  0.00  0.00    +0.000 HD
ENDBRANCH  36  37
ENDBRANCH  26  36
ENDBRANCH  23  24
ENDBRANCH   4  23
TORSDOF 14
ENDMDL
