MODEL 1
REMARK VINA RESULT:      -7.5      0.000      0.000
REMARK  Name = 
REMARK  8 active torsions:
REMARK  status: ('A' for Active; 'I' for Inactive)
REMARK    1  A    between atoms: C_1  and  C_2
REMARK    2  A    between atoms: C_2  and  C_3
REMARK    3  A    between atoms: N_8  and  C_9
REMARK    4  A    between atoms: C_9  and  C_10
REMARK    5  A    between atoms: C_10  and  N_11
REMARK    6  A    between atoms: N_11  and  C_12
REMARK    7  A    between atoms: N_16  and  C_17
REMARK    8  A    between atoms: N_20  and  C_21
REMARK                            x       y       z     vdW  Elec       q    Type
REMARK                         _______ _______ _______ _____ _____    ______ ____
ROOT
ATOM      1  N   UNL     1       4.258   1.950  18.398  0.00  0.00    +0.000 N 
ATOM      2  H   UNL     1       4.728   1.277  17.780  0.00  0.00    +0.000 HD
ENDROOT
BRANCH   1   3
ATOM      3  C   UNL     1       4.979   3.047  18.797  0.00  0.00    +0.000 C 
ATOM      4  C   UNL     1       5.442   4.073  18.063  0.00  0.00    +0.000 C 
ATOM      5  C   UNL     1       6.270   5.089  18.736  0.00  0.00    +0.000 C 
ATOM      6  O   UNL     1       6.294   5.189  19.961  0.00  0.00    +0.000 OA
ATOM      7  N   UNL     1       7.021   5.880  17.885  0.00  0.00    +0.000 N 
ATOM      8  C   UNL     1       7.932   6.846  18.478  0.00  0.00    +0.000 C 
ATOM      9  C   UNL     1       7.045   5.779  16.500  0.00  0.00    +0.000 C 
ATOM     10  O   UNL     1       7.840   6.437  15.827  0.00  0.00    +0.000 OA
ATOM     11  N   UNL     1       6.131   4.914  15.920  0.00  0.00    +0.000 N 
ATOM     12  C   UNL     1       6.091   4.804  14.471  0.00  0.00    +0.000 C 
ATOM     13  C   UNL     1       5.221   4.131  16.610  0.00  0.00    +0.000 C 
ATOM     14  O   UNL     1       4.308   3.518  16.058  0.00  0.00    +0.000 OA
ENDBRANCH   1   3
BRANCH   1  15
ATOM     15  C   UNL     1       2.846   1.716  18.631  0.00  0.00    +0.000 C 
BRANCH  15  16
ATOM     16  C   UNL     1       2.330   2.622  19.767  0.00  0.00    +0.000 C 
BRANCH  16  22
ATOM     17  C   UNL     1       1.997   7.632  19.416  0.00  0.00    +0.000 C 
ATOM     18  O   UNL     1       1.790   8.299  20.429  0.00  0.00    +0.000 OA
ATOM     19  N   UNL     1       2.103   6.251  19.453  0.00  0.00    +0.000 N 
ATOM     20  C   UNL     1       1.832   5.549  20.710  0.00  0.00    +0.000 C 
ATOM     21  C   UNL     1       0.801   4.426  20.487  0.00  0.00    +0.000 C 
ATOM     22  N   UNL     1       1.167   3.469  19.416  0.00  0.00    +0.000 NA
ATOM     23  C   UNL     1       1.429   4.231  18.171  0.00  0.00    +0.000 C 
ATOM     24  C   UNL     1       2.451   5.379  18.325  0.00  0.00    +0.000 C 
BRANCH  17  26
ATOM     25  C   UNL     1       1.717   9.752  18.081  0.00  0.00    +0.000 C 
ATOM     26  C   UNL     1       2.125   8.289  18.053  0.00  0.00    +0.000 C 
ENDBRANCH  17  26
ENDBRANCH  16  22
ENDBRANCH  15  16
ENDBRANCH   1  15
TORSDOF 5
ENDMDL
MODEL 2
REMARK VINA RESULT:      -7.2      2.970      7.522
REMARK  Name = 
REMARK  8 active torsions:
REMARK  status: ('A' for Active; 'I' for Inactive)
REMARK    1  A    between atoms: C_1  and  C_2
REMARK    2  A    between atoms: C_2  and  C_3
REMARK    3  A    between atoms: N_8  and  C_9
REMARK    4  A    between atoms: C_9  and  C_10
REMARK    5  A    between atoms: C_10  and  N_11
REMARK    6  A    between atoms: N_11  and  C_12
REMARK    7  A    between atoms: N_16  and  C_17
REMARK    8  A    between atoms: N_20  and  C_21
REMARK                            x       y       z     vdW  Elec       q    Type
REMARK                         _______ _______ _______ _____ _____    ______ ____
ROOT
ATOM      1  N   UNL     1       1.854   7.188  21.021  0.00  0.00    +0.000 N 
ATOM      2  H   UNL     1       2.392   7.506  21.837  0.00  0.00    +0.000 HD
ENDROOT
BRANCH   1   3
ATOM      3  C   UNL     1       1.460   8.142  20.118  0.00  0.00    +0.000 C 
ATOM      4  C   UNL     1       0.855   9.322  20.337  0.00  0.00    +0.000 C 
ATOM      5  C   UNL     1       0.462  10.128  19.168  0.00  0.00    +0.000 C 
ATOM      6  O   UNL     1       0.927   9.908  18.052  0.00  0.00    +0.000 OA
ATOM      7  N   UNL     1      -0.477  11.110  19.431  0.00  0.00    +0.000 N 
ATOM      8  C   UNL     1      -0.983  11.888  18.312  0.00  0.00    +0.000 C 
ATOM      9  C   UNL     1      -1.048  11.369  20.670  0.00  0.00    +0.000 C 
ATOM     10  O   UNL     1      -1.971  12.176  20.789  0.00  0.00    +0.000 OA
ATOM     11  N   UNL     1      -0.524  10.685  21.756  0.00  0.00    +0.000 N 
ATOM     12  C   UNL     1      -1.063  10.954  23.079  0.00  0.00    +0.000 C 
ATOM     13  C   UNL     1       0.498   9.754  21.697  0.00  0.00    +0.000 C 
ATOM     14  O   UNL     1       1.056   9.306  22.698  0.00  0.00    +0.000 OA
ENDBRANCH   1   3
BRANCH   1  15
ATOM     15  C   UNL     1       1.725   5.752  20.870  0.00  0.00    +0.000 C 
BRANCH  15  16
ATOM     16  C   UNL     1       2.994   5.162  20.222  0.00  0.00    +0.000 C 
BRANCH  16  22
ATOM     17  C   UNL     1       5.592   5.838  15.965  0.00  0.00    +0.000 C 
ATOM     18  O   UNL     1       5.324   6.791  15.235  0.00  0.00    +0.000 OA
ATOM     19  N   UNL     1       4.914   5.606  17.150  0.00  0.00    +0.000 N 
ATOM     20  C   UNL     1       3.756   6.439  17.484  0.00  0.00    +0.000 C 
ATOM     21  C   UNL     1       2.539   5.557  17.824  0.00  0.00    +0.000 C 
ATOM     22  N   UNL     1       2.793   4.555  18.887  0.00  0.00    +0.000 NA
ATOM     23  C   UNL     1       3.970   3.741  18.497  0.00  0.00    +0.000 C 
ATOM     24  C   UNL     1       5.227   4.565  18.136  0.00  0.00    +0.000 C 
BRANCH  17  26
ATOM     25  C   UNL     1       6.216   3.871  14.517  0.00  0.00    +0.000 C 
ATOM     26  C   UNL     1       6.675   4.842  15.592  0.00  0.00    +0.000 C 
ENDBRANCH  17  26
ENDBRANCH  16  22
ENDBRANCH  15  16
ENDBRANCH   1  15
TORSDOF 5
ENDMDL
MODEL 3
REMARK VINA RESULT:      -7.1      5.219      7.931
REMARK  Name = 
REMARK  8 active torsions:
REMARK  status: ('A' for Active; 'I' for Inactive)
REMARK    1  A    between atoms: C_1  and  C_2
REMARK    2  A    between atoms: C_2  and  C_3
REMARK    3  A    between atoms: N_8  and  C_9
REMARK    4  A    between atoms: C_9  and  C_10
REMARK    5  A    between atoms: C_10  and  N_11
REMARK    6  A    between atoms: N_11  and  C_12
REMARK    7  A    between atoms: N_16  and  C_17
REMARK    8  A    between atoms: N_20  and  C_21
REMARK                            x       y       z     vdW  Elec       q    Type
REMARK                         _______ _______ _______ _____ _____    ______ ____
ROOT
ATOM      1  N   UNL     1       8.575   9.471  18.443  0.00  0.00    +0.000 N 
ATOM      2  H   UNL     1       8.650   9.159  19.420  0.00  0.00    +0.000 HD
ENDROOT
BRANCH   1   3
ATOM      3  C   UNL     1       9.292  10.583  18.081  0.00  0.00    +0.000 C 
ATOM      4  C   UNL     1       9.748  11.587  18.850  0.00  0.00    +0.000 C 
ATOM      5  C   UNL     1      10.425  12.715  18.187  0.00  0.00    +0.000 C 
ATOM      6  O   UNL     1      10.843  12.625  17.035  0.00  0.00    +0.000 OA
ATOM      7  N   UNL     1      10.519  13.864  18.951  0.00  0.00    +0.000 N 
ATOM      8  C   UNL     1      11.095  15.049  18.335  0.00  0.00    +0.000 C 
ATOM      9  C   UNL     1      10.034  14.015  20.244  0.00  0.00    +0.000 C 
ATOM     10  O   UNL     1      10.045  15.113  20.804  0.00  0.00    +0.000 OA
ATOM     11  N   UNL     1       9.550  12.876  20.868  0.00  0.00    +0.000 N 
ATOM     12  C   UNL     1       9.068  12.977  22.236  0.00  0.00    +0.000 C 
ATOM     13  C   UNL     1       9.489  11.617  20.297  0.00  0.00    +0.000 C 
ATOM     14  O   UNL     1       9.225  10.601  20.939  0.00  0.00    +0.000 OA
ENDBRANCH   1   3
BRANCH   1  15
ATOM     15  C   UNL     1       7.839   8.593  17.554  0.00  0.00    +0.000 C 
BRANCH  15  16
ATOM     16  C   UNL     1       7.759   7.171  18.145  0.00  0.00    +0.000 C 
BRANCH  16  22
ATOM     17  C   UNL     1       4.036   3.785  18.143  0.00  0.00    +0.000 C 
ATOM     18  O   UNL     1       4.162   2.744  18.785  0.00  0.00    +0.000 OA
ATOM     19  N   UNL     1       5.025   4.755  18.111  0.00  0.00    +0.000 N 
ATOM     20  C   UNL     1       6.313   4.479  18.751  0.00  0.00    +0.000 C 
ATOM     21  C   UNL     1       7.470   4.745  17.768  0.00  0.00    +0.000 C 
ATOM     22  N   UNL     1       7.458   6.101  17.168  0.00  0.00    +0.000 NA
ATOM     23  C   UNL     1       6.135   6.325  16.535  0.00  0.00    +0.000 C 
ATOM     24  C   UNL     1       4.928   6.069  17.465  0.00  0.00    +0.000 C 
BRANCH  17  26
ATOM     25  C   UNL     1       1.542   4.154  18.188  0.00  0.00    +0.000 C 
ATOM     26  C   UNL     1       2.787   4.058  17.323  0.00  0.00    +0.000 C 
ENDBRANCH  17  26
ENDBRANCH  16  22
ENDBRANCH  15  16
ENDBRANCH   1  15
TORSDOF 5
ENDMDL
MODEL 4
REMARK VINA RESULT:      -7.0      2.820      7.284
REMARK  Name = 
REMARK  8 active torsions:
REMARK  status: ('A' for Active; 'I' for Inactive)
REMARK    1  A    between atoms: C_1  and  C_2
REMARK    2  A    between atoms: C_2  and  C_3
REMARK    3  A    between atoms: N_8  and  C_9
REMARK    4  A    between atoms: C_9  and  C_10
REMARK    5  A    between atoms: C_10  and  N_11
REMARK    6  A    between atoms: N_11  and  C_12
REMARK    7  A    between atoms: N_16  and  C_17
REMARK    8  A    between atoms: N_20  and  C_21
REMARK                            x       y       z     vdW  Elec       q    Type
REMARK                         _______ _______ _______ _____ _____    ______ ____
ROOT
ATOM      1  N   UNL     1       2.103   6.873  20.790  0.00  0.00    +0.000 N 
ATOM      2  H   UNL     1       3.012   7.281  20.536  0.00  0.00    +0.000 HD
ENDROOT
BRANCH   1   3
ATOM      3  C   UNL     1       1.207   7.689  21.433  0.00  0.00    +0.000 C 
ATOM      4  C   UNL     1       0.714   8.879  21.049  0.00  0.00    +0.000 C 
ATOM      5  C   UNL     1      -0.181   9.591  21.978  0.00  0.00    +0.000 C 
ATOM      6  O   UNL     1      -0.716   9.014  22.922  0.00  0.00    +0.000 OA
ATOM      7  N   UNL     1      -0.338  10.940  21.712  0.00  0.00    +0.000 N 
ATOM      8  C   UNL     1      -1.134  11.730  22.637  0.00  0.00    +0.000 C 
ATOM      9  C   UNL     1       0.272  11.633  20.674  0.00  0.00    +0.000 C 
ATOM     10  O   UNL     1       0.180  12.860  20.588  0.00  0.00    +0.000 OA
ATOM     11  N   UNL     1       0.974  10.882  19.746  0.00  0.00    +0.000 N 
ATOM     12  C   UNL     1       1.595  11.559  18.621  0.00  0.00    +0.000 C 
ATOM     13  C   UNL     1       1.135   9.507  19.787  0.00  0.00    +0.000 C 
ATOM     14  O   UNL     1       1.606   8.858  18.855  0.00  0.00    +0.000 OA
ENDBRANCH   1   3
BRANCH   1  15
ATOM     15  C   UNL     1       1.848   5.536  20.291  0.00  0.00    +0.000 C 
BRANCH  15  16
ATOM     16  C   UNL     1       3.102   4.974  19.593  0.00  0.00    +0.000 C 
BRANCH  16  22
ATOM     17  C   UNL     1       6.752   4.564  16.152  0.00  0.00    +0.000 C 
ATOM     18  O   UNL     1       7.853   4.126  16.484  0.00  0.00    +0.000 OA
ATOM     19  N   UNL     1       5.709   4.693  17.054  0.00  0.00    +0.000 N 
ATOM     20  C   UNL     1       5.958   4.428  18.473  0.00  0.00    +0.000 C 
ATOM     21  C   UNL     1       5.477   5.611  19.335  0.00  0.00    +0.000 C 
ATOM     22  N   UNL     1       4.062   5.992  19.109  0.00  0.00    +0.000 NA
ATOM     23  C   UNL     1       3.868   6.250  17.661  0.00  0.00    +0.000 C 
ATOM     24  C   UNL     1       4.336   5.103  16.737  0.00  0.00    +0.000 C 
BRANCH  17  26
ATOM     25  C   UNL     1       6.316   3.838  13.777  0.00  0.00    +0.000 C 
ATOM     26  C   UNL     1       6.481   5.012  14.727  0.00  0.00    +0.000 C 
ENDBRANCH  17  26
ENDBRANCH  16  22
ENDBRANCH  15  16
ENDBRANCH   1  15
TORSDOF 5
ENDMDL
MODEL 5
REMARK VINA RESULT:      -6.8      5.035      7.955
REMARK  Name = 
REMARK  8 active torsions:
REMARK  status: ('A' for Active; 'I' for Inactive)
REMARK    1  A    between atoms: C_1  and  C_2
REMARK    2  A    between atoms: C_2  and  C_3
REMARK    3  A    between atoms: N_8  and  C_9
REMARK    4  A    between atoms: C_9  and  C_10
REMARK    5  A    between atoms: C_10  and  N_11
REMARK    6  A    between atoms: N_11  and  C_12
REMARK    7  A    between atoms: N_16  and  C_17
REMARK    8  A    between atoms: N_20  and  C_21
REMARK                            x       y       z     vdW  Elec       q    Type
REMARK                         _______ _______ _______ _____ _____    ______ ____
ROOT
ATOM      1  N   UNL     1       8.198   8.091  17.455  0.00  0.00    +0.000 N 
ATOM      2  H   UNL     1       8.866   7.782  16.737  0.00  0.00    +0.000 HD
ENDROOT
BRANCH   1   3
ATOM      3  C   UNL     1       7.613   7.120  18.228  0.00  0.00    +0.000 C 
ATOM      4  C   UNL     1       7.005   5.983  17.848  0.00  0.00    +0.000 C 
ATOM      5  C   UNL     1       6.381   5.149  18.890  0.00  0.00    +0.000 C 
ATOM      6  O   UNL     1       6.655   5.296  20.079  0.00  0.00    +0.000 OA
ATOM      7  N   UNL     1       5.460   4.229  18.421  0.00  0.00    +0.000 N 
ATOM      8  C   UNL     1       4.736   3.430  19.396  0.00  0.00    +0.000 C 
ATOM      9  C   UNL     1       5.102   4.052  17.091  0.00  0.00    +0.000 C 
ATOM     10  O   UNL     1       4.179   3.299  16.775  0.00  0.00    +0.000 OA
ATOM     11  N   UNL     1       5.834   4.755  16.147  0.00  0.00    +0.000 N 
ATOM     12  C   UNL     1       5.521   4.571  14.739  0.00  0.00    +0.000 C 
ATOM     13  C   UNL     1       6.870   5.629  16.427  0.00  0.00    +0.000 C 
ATOM     14  O   UNL     1       7.611   6.090  15.560  0.00  0.00    +0.000 OA
ENDBRANCH   1   3
BRANCH   1  15
ATOM     15  C   UNL     1       8.091   9.524  17.644  0.00  0.00    +0.000 C 
BRANCH  15  16
ATOM     16  C   UNL     1       9.046   9.992  18.761  0.00  0.00    +0.000 C 
BRANCH  16  22
ATOM     17  C   UNL     1       9.450  14.791  20.222  0.00  0.00    +0.000 C 
ATOM     18  O   UNL     1       8.773  15.654  19.666  0.00  0.00    +0.000 OA
ATOM     19  N   UNL     1       9.376  13.455  19.866  0.00  0.00    +0.000 N 
ATOM     20  C   UNL     1       8.569  13.070  18.705  0.00  0.00    +0.000 C 
ATOM     21  C   UNL     1       9.400  12.212  17.732  0.00  0.00    +0.000 C 
ATOM     22  N   UNL     1      10.029  11.023  18.356  0.00  0.00    +0.000 NA
ATOM     23  C   UNL     1      10.832  11.469  19.520  0.00  0.00    +0.000 C 
ATOM     24  C   UNL     1      10.060  12.341  20.535  0.00  0.00    +0.000 C 
BRANCH  17  26
ATOM     25  C   UNL     1      11.581  16.001  20.816  0.00  0.00    +0.000 C 
ATOM     26  C   UNL     1      10.431  15.150  21.325  0.00  0.00    +0.000 C 
ENDBRANCH  17  26
ENDBRANCH  16  22
ENDBRANCH  15  16
ENDBRANCH   1  15
TORSDOF 5
ENDMDL
MODEL 6
REMARK VINA RESULT:      -6.7      5.160      7.831
REMARK  Name = 
REMARK  8 active torsions:
REMARK  status: ('A' for Active; 'I' for Inactive)
REMARK    1  A    between atoms: C_1  and  C_2
REMARK    2  A    between atoms: C_2  and  C_3
REMARK    3  A    between atoms: N_8  and  C_9
REMARK    4  A    between atoms: C_9  and  C_10
REMARK    5  A    between atoms: C_10  and  N_11
REMARK    6  A    between atoms: N_11  and  C_12
REMARK    7  A    between atoms: N_16  and  C_17
REMARK    8  A    between atoms: N_20  and  C_21
REMARK                            x       y       z     vdW  Elec       q    Type
REMARK                         _______ _______ _______ _____ _____    ______ ____
ROOT
ATOM      1  N   UNL     1       9.085   9.341  18.412  0.00  0.00    +0.000 N 
ATOM      2  H   UNL     1      10.111   9.282  18.434  0.00  0.00    +0.000 HD
ENDROOT
BRANCH   1   3
ATOM      3  C   UNL     1       8.532  10.527  18.002  0.00  0.00    +0.000 C 
ATOM      4  C   UNL     1       9.053  11.766  18.042  0.00  0.00    +0.000 C 
ATOM      5  C   UNL     1       8.203  12.889  17.610  0.00  0.00    +0.000 C 
ATOM      6  O   UNL     1       7.183  12.705  16.949  0.00  0.00    +0.000 OA
ATOM      7  N   UNL     1       8.632  14.135  18.029  0.00  0.00    +0.000 N 
ATOM      8  C   UNL     1       7.799  15.285  17.718  0.00  0.00    +0.000 C 
ATOM      9  C   UNL     1       9.761  14.382  18.801  0.00  0.00    +0.000 C 
ATOM     10  O   UNL     1       9.999  15.509  19.239  0.00  0.00    +0.000 OA
ATOM     11  N   UNL     1      10.601  13.307  19.043  0.00  0.00    +0.000 N 
ATOM     12  C   UNL     1      11.815  13.525  19.812  0.00  0.00    +0.000 C 
ATOM     13  C   UNL     1      10.391  12.012  18.600  0.00  0.00    +0.000 C 
ATOM     14  O   UNL     1      11.244  11.129  18.678  0.00  0.00    +0.000 OA
ENDBRANCH   1   3
BRANCH   1  15
ATOM     15  C   UNL     1       8.375   8.104  18.675  0.00  0.00    +0.000 C 
BRANCH  15  16
ATOM     16  C   UNL     1       7.512   7.710  17.458  0.00  0.00    +0.000 C 
BRANCH  16  22
ATOM     17  C   UNL     1       4.185   4.067  18.451  0.00  0.00    +0.000 C 
ATOM     18  O   UNL     1       4.227   3.485  19.533  0.00  0.00    +0.000 OA
ATOM     19  N   UNL     1       5.071   5.080  18.125  0.00  0.00    +0.000 N 
ATOM     20  C   UNL     1       6.175   5.382  19.039  0.00  0.00    +0.000 C 
ATOM     21  C   UNL     1       7.517   5.379  18.282  0.00  0.00    +0.000 C 
ATOM     22  N   UNL     1       7.550   6.274  17.100  0.00  0.00    +0.000 NA
ATOM     23  C   UNL     1       6.415   5.924  16.211  0.00  0.00    +0.000 C 
ATOM     24  C   UNL     1       5.037   5.902  16.909  0.00  0.00    +0.000 C 
BRANCH  17  26
ATOM     25  C   UNL     1       1.774   4.198  17.725  0.00  0.00    +0.000 C 
ATOM     26  C   UNL     1       3.165   3.687  17.392  0.00  0.00    +0.000 C 
ENDBRANCH  17  26
ENDBRANCH  16  22
ENDBRANCH  15  16
ENDBRANCH   1  15
TORSDOF 5
ENDMDL
MODEL 7
REMARK VINA RESULT:      -6.7      2.856      6.886
REMARK  Name = 
REMARK  8 active torsions:
REMARK  status: ('A' for Active; 'I' for Inactive)
REMARK    1  A    between atoms: C_1  and  C_2
REMARK    2  A    between atoms: C_2  and  C_3
REMARK    3  A    between atoms: N_8  and  C_9
REMARK    4  A    between atoms: C_9  and  C_10
REMARK    5  A    between atoms: C_10  and  N_11
REMARK    6  A    between atoms: N_11  and  C_12
REMARK    7  A    between atoms: N_16  and  C_17
REMARK    8  A    between atoms: N_20  and  C_21
REMARK                            x       y       z     vdW  Elec       q    Type
REMARK                         _______ _______ _______ _____ _____    ______ ____
ROOT
ATOM      1  N   UNL     1       2.001   6.851  20.599  0.00  0.00    +0.000 N 
ATOM      2  H   UNL     1       2.948   7.211  20.421  0.00  0.00    +0.000 HD
ENDROOT
BRANCH   1   3
ATOM      3  C   UNL     1       1.139   7.666  21.288  0.00  0.00    +0.000 C 
ATOM      4  C   UNL     1       0.684   8.889  20.964  0.00  0.00    +0.000 C 
ATOM      5  C   UNL     1      -0.178   9.587  21.934  0.00  0.00    +0.000 C 
ATOM      6  O   UNL     1      -0.723   8.985  22.857  0.00  0.00    +0.000 OA
ATOM      7  N   UNL     1      -0.290  10.951  21.733  0.00  0.00    +0.000 N 
ATOM      8  C   UNL     1      -1.051  11.724  22.701  0.00  0.00    +0.000 C 
ATOM      9  C   UNL     1       0.333  11.671  20.721  0.00  0.00    +0.000 C 
ATOM     10  O   UNL     1       0.283  12.902  20.693  0.00  0.00    +0.000 OA
ATOM     11  N   UNL     1       1.001  10.939  19.752  0.00  0.00    +0.000 N 
ATOM     12  C   UNL     1       1.635  11.647  18.652  0.00  0.00    +0.000 C 
ATOM     13  C   UNL     1       1.115   9.560  19.729  0.00  0.00    +0.000 C 
ATOM     14  O   UNL     1       1.555   8.939  18.762  0.00  0.00    +0.000 OA
ENDBRANCH   1   3
BRANCH   1  15
ATOM     15  C   UNL     1       1.672   5.593  19.958  0.00  0.00    +0.000 C 
BRANCH  15  16
ATOM     16  C   UNL     1       2.685   4.503  20.361  0.00  0.00    +0.000 C 
BRANCH  16  22
ATOM     17  C   UNL     1       5.743   6.512  16.905  0.00  0.00    +0.000 C 
ATOM     18  O   UNL     1       5.263   7.040  15.903  0.00  0.00    +0.000 OA
ATOM     19  N   UNL     1       4.950   5.948  17.891  0.00  0.00    +0.000 N 
ATOM     20  C   UNL     1       3.504   5.857  17.677  0.00  0.00    +0.000 C 
ATOM     21  C   UNL     1       3.015   4.415  17.912  0.00  0.00    +0.000 C 
ATOM     22  N   UNL     1       3.390   3.853  19.232  0.00  0.00    +0.000 NA
ATOM     23  C   UNL     1       4.860   3.970  19.394  0.00  0.00    +0.000 C 
ATOM     24  C   UNL     1       5.419   5.391  19.166  0.00  0.00    +0.000 C 
BRANCH  17  26
ATOM     25  C   UNL     1       7.838   7.750  17.563  0.00  0.00    +0.000 C 
ATOM     26  C   UNL     1       7.246   6.428  17.107  0.00  0.00    +0.000 C 
ENDBRANCH  17  26
ENDBRANCH  16  22
ENDBRANCH  15  16
ENDBRANCH   1  15
TORSDOF 5
ENDMDL
MODEL 8
REMARK VINA RESULT:      -6.7      2.909      7.527
REMARK  Name = 
REMARK  8 active torsions:
REMARK  status: ('A' for Active; 'I' for Inactive)
REMARK    1  A    between atoms: C_1  and  C_2
REMARK    2  A    between atoms: C_2  and  C_3
REMARK    3  A    between atoms: N_8  and  C_9
REMARK    4  A    between atoms: C_9  and  C_10
REMARK    5  A    between atoms: C_10  and  N_11
REMARK    6  A    between atoms: N_11  and  C_12
REMARK    7  A    between atoms: N_16  and  C_17
REMARK    8  A    between atoms: N_20  and  C_21
REMARK                            x       y       z     vdW  Elec       q    Type
REMARK                         _______ _______ _______ _____ _____    ______ ____
ROOT
ATOM      1  N   UNL     1       2.048   7.146  20.804  0.00  0.00    +0.000 N 
ATOM      2  H   UNL     1       2.829   7.386  21.429  0.00  0.00    +0.000 HD
ENDROOT
BRANCH   1   3
ATOM      3  C   UNL     1       1.607   8.122  19.947  0.00  0.00    +0.000 C 
ATOM      4  C   UNL     1       0.984   9.280  20.226  0.00  0.00    +0.000 C 
ATOM      5  C   UNL     1       0.538  10.117  19.099  0.00  0.00    +0.000 C 
ATOM      6  O   UNL     1       0.974   9.947  17.962  0.00  0.00    +0.000 OA
ATOM      7  N   UNL     1      -0.413  11.068  19.423  0.00  0.00    +0.000 N 
ATOM      8  C   UNL     1      -0.968  11.873  18.348  0.00  0.00    +0.000 C 
ATOM      9  C   UNL     1      -0.952  11.271  20.688  0.00  0.00    +0.000 C 
ATOM     10  O   UNL     1      -1.888  12.053  20.862  0.00  0.00    +0.000 OA
ATOM     11  N   UNL     1      -0.381  10.562  21.732  0.00  0.00    +0.000 N 
ATOM     12  C   UNL     1      -0.885  10.771  23.080  0.00  0.00    +0.000 C 
ATOM     13  C   UNL     1       0.658   9.656  21.611  0.00  0.00    +0.000 C 
ATOM     14  O   UNL     1       1.256   9.186  22.578  0.00  0.00    +0.000 OA
ENDBRANCH   1   3
BRANCH   1  15
ATOM     15  C   UNL     1       1.631   5.758  20.818  0.00  0.00    +0.000 C 
BRANCH  15  16
ATOM     16  C   UNL     1       2.008   5.069  19.490  0.00  0.00    +0.000 C 
BRANCH  16  22
ATOM     17  C   UNL     1       5.773   4.388  16.221  0.00  0.00    +0.000 C 
ATOM     18  O   UNL     1       5.620   3.624  15.269  0.00  0.00    +0.000 OA
ATOM     19  N   UNL     1       4.770   4.618  17.149  0.00  0.00    +0.000 N 
ATOM     20  C   UNL     1       3.537   3.832  17.074  0.00  0.00    +0.000 C 
ATOM     21  C   UNL     1       3.224   3.191  18.440  0.00  0.00    +0.000 C 
ATOM     22  N   UNL     1       3.169   4.154  19.565  0.00  0.00    +0.000 NA
ATOM     23  C   UNL     1       4.440   4.919  19.594  0.00  0.00    +0.000 C 
ATOM     24  C   UNL     1       4.818   5.584  18.253  0.00  0.00    +0.000 C 
BRANCH  17  26
ATOM     25  C   UNL     1       7.853   4.551  17.636  0.00  0.00    +0.000 C 
ATOM     26  C   UNL     1       7.090   5.109  16.447  0.00  0.00    +0.000 C 
ENDBRANCH  17  26
ENDBRANCH  16  22
ENDBRANCH  15  16
ENDBRANCH   1  15
TORSDOF 5
ENDMDL
MODEL 9
REMARK VINA RESULT:      -6.6      2.943      7.302
REMARK  Name = 
REMARK  8 active torsions:
REMARK  status: ('A' for Active; 'I' for Inactive)
REMARK    1  A    between atoms: C_1  and  C_2
REMARK    2  A    between atoms: C_2  and  C_3
REMARK    3  A    between atoms: N_8  and  C_9
REMARK    4  A    between atoms: C_9  and  C_10
REMARK    5  A    between atoms: C_10  and  N_11
REMARK    6  A    between atoms: N_11  and  C_12
REMARK    7  A    between atoms: N_16  and  C_17
REMARK    8  A    between atoms: N_20  and  C_21
REMARK                            x       y       z     vdW  Elec       q    Type
REMARK                         _______ _______ _______ _____ _____    ______ ____
ROOT
ATOM      1  N   UNL     1       1.760   7.052  20.818  0.00  0.00    +0.000 N 
ATOM      2  H   UNL     1       2.279   7.198  21.693  0.00  0.00    +0.000 HD
ENDROOT
BRANCH   1   3
ATOM      3  C   UNL     1       1.533   8.153  20.031  0.00  0.00    +0.000 C 
ATOM      4  C   UNL     1       0.989   9.337  20.362  0.00  0.00    +0.000 C 
ATOM      5  C   UNL     1       0.782  10.328  19.292  0.00  0.00    +0.000 C 
ATOM      6  O   UNL     1       1.350  10.228  18.207  0.00  0.00    +0.000 OA
ATOM      7  N   UNL     1      -0.111  11.338  19.603  0.00  0.00    +0.000 N 
ATOM      8  C   UNL     1      -0.437  12.304  18.567  0.00  0.00    +0.000 C 
ATOM      9  C   UNL     1      -0.795  11.468  20.805  0.00  0.00    +0.000 C 
ATOM     10  O   UNL     1      -1.669  12.325  20.950  0.00  0.00    +0.000 OA
ATOM     11  N   UNL     1      -0.441  10.598  21.824  0.00  0.00    +0.000 N 
ATOM     12  C   UNL     1      -1.101  10.723  23.113  0.00  0.00    +0.000 C 
ATOM     13  C   UNL     1       0.516   9.602  21.729  0.00  0.00    +0.000 C 
ATOM     14  O   UNL     1       0.930   8.974  22.702  0.00  0.00    +0.000 OA
ENDBRANCH   1   3
BRANCH   1  15
ATOM     15  C   UNL     1       1.477   5.673  20.473  0.00  0.00    +0.000 C 
BRANCH  15  16
ATOM     16  C   UNL     1       2.731   4.799  20.678  0.00  0.00    +0.000 C 
BRANCH  16  22
ATOM     17  C   UNL     1       5.529   6.395  16.811  0.00  0.00    +0.000 C 
ATOM     18  O   UNL     1       4.991   6.982  15.874  0.00  0.00    +0.000 OA
ATOM     19  N   UNL     1       4.810   5.938  17.904  0.00  0.00    +0.000 N 
ATOM     20  C   UNL     1       3.349   6.037  17.887  0.00  0.00    +0.000 C 
ATOM     21  C   UNL     1       2.713   4.671  18.209  0.00  0.00    +0.000 C 
ATOM     22  N   UNL     1       3.187   4.064  19.476  0.00  0.00    +0.000 NA
ATOM     23  C   UNL     1       4.668   3.987  19.438  0.00  0.00    +0.000 C 
ATOM     24  C   UNL     1       5.371   5.324  19.113  0.00  0.00    +0.000 C 
BRANCH  17  26
ATOM     25  C   UNL     1       7.807   7.192  17.540  0.00  0.00    +0.000 C 
ATOM     26  C   UNL     1       7.022   6.115  16.812  0.00  0.00    +0.000 C 
ENDBRANCH  17  26
ENDBRANCH  16  22
ENDBRANCH  15  16
ENDBRANCH   1  15
TORSDOF 5
ENDMDL
