MODEL 1
REMARK VINA RESULT:      -7.5      0.000      0.000
REMARK  Name = 
REMARK  4 active torsions:
REMARK  status: ('A' for Active; 'I' for Inactive)
REMARK    1  A    between atoms: C_1  and  C_2
REMARK    2  A    between atoms: C_2  and  N_3
REMARK    3  A    between atoms: C_17  and  C_18
REMARK    4  A    between atoms: N_23  and  C_24
REMARK                            x       y       z     vdW  Elec       q    Type
REMARK                         _______ _______ _______ _____ _____    ______ ____
ROOT
ATOM      1  N   UNL     1      -5.167  12.666  21.866  0.00  0.00    +0.000 N 
ATOM      2  C   UNL     1      -5.881  13.035  23.006  0.00  0.00    +0.000 C 
ATOM      3  O   UNL     1      -6.795  12.357  23.480  0.00  0.00    +0.000 OA
ATOM      4  C   UNL     1      -5.783  14.433  23.437  0.00  0.00    +0.000 A 
ATOM      5  C   UNL     1      -6.950  15.208  23.369  0.00  0.00    +0.000 A 
ATOM      6  C   UNL     1      -6.911  16.554  23.715  0.00  0.00    +0.000 A 
ATOM      7  C   UNL     1      -5.710  17.121  24.125  0.00  0.00    +0.000 A 
ATOM      8  C   UNL     1      -4.558  16.335  24.231  0.00  0.00    +0.000 A 
ATOM      9  C   UNL     1      -4.593  14.974  23.901  0.00  0.00    +0.000 A 
ATOM     10  S   UNL     1      -3.226  13.886  24.264  0.00  0.00    +0.000 S 
ATOM     11  O   UNL     1      -2.054  14.789  24.800  0.00  0.00    +0.000 OA
ATOM     12  C   UNL     1      -2.845  13.469  22.542  0.00  0.00    +0.000 A 
ATOM     13  C   UNL     1      -1.483  13.612  22.173  0.00  0.00    +0.000 A 
ATOM     14  C   UNL     1      -0.993  13.152  20.954  0.00  0.00    +0.000 A 
ATOM     15  C   UNL     1      -1.855  12.506  20.085  0.00  0.00    +0.000 A 
ATOM     16  C   UNL     1      -3.198  12.346  20.453  0.00  0.00    +0.000 A 
ATOM     17  C   UNL     1      -3.754  12.868  21.641  0.00  0.00    +0.000 A 
ENDROOT
BRANCH  15  18
ATOM     18  C   UNL     1      -1.315  11.842  18.870  0.00  0.00    +0.000 C 
ATOM     19  O   UNL     1      -1.560  12.358  17.780  0.00  0.00    +0.000 OA
ATOM     20  N   UNL     1      -0.478  10.741  19.008  0.00  0.00    +0.000 N 
ATOM     21  C   UNL     1       0.272  10.297  17.828  0.00  0.00    +0.000 C 
ATOM     22  C   UNL     1       1.664   9.766  18.218  0.00  0.00    +0.000 C 
ATOM     23  N   UNL     1       1.517   8.728  19.252  0.00  0.00    +0.000 N 
ATOM     24  C   UNL     1       0.781   9.145  20.455  0.00  0.00    +0.000 C 
ATOM     25  C   UNL     1      -0.597   9.705  20.054  0.00  0.00    +0.000 C 
BRANCH  23  26
ATOM     26  C   UNL     1       2.251   7.562  19.223  0.00  0.00    +0.000 A 
ATOM     27  C   UNL     1       3.188   7.294  18.213  0.00  0.00    +0.000 A 
ATOM     28  C   UNL     1       3.880   6.079  18.154  0.00  0.00    +0.000 A 
ATOM     29  C   UNL     1       3.646   5.099  19.111  0.00  0.00    +0.000 A 
ATOM     30  C   UNL     1       2.730   5.337  20.128  0.00  0.00    +0.000 A 
ATOM     31  C   UNL     1       2.047   6.556  20.180  0.00  0.00    +0.000 A 
ENDBRANCH  23  26
ENDBRANCH  15  18
BRANCH   1  33
ATOM     32  C   UNL     1      -6.838  13.102  20.046  0.00  0.00    +0.000 C 
ATOM     33  C   UNL     1      -6.022  12.082  20.820  0.00  0.00    +0.000 C 
ENDBRANCH   1  33
TORSDOF 3
ENDMDL
MODEL 2
REMARK VINA RESULT:      -7.5      2.613      4.138
REMARK  Name = 
REMARK  4 active torsions:
REMARK  status: ('A' for Active; 'I' for Inactive)
REMARK    1  A    between atoms: C_1  and  C_2
REMARK    2  A    between atoms: C_2  and  N_3
REMARK    3  A    between atoms: C_17  and  C_18
REMARK    4  A    between atoms: N_23  and  C_24
REMARK                            x       y       z     vdW  Elec       q    Type
REMARK                         _______ _______ _______ _____ _____    ______ ____
ROOT
ATOM      1  N   UNL     1      -5.313  12.273  19.146  0.00  0.00    +0.000 N 
ATOM      2  C   UNL     1      -6.545  12.545  18.550  0.00  0.00    +0.000 C 
ATOM      3  O   UNL     1      -7.313  11.665  18.154  0.00  0.00    +0.000 OA
ATOM      4  C   UNL     1      -6.767  13.908  18.059  0.00  0.00    +0.000 A 
ATOM      5  C   UNL     1      -6.906  14.075  16.673  0.00  0.00    +0.000 A 
ATOM      6  C   UNL     1      -7.068  15.348  16.139  0.00  0.00    +0.000 A 
ATOM      7  C   UNL     1      -7.089  16.449  16.989  0.00  0.00    +0.000 A 
ATOM      8  C   UNL     1      -6.992  16.275  18.373  0.00  0.00    +0.000 A 
ATOM      9  C   UNL     1      -6.846  14.993  18.919  0.00  0.00    +0.000 A 
ATOM     10  S   UNL     1      -6.978  14.702  20.675  0.00  0.00    +0.000 S 
ATOM     11  O   UNL     1      -7.087  16.113  21.364  0.00  0.00    +0.000 OA
ATOM     12  C   UNL     1      -5.277  14.117  20.904  0.00  0.00    +0.000 A 
ATOM     13  C   UNL     1      -4.561  14.742  21.957  0.00  0.00    +0.000 A 
ATOM     14  C   UNL     1      -3.322  14.277  22.388  0.00  0.00    +0.000 A 
ATOM     15  C   UNL     1      -2.783  13.150  21.790  0.00  0.00    +0.000 A 
ATOM     16  C   UNL     1      -3.496  12.519  20.762  0.00  0.00    +0.000 A 
ATOM     17  C   UNL     1      -4.715  13.002  20.241  0.00  0.00    +0.000 A 
ENDROOT
BRANCH  15  18
ATOM     18  C   UNL     1      -1.558  12.529  22.360  0.00  0.00    +0.000 C 
ATOM     19  O   UNL     1      -1.290  12.771  23.536  0.00  0.00    +0.000 OA
ATOM     20  N   UNL     1      -0.828  11.629  21.592  0.00  0.00    +0.000 N 
ATOM     21  C   UNL     1       0.187  10.815  22.270  0.00  0.00    +0.000 C 
ATOM     22  C   UNL     1       0.273   9.405  21.655  0.00  0.00    +0.000 C 
ATOM     23  N   UNL     1       0.479   9.520  20.201  0.00  0.00    +0.000 N 
ATOM     24  C   UNL     1      -0.529  10.320  19.489  0.00  0.00    +0.000 C 
ATOM     25  C   UNL     1      -0.632  11.717  20.131  0.00  0.00    +0.000 C 
BRANCH  23  26
ATOM     26  C   UNL     1       1.370   8.714  19.526  0.00  0.00    +0.000 A 
ATOM     27  C   UNL     1       1.817   9.016  18.230  0.00  0.00    +0.000 A 
ATOM     28  C   UNL     1       2.669   8.157  17.528  0.00  0.00    +0.000 A 
ATOM     29  C   UNL     1       3.094   6.969  18.110  0.00  0.00    +0.000 A 
ATOM     30  C   UNL     1       2.675   6.646  19.394  0.00  0.00    +0.000 A 
ATOM     31  C   UNL     1       1.827   7.513  20.089  0.00  0.00    +0.000 A 
ENDBRANCH  23  26
ENDBRANCH  15  18
BRANCH   1  33
ATOM     32  C   UNL     1      -3.983  11.525  17.154  0.00  0.00    +0.000 C 
ATOM     33  C   UNL     1      -4.596  11.165  18.496  0.00  0.00    +0.000 C 
ENDBRANCH   1  33
TORSDOF 3
ENDMDL
MODEL 3
REMARK VINA RESULT:      -7.3      1.081      1.530
REMARK  Name = 
REMARK  4 active torsions:
REMARK  status: ('A' for Active; 'I' for Inactive)
REMARK    1  A    between atoms: C_1  and  C_2
REMARK    2  A    between atoms: C_2  and  N_3
REMARK    3  A    between atoms: C_17  and  C_18
REMARK    4  A    between atoms: N_23  and  C_24
REMARK                            x       y       z     vdW  Elec       q    Type
REMARK                         _______ _______ _______ _____ _____    ______ ____
ROOT
ATOM      1  N   UNL     1      -4.108  13.430  22.312  0.00  0.00    +0.000 N 
ATOM      2  C   UNL     1      -4.629  14.020  23.464  0.00  0.00    +0.000 C 
ATOM      3  O   UNL     1      -5.566  13.539  24.105  0.00  0.00    +0.000 OA
ATOM      4  C   UNL     1      -4.294  15.426  23.708  0.00  0.00    +0.000 A 
ATOM      5  C   UNL     1      -5.346  16.353  23.662  0.00  0.00    +0.000 A 
ATOM      6  C   UNL     1      -5.087  17.708  23.834  0.00  0.00    +0.000 A 
ATOM      7  C   UNL     1      -3.780  18.132  24.051  0.00  0.00    +0.000 A 
ATOM      8  C   UNL     1      -2.740  17.201  24.138  0.00  0.00    +0.000 A 
ATOM      9  C   UNL     1      -2.997  15.833  23.982  0.00  0.00    +0.000 A 
ATOM     10  S   UNL     1      -1.756  14.600  24.339  0.00  0.00    +0.000 S 
ATOM     11  O   UNL     1      -0.420  15.373  24.642  0.00  0.00    +0.000 OA
ATOM     12  C   UNL     1      -1.637  13.949  22.652  0.00  0.00    +0.000 A 
ATOM     13  C   UNL     1      -0.319  13.850  22.136  0.00  0.00    +0.000 A 
ATOM     14  C   UNL     1      -0.039  13.194  20.940  0.00  0.00    +0.000 A 
ATOM     15  C   UNL     1      -1.076  12.593  20.246  0.00  0.00    +0.000 A 
ATOM     16  C   UNL     1      -2.376  12.673  20.762  0.00  0.00    +0.000 A 
ATOM     17  C   UNL     1      -2.716  13.395  21.925  0.00  0.00    +0.000 A 
ENDROOT
BRANCH  15  18
ATOM     18  C   UNL     1      -0.774  11.730  19.074  0.00  0.00    +0.000 C 
ATOM     19  O   UNL     1      -1.067  12.159  17.958  0.00  0.00    +0.000 OA
ATOM     20  N   UNL     1      -0.087  10.536  19.263  0.00  0.00    +0.000 N 
ATOM     21  C   UNL     1       0.456   9.862  18.078  0.00  0.00    +0.000 C 
ATOM     22  C   UNL     1       1.796   9.172  18.394  0.00  0.00    +0.000 C 
ATOM     23  N   UNL     1       1.625   8.283  19.556  0.00  0.00    +0.000 N 
ATOM     24  C   UNL     1       1.095   8.932  20.765  0.00  0.00    +0.000 C 
ATOM     25  C   UNL     1      -0.230   9.647  20.433  0.00  0.00    +0.000 C 
BRANCH  23  26
ATOM     26  C   UNL     1       2.182   7.024  19.598  0.00  0.00    +0.000 A 
ATOM     27  C   UNL     1       1.798   6.068  20.552  0.00  0.00    +0.000 A 
ATOM     28  C   UNL     1       2.415   4.816  20.628  0.00  0.00    +0.000 A 
ATOM     29  C   UNL     1       3.439   4.490  19.746  0.00  0.00    +0.000 A 
ATOM     30  C   UNL     1       3.836   5.411  18.786  0.00  0.00    +0.000 A 
ATOM     31  C   UNL     1       3.210   6.659  18.715  0.00  0.00    +0.000 A 
ENDBRANCH  23  26
ENDBRANCH  15  18
BRANCH   1  33
ATOM     32  C   UNL     1      -5.883  13.907  20.604  0.00  0.00    +0.000 C 
ATOM     33  C   UNL     1      -5.149  12.869  21.435  0.00  0.00    +0.000 C 
ENDBRANCH   1  33
TORSDOF 3
ENDMDL
MODEL 4
REMARK VINA RESULT:      -7.3      2.464      4.047
REMARK  Name = 
REMARK  4 active torsions:
REMARK  status: ('A' for Active; 'I' for Inactive)
REMARK    1  A    between atoms: C_1  and  C_2
REMARK    2  A    between atoms: C_2  and  N_3
REMARK    3  A    between atoms: C_17  and  C_18
REMARK    4  A    between atoms: N_23  and  C_24
REMARK                            x       y       z     vdW  Elec       q    Type
REMARK                         _______ _______ _______ _____ _____    ______ ____
ROOT
ATOM      1  N   UNL     1      -4.827  12.040  19.062  0.00  0.00    +0.000 N 
ATOM      2  C   UNL     1      -6.112  12.231  18.553  0.00  0.00    +0.000 C 
ATOM      3  O   UNL     1      -6.831  11.306  18.169  0.00  0.00    +0.000 OA
ATOM      4  C   UNL     1      -6.472  13.588  18.130  0.00  0.00    +0.000 A 
ATOM      5  C   UNL     1      -6.712  13.791  16.763  0.00  0.00    +0.000 A 
ATOM      6  C   UNL     1      -7.008  15.064  16.291  0.00  0.00    +0.000 A 
ATOM      7  C   UNL     1      -7.063  16.129  17.184  0.00  0.00    +0.000 A 
ATOM      8  C   UNL     1      -6.865  15.916  18.552  0.00  0.00    +0.000 A 
ATOM      9  C   UNL     1      -6.583  14.632  19.037  0.00  0.00    +0.000 A 
ATOM     10  S   UNL     1      -6.580  14.270  20.784  0.00  0.00    +0.000 S 
ATOM     11  O   UNL     1      -6.758  15.642  21.534  0.00  0.00    +0.000 OA
ATOM     12  C   UNL     1      -4.828  13.819  20.887  0.00  0.00    +0.000 A 
ATOM     13  C   UNL     1      -4.099  14.463  21.919  0.00  0.00    +0.000 A 
ATOM     14  C   UNL     1      -2.801  14.087  22.256  0.00  0.00    +0.000 A 
ATOM     15  C   UNL     1      -2.213  13.030  21.582  0.00  0.00    +0.000 A 
ATOM     16  C   UNL     1      -2.937  12.379  20.575  0.00  0.00    +0.000 A 
ATOM     17  C   UNL     1      -4.221  12.778  20.147  0.00  0.00    +0.000 A 
ENDROOT
BRANCH  15  18
ATOM     18  C   UNL     1      -0.910  12.492  22.052  0.00  0.00    +0.000 C 
ATOM     19  O   UNL     1      -0.494  12.876  23.145  0.00  0.00    +0.000 OA
ATOM     20  N   UNL     1      -0.266  11.512  21.305  0.00  0.00    +0.000 N 
ATOM     21  C   UNL     1       0.849  10.793  21.933  0.00  0.00    +0.000 C 
ATOM     22  C   UNL     1       0.887   9.321  21.484  0.00  0.00    +0.000 C 
ATOM     23  N   UNL     1       0.897   9.261  20.012  0.00  0.00    +0.000 N 
ATOM     24  C   UNL     1      -0.215   9.961  19.352  0.00  0.00    +0.000 C 
ATOM     25  C   UNL     1      -0.267  11.424  19.832  0.00  0.00    +0.000 C 
BRANCH  23  26
ATOM     26  C   UNL     1       1.710   8.386  19.324  0.00  0.00    +0.000 A 
ATOM     27  C   UNL     1       2.133   7.168  19.877  0.00  0.00    +0.000 A 
ATOM     28  C   UNL     1       3.011   6.317  19.198  0.00  0.00    +0.000 A 
ATOM     29  C   UNL     1       3.489   6.670  17.941  0.00  0.00    +0.000 A 
ATOM     30  C   UNL     1       3.082   7.866  17.363  0.00  0.00    +0.000 A 
ATOM     31  C   UNL     1       2.201   8.707  18.050  0.00  0.00    +0.000 A 
ENDBRANCH  23  26
ENDBRANCH  15  18
BRANCH   1  33
ATOM     32  C   UNL     1      -3.554  11.480  16.974  0.00  0.00    +0.000 C 
ATOM     33  C   UNL     1      -4.066  11.018  18.327  0.00  0.00    +0.000 C 
ENDBRANCH   1  33
TORSDOF 3
ENDMDL
MODEL 5
REMARK VINA RESULT:      -7.3      2.777      4.301
REMARK  Name = 
REMARK  4 active torsions:
REMARK  status: ('A' for Active; 'I' for Inactive)
REMARK    1  A    between atoms: C_1  and  C_2
REMARK    2  A    between atoms: C_2  and  N_3
REMARK    3  A    between atoms: C_17  and  C_18
REMARK    4  A    between atoms: N_23  and  C_24
REMARK                            x       y       z     vdW  Elec       q    Type
REMARK                         _______ _______ _______ _____ _____    ______ ____
ROOT
ATOM      1  N   UNL     1      -5.680  12.782  19.306  0.00  0.00    +0.000 N 
ATOM      2  C   UNL     1      -6.889  13.148  18.714  0.00  0.00    +0.000 C 
ATOM      3  O   UNL     1      -7.776  12.338  18.435  0.00  0.00    +0.000 OA
ATOM      4  C   UNL     1      -6.955  14.468  18.082  0.00  0.00    +0.000 A 
ATOM      5  C   UNL     1      -7.125  14.505  16.690  0.00  0.00    +0.000 A 
ATOM      6  C   UNL     1      -7.144  15.725  16.024  0.00  0.00    +0.000 A 
ATOM      7  C   UNL     1      -6.994  16.902  16.748  0.00  0.00    +0.000 A 
ATOM      8  C   UNL     1      -6.867  16.864  18.140  0.00  0.00    +0.000 A 
ATOM      9  C   UNL     1      -6.864  15.639  18.820  0.00  0.00    +0.000 A 
ATOM     10  S   UNL     1      -6.964  15.555  20.600  0.00  0.00    +0.000 S 
ATOM     11  O   UNL     1      -6.869  17.032  21.132  0.00  0.00    +0.000 OA
ATOM     12  C   UNL     1      -5.344  14.781  20.850  0.00  0.00    +0.000 A 
ATOM     13  C   UNL     1      -4.515  15.415  21.811  0.00  0.00    +0.000 A 
ATOM     14  C   UNL     1      -3.329  14.842  22.260  0.00  0.00    +0.000 A 
ATOM     15  C   UNL     1      -2.960  13.598  21.776  0.00  0.00    +0.000 A 
ATOM     16  C   UNL     1      -3.786  12.960  20.841  0.00  0.00    +0.000 A 
ATOM     17  C   UNL     1      -4.953  13.540  20.299  0.00  0.00    +0.000 A 
ENDROOT
BRANCH  15  18
ATOM     18  C   UNL     1      -1.803  12.887  22.381  0.00  0.00    +0.000 C 
ATOM     19  O   UNL     1      -1.581  13.071  23.577  0.00  0.00    +0.000 OA
ATOM     20  N   UNL     1      -1.087  11.973  21.615  0.00  0.00    +0.000 N 
ATOM     21  C   UNL     1      -0.156  11.077  22.311  0.00  0.00    +0.000 C 
ATOM     22  C   UNL     1      -0.118   9.688  21.648  0.00  0.00    +0.000 C 
ATOM     23  N   UNL     1       0.168   9.841  20.211  0.00  0.00    +0.000 N 
ATOM     24  C   UNL     1      -0.756  10.723  19.482  0.00  0.00    +0.000 C 
ATOM     25  C   UNL     1      -0.813  12.101  20.171  0.00  0.00    +0.000 C 
BRANCH  23  26
ATOM     26  C   UNL     1       1.044   9.008  19.550  0.00  0.00    +0.000 A 
ATOM     27  C   UNL     1       1.588   7.865  20.155  0.00  0.00    +0.000 A 
ATOM     28  C   UNL     1       2.528   7.063  19.499  0.00  0.00    +0.000 A 
ATOM     29  C   UNL     1       2.947   7.390  18.216  0.00  0.00    +0.000 A 
ATOM     30  C   UNL     1       2.421   8.511  17.587  0.00  0.00    +0.000 A 
ATOM     31  C   UNL     1       1.479   9.304  18.250  0.00  0.00    +0.000 A 
ENDBRANCH  23  26
ENDBRANCH  15  18
BRANCH   1  33
ATOM     32  C   UNL     1      -4.543  11.660  17.372  0.00  0.00    +0.000 C 
ATOM     33  C   UNL     1      -5.133  11.528  18.765  0.00  0.00    +0.000 C 
ENDBRANCH   1  33
TORSDOF 3
ENDMDL
MODEL 6
REMARK VINA RESULT:      -6.9      6.462      8.313
REMARK  Name = 
REMARK  4 active torsions:
REMARK  status: ('A' for Active; 'I' for Inactive)
REMARK    1  A    between atoms: C_1  and  C_2
REMARK    2  A    between atoms: C_2  and  N_3
REMARK    3  A    between atoms: C_17  and  C_18
REMARK    4  A    between atoms: N_23  and  C_24
REMARK                            x       y       z     vdW  Elec       q    Type
REMARK                         _______ _______ _______ _____ _____    ______ ____
ROOT
ATOM      1  N   UNL     1      -0.333  14.191  20.757  0.00  0.00    +0.000 N 
ATOM      2  C   UNL     1      -1.378  13.295  20.986  0.00  0.00    +0.000 C 
ATOM      3  O   UNL     1      -2.552  13.646  21.118  0.00  0.00    +0.000 OA
ATOM      4  C   UNL     1      -1.020  11.948  21.440  0.00  0.00    +0.000 A 
ATOM      5  C   UNL     1      -1.419  11.580  22.734  0.00  0.00    +0.000 A 
ATOM      6  C   UNL     1      -1.066  10.335  23.242  0.00  0.00    +0.000 A 
ATOM      7  C   UNL     1      -0.318   9.463  22.459  0.00  0.00    +0.000 A 
ATOM      8  C   UNL     1       0.042   9.817  21.154  0.00  0.00    +0.000 A 
ATOM      9  C   UNL     1      -0.325  11.063  20.629  0.00  0.00    +0.000 A 
ATOM     10  S   UNL     1      -0.114  11.450  18.900  0.00  0.00    +0.000 S 
ATOM     11  O   UNL     1       0.671  10.248  18.256  0.00  0.00    +0.000 OA
ATOM     12  C   UNL     1       1.068  12.802  19.145  0.00  0.00    +0.000 A 
ATOM     13  C   UNL     1       2.248  12.721  18.361  0.00  0.00    +0.000 A 
ATOM     14  C   UNL     1       3.160  13.770  18.286  0.00  0.00    +0.000 A 
ATOM     15  C   UNL     1       2.895  14.941  18.974  0.00  0.00    +0.000 A 
ATOM     16  C   UNL     1       1.721  15.032  19.735  0.00  0.00    +0.000 A 
ATOM     17  C   UNL     1       0.811  13.967  19.904  0.00  0.00    +0.000 A 
ENDROOT
BRANCH  15  18
ATOM     18  C   UNL     1       3.755  16.134  18.756  0.00  0.00    +0.000 C 
ATOM     19  O   UNL     1       3.245  17.242  18.915  0.00  0.00    +0.000 OA
ATOM     20  N   UNL     1       5.108  15.960  18.487  0.00  0.00    +0.000 N 
ATOM     21  C   UNL     1       5.980  17.137  18.574  0.00  0.00    +0.000 C 
ATOM     22  C   UNL     1       7.372  16.761  19.115  0.00  0.00    +0.000 C 
ATOM     23  N   UNL     1       7.931  15.667  18.302  0.00  0.00    +0.000 N 
ATOM     24  C   UNL     1       7.087  14.467  18.206  0.00  0.00    +0.000 C 
ATOM     25  C   UNL     1       5.685  14.856  17.695  0.00  0.00    +0.000 C 
BRANCH  23  26
ATOM     26  C   UNL     1       9.251  15.654  17.906  0.00  0.00    +0.000 A 
ATOM     27  C   UNL     1       9.975  14.461  17.756  0.00  0.00    +0.000 A 
ATOM     28  C   UNL     1      11.332  14.461  17.419  0.00  0.00    +0.000 A 
ATOM     29  C   UNL     1      12.000  15.664  17.224  0.00  0.00    +0.000 A 
ATOM     30  C   UNL     1      11.310  16.862  17.358  0.00  0.00    +0.000 A 
ATOM     31  C   UNL     1       9.952  16.850  17.692  0.00  0.00    +0.000 A 
ENDBRANCH  23  26
ENDBRANCH  15  18
BRANCH   1  33
ATOM     32  C   UNL     1      -0.156  15.249  23.025  0.00  0.00    +0.000 C 
ATOM     33  C   UNL     1      -0.455  15.426  21.547  0.00  0.00    +0.000 C 
ENDBRANCH   1  33
TORSDOF 3
ENDMDL
MODEL 7
REMARK VINA RESULT:      -6.8      3.923     11.175
REMARK  Name = 
REMARK  4 active torsions:
REMARK  status: ('A' for Active; 'I' for Inactive)
REMARK    1  A    between atoms: C_1  and  C_2
REMARK    2  A    between atoms: C_2  and  N_3
REMARK    3  A    between atoms: C_17  and  C_18
REMARK    4  A    between atoms: N_23  and  C_24
REMARK                            x       y       z     vdW  Elec       q    Type
REMARK                         _______ _______ _______ _____ _____    ______ ____
ROOT
ATOM      1  N   UNL     1       4.261   6.108  18.641  0.00  0.00    +0.000 N 
ATOM      2  C   UNL     1       4.891   4.875  18.812  0.00  0.00    +0.000 C 
ATOM      3  O   UNL     1       6.116   4.733  18.791  0.00  0.00    +0.000 OA
ATOM      4  C   UNL     1       4.068   3.672  18.651  0.00  0.00    +0.000 A 
ATOM      5  C   UNL     1       4.368   2.830  17.569  0.00  0.00    +0.000 A 
ATOM      6  C   UNL     1       3.593   1.701  17.332  0.00  0.00    +0.000 A 
ATOM      7  C   UNL     1       2.523   1.417  18.173  0.00  0.00    +0.000 A 
ATOM      8  C   UNL     1       2.252   2.236  19.274  0.00  0.00    +0.000 A 
ATOM      9  C   UNL     1       3.040   3.366  19.529  0.00  0.00    +0.000 A 
ATOM     10  S   UNL     1       2.895   4.284  21.053  0.00  0.00    +0.000 S 
ATOM     11  O   UNL     1       1.671   3.679  21.836  0.00  0.00    +0.000 OA
ATOM     12  C   UNL     1       2.342   5.835  20.295  0.00  0.00    +0.000 A 
ATOM     13  C   UNL     1       1.180   6.407  20.872  0.00  0.00    +0.000 A 
ATOM     14  C   UNL     1       0.739   7.685  20.538  0.00  0.00    +0.000 A 
ATOM     15  C   UNL     1       1.475   8.434  19.636  0.00  0.00    +0.000 A 
ATOM     16  C   UNL     1       2.635   7.879  19.078  0.00  0.00    +0.000 A 
ATOM     17  C   UNL     1       3.072   6.561  19.326  0.00  0.00    +0.000 A 
ENDROOT
BRANCH  15  18
ATOM     18  C   UNL     1       1.130   9.862  19.412  0.00  0.00    +0.000 C 
ATOM     19  O   UNL     1       1.409  10.352  18.318  0.00  0.00    +0.000 OA
ATOM     20  N   UNL     1       0.423  10.556  20.388  0.00  0.00    +0.000 N 
ATOM     21  C   UNL     1      -0.158  11.853  20.022  0.00  0.00    +0.000 C 
ATOM     22  C   UNL     1      -1.505  12.080  20.732  0.00  0.00    +0.000 C 
ATOM     23  N   UNL     1      -1.328  11.898  22.183  0.00  0.00    +0.000 N 
ATOM     24  C   UNL     1      -0.759  10.602  22.584  0.00  0.00    +0.000 C 
ATOM     25  C   UNL     1       0.572  10.367  21.844  0.00  0.00    +0.000 C 
BRANCH  23  26
ATOM     26  C   UNL     1      -1.910  12.746  23.100  0.00  0.00    +0.000 A 
ATOM     27  C   UNL     1      -3.212  12.544  23.584  0.00  0.00    +0.000 A 
ATOM     28  C   UNL     1      -3.818  13.446  24.464  0.00  0.00    +0.000 A 
ATOM     29  C   UNL     1      -3.131  14.579  24.881  0.00  0.00    +0.000 A 
ATOM     30  C   UNL     1      -1.838  14.803  24.427  0.00  0.00    +0.000 A 
ATOM     31  C   UNL     1      -1.239  13.893  23.550  0.00  0.00    +0.000 A 
ENDBRANCH  23  26
ENDBRANCH  15  18
BRANCH   1  33
ATOM     32  C   UNL     1       4.814   6.347  16.205  0.00  0.00    +0.000 C 
ATOM     33  C   UNL     1       4.896   6.936  17.603  0.00  0.00    +0.000 C 
ENDBRANCH   1  33
TORSDOF 3
ENDMDL
MODEL 8
REMARK VINA RESULT:      -6.5      1.603      2.145
REMARK  Name = 
REMARK  4 active torsions:
REMARK  status: ('A' for Active; 'I' for Inactive)
REMARK    1  A    between atoms: C_1  and  C_2
REMARK    2  A    between atoms: C_2  and  N_3
REMARK    3  A    between atoms: C_17  and  C_18
REMARK    4  A    between atoms: N_23  and  C_24
REMARK                            x       y       z     vdW  Elec       q    Type
REMARK                         _______ _______ _______ _____ _____    ______ ____
ROOT
ATOM      1  N   UNL     1      -2.990  13.667  23.121  0.00  0.00    +0.000 N 
ATOM      2  C   UNL     1      -3.136  14.406  24.295  0.00  0.00    +0.000 C 
ATOM      3  O   UNL     1      -3.465  13.905  25.372  0.00  0.00    +0.000 OA
ATOM      4  C   UNL     1      -3.253  15.861  24.162  0.00  0.00    +0.000 A 
ATOM      5  C   UNL     1      -4.475  16.443  24.531  0.00  0.00    +0.000 A 
ATOM      6  C   UNL     1      -4.667  17.811  24.381  0.00  0.00    +0.000 A 
ATOM      7  C   UNL     1      -3.641  18.593  23.863  0.00  0.00    +0.000 A 
ATOM      8  C   UNL     1      -2.409  18.017  23.534  0.00  0.00    +0.000 A 
ATOM      9  C   UNL     1      -2.203  16.641  23.699  0.00  0.00    +0.000 A 
ATOM     10  S   UNL     1      -0.582  15.911  23.541  0.00  0.00    +0.000 S 
ATOM     11  O   UNL     1       0.383  17.048  23.038  0.00  0.00    +0.000 OA
ATOM     12  C   UNL     1      -0.978  14.864  22.115  0.00  0.00    +0.000 A 
ATOM     13  C   UNL     1      -0.071  14.959  21.028  0.00  0.00    +0.000 A 
ATOM     14  C   UNL     1      -0.121  14.086  19.944  0.00  0.00    +0.000 A 
ATOM     15  C   UNL     1      -1.066  13.074  19.941  0.00  0.00    +0.000 A 
ATOM     16  C   UNL     1      -1.951  12.966  21.022  0.00  0.00    +0.000 A 
ATOM     17  C   UNL     1      -1.989  13.876  22.099  0.00  0.00    +0.000 A 
ENDROOT
BRANCH  15  18
ATOM     18  C   UNL     1      -1.013  12.022  18.892  0.00  0.00    +0.000 C 
ATOM     19  O   UNL     1      -1.544  12.267  17.809  0.00  0.00    +0.000 OA
ATOM     20  N   UNL     1      -0.289  10.858  19.128  0.00  0.00    +0.000 N 
ATOM     21  C   UNL     1      -0.006   9.984  17.984  0.00  0.00    +0.000 C 
ATOM     22  C   UNL     1       1.378   9.322  18.116  0.00  0.00    +0.000 C 
ATOM     23  N   UNL     1       1.470   8.642  19.420  0.00  0.00    +0.000 N 
ATOM     24  C   UNL     1       1.205   9.495  20.588  0.00  0.00    +0.000 C 
ATOM     25  C   UNL     1      -0.167  10.179  20.432  0.00  0.00    +0.000 C 
BRANCH  23  26
ATOM     26  C   UNL     1       2.037   7.393  19.552  0.00  0.00    +0.000 A 
ATOM     27  C   UNL     1       2.961   6.890  18.623  0.00  0.00    +0.000 A 
ATOM     28  C   UNL     1       3.481   5.596  18.729  0.00  0.00    +0.000 A 
ATOM     29  C   UNL     1       3.083   4.770  19.773  0.00  0.00    +0.000 A 
ATOM     30  C   UNL     1       2.175   5.241  20.713  0.00  0.00    +0.000 A 
ATOM     31  C   UNL     1       1.665   6.538  20.600  0.00  0.00    +0.000 A 
ENDBRANCH  23  26
ENDBRANCH  15  18
BRANCH   1  33
ATOM     32  C   UNL     1      -5.370  13.185  22.492  0.00  0.00    +0.000 C 
ATOM     33  C   UNL     1      -4.031  12.640  22.957  0.00  0.00    +0.000 C 
ENDBRANCH   1  33
TORSDOF 3
ENDMDL
MODEL 9
REMARK VINA RESULT:      -6.5      2.499      4.020
REMARK  Name = 
REMARK  4 active torsions:
REMARK  status: ('A' for Active; 'I' for Inactive)
REMARK    1  A    between atoms: C_1  and  C_2
REMARK    2  A    between atoms: C_2  and  N_3
REMARK    3  A    between atoms: C_17  and  C_18
REMARK    4  A    between atoms: N_23  and  C_24
REMARK                            x       y       z     vdW  Elec       q    Type
REMARK                         _______ _______ _______ _____ _____    ______ ____
ROOT
ATOM      1  N   UNL     1      -0.419  15.948  21.379  0.00  0.00    +0.000 N 
ATOM      2  C   UNL     1      -0.594  17.015  22.260  0.00  0.00    +0.000 C 
ATOM      3  O   UNL     1      -0.320  18.182  21.971  0.00  0.00    +0.000 OA
ATOM      4  C   UNL     1      -0.766  16.693  23.680  0.00  0.00    +0.000 A 
ATOM      5  C   UNL     1       0.245  17.109  24.559  0.00  0.00    +0.000 A 
ATOM      6  C   UNL     1       0.166  16.790  25.910  0.00  0.00    +0.000 A 
ATOM      7  C   UNL     1      -0.919  16.057  26.377  0.00  0.00    +0.000 A 
ATOM      8  C   UNL     1      -1.946  15.679  25.506  0.00  0.00    +0.000 A 
ATOM      9  C   UNL     1      -1.881  16.013  24.146  0.00  0.00    +0.000 A 
ATOM     10  S   UNL     1      -3.277  15.781  23.058  0.00  0.00    +0.000 S 
ATOM     11  O   UNL     1      -4.378  15.019  23.884  0.00  0.00    +0.000 OA
ATOM     12  C   UNL     1      -2.478  14.568  21.972  0.00  0.00    +0.000 A 
ATOM     13  C   UNL     1      -3.225  13.386  21.737  0.00  0.00    +0.000 A 
ATOM     14  C   UNL     1      -2.845  12.448  20.780  0.00  0.00    +0.000 A 
ATOM     15  C   UNL     1      -1.718  12.691  20.013  0.00  0.00    +0.000 A 
ATOM     16  C   UNL     1      -0.989  13.867  20.230  0.00  0.00    +0.000 A 
ATOM     17  C   UNL     1      -1.291  14.803  21.241  0.00  0.00    +0.000 A 
ENDROOT
BRANCH  15  18
ATOM     18  C   UNL     1      -1.405  11.801  18.864  0.00  0.00    +0.000 C 
ATOM     19  O   UNL     1      -1.834  12.125  17.757  0.00  0.00    +0.000 OA
ATOM     20  N   UNL     1      -0.566  10.709  19.055  0.00  0.00    +0.000 N 
ATOM     21  C   UNL     1      -0.038  10.034  17.863  0.00  0.00    +0.000 C 
ATOM     22  C   UNL     1       1.396   9.526  18.099  0.00  0.00    +0.000 C 
ATOM     23  N   UNL     1       1.425   8.694  19.314  0.00  0.00    +0.000 N 
ATOM     24  C   UNL     1       0.916   9.347  20.529  0.00  0.00    +0.000 C 
ATOM     25  C   UNL     1      -0.507   9.881  20.275  0.00  0.00    +0.000 C 
BRANCH  23  26
ATOM     26  C   UNL     1       2.133   7.513  19.371  0.00  0.00    +0.000 A 
ATOM     27  C   UNL     1       3.060   7.149  18.382  0.00  0.00    +0.000 A 
ATOM     28  C   UNL     1       3.724   5.918  18.414  0.00  0.00    +0.000 A 
ATOM     29  C   UNL     1       3.474   5.019  19.443  0.00  0.00    +0.000 A 
ATOM     30  C   UNL     1       2.568   5.354  20.442  0.00  0.00    +0.000 A 
ATOM     31  C   UNL     1       1.912   6.588  20.402  0.00  0.00    +0.000 A 
ENDBRANCH  23  26
ENDBRANCH  15  18
BRANCH   1  33
ATOM     32  C   UNL     1       2.068  15.619  21.363  0.00  0.00    +0.000 C 
ATOM     33  C   UNL     1       0.825  16.046  20.601  0.00  0.00    +0.000 C 
ENDBRANCH   1  33
TORSDOF 3
ENDMDL
