MODEL 1
REMARK VINA RESULT:      -8.5      0.000      0.000
REMARK  Name = 
REMARK  4 active torsions:
REMARK  status: ('A' for Active; 'I' for Inactive)
REMARK    1  A    between atoms: N_3  and  C_4
REMARK    2  A    between atoms: C_7  and  S_8
REMARK    3  A    between atoms: S_8  and  C_9
REMARK    4  A    between atoms: C_18  and  C_19
REMARK                            x       y       z     vdW  Elec       q    Type
REMARK                         _______ _______ _______ _____ _____    ______ ____
ROOT
ATOM      1  O   UNL     1       2.050   9.158  22.634  0.00  0.00    +0.000 OA
ATOM      2  C   UNL     1       1.259   9.437  21.734  0.00  0.00    +0.000 C 
ATOM      3  N   UNL     1       1.083   8.733  20.573  0.00  0.00    +0.000 N 
ATOM      4  N   UNL     1       0.495  10.552  21.911  0.00  0.00    +0.000 N 
ATOM      5  C   UNL     1      -0.459  11.025  21.070  0.00  0.00    +0.000 A 
ATOM      6  N   UNL     1      -0.792  10.575  19.886  0.00  0.00    +0.000 NA
ATOM      7  C   UNL     1      -1.872  11.307  19.414  0.00  0.00    +0.000 A 
ATOM      8  C   UNL     1      -2.290  12.332  20.246  0.00  0.00    +0.000 A 
ATOM      9  S   UNL     1      -1.326  12.365  21.664  0.00  0.00    +0.000 S 
ATOM     10  H   UNL     1       0.503   9.185  19.872  0.00  0.00    +0.000 HD
ATOM     11  H   UNL     1       0.635  11.028  22.791  0.00  0.00    +0.000 HD
ENDROOT
BRANCH   7  12
ATOM     12  C   UNL     1      -2.500  10.977  18.143  0.00  0.00    +0.000 A 
ATOM     13  C   UNL     1      -1.848  10.175  17.192  0.00  0.00    +0.000 A 
ATOM     14  C   UNL     1      -2.445   9.908  15.956  0.00  0.00    +0.000 A 
ATOM     15  C   UNL     1      -3.695  10.443  15.670  0.00  0.00    +0.000 A 
ATOM     16  F   UNL     1      -4.258  10.193  14.480  0.00  0.00    +0.000 F 
ATOM     17  C   UNL     1      -4.351  11.234  16.605  0.00  0.00    +0.000 A 
ATOM     18  F   UNL     1      -5.555  11.749  16.325  0.00  0.00    +0.000 F 
ATOM     19  C   UNL     1      -3.763  11.505  17.838  0.00  0.00    +0.000 A 
ENDBRANCH   7  12
BRANCH   3  20
ATOM     20  C   UNL     1       1.717   7.527  20.211  0.00  0.00    +0.000 A 
ATOM     21  C   UNL     1       2.584   7.418  19.122  0.00  0.00    +0.000 A 
ATOM     22  C   UNL     1       3.158   6.189  18.785  0.00  0.00    +0.000 A 
ATOM     23  C   UNL     1       2.881   5.048  19.538  0.00  0.00    +0.000 A 
ATOM     24  C   UNL     1       2.020   5.153  20.634  0.00  0.00    +0.000 A 
ATOM     25  C   UNL     1       1.458   6.389  20.980  0.00  0.00    +0.000 A 
BRANCH  23  26
ATOM     26  S   UNL     1       3.552   3.486  19.014  0.00  0.00    +0.000 S 
BRANCH  26  27
ATOM     27  C   UNL     1       2.083   2.657  18.392  0.00  0.00    +0.000 C 
ATOM     28  F   UNL     1       1.379   1.994  19.340  0.00  0.00    +0.000 F 
ATOM     29  F   UNL     1       1.238   3.553  17.826  0.00  0.00    +0.000 F 
ATOM     30  F   UNL     1       2.406   1.756  17.432  0.00  0.00    +0.000 F 
ENDBRANCH  26  27
ENDBRANCH  23  26
ENDBRANCH   3  20
TORSDOF 4
ENDMDL
MODEL 2
REMARK VINA RESULT:      -8.4      0.515      1.129
REMARK  Name = 
REMARK  4 active torsions:
REMARK  status: ('A' for Active; 'I' for Inactive)
REMARK    1  A    between atoms: N_3  and  C_4
REMARK    2  A    between atoms: C_7  and  S_8
REMARK    3  A    between atoms: S_8  and  C_9
REMARK    4  A    between atoms: C_18  and  C_19
REMARK                            x       y       z     vdW  Elec       q    Type
REMARK                         _______ _______ _______ _____ _____    ______ ____
ROOT
ATOM      1  O   UNL     1       2.045   9.207  22.636  0.00  0.00    +0.000 OA
ATOM      2  C   UNL     1       1.251   9.490  21.740  0.00  0.00    +0.000 C 
ATOM      3  N   UNL     1       1.036   8.764  20.599  0.00  0.00    +0.000 N 
ATOM      4  N   UNL     1       0.527  10.632  21.900  0.00  0.00    +0.000 N 
ATOM      5  C   UNL     1      -0.424  11.116  21.060  0.00  0.00    +0.000 A 
ATOM      6  N   UNL     1      -0.788  10.649  19.893  0.00  0.00    +0.000 NA
ATOM      7  C   UNL     1      -1.850  11.404  19.417  0.00  0.00    +0.000 A 
ATOM      8  C   UNL     1      -2.223  12.462  20.229  0.00  0.00    +0.000 A 
ATOM      9  S   UNL     1      -1.239  12.497  21.633  0.00  0.00    +0.000 S 
ATOM     10  H   UNL     1       0.462   9.217  19.895  0.00  0.00    +0.000 HD
ATOM     11  H   UNL     1       0.694  11.125  22.766  0.00  0.00    +0.000 HD
ENDROOT
BRANCH   7  12
ATOM     12  C   UNL     1      -2.506  11.065  18.162  0.00  0.00    +0.000 A 
ATOM     13  C   UNL     1      -1.892  10.221  17.222  0.00  0.00    +0.000 A 
ATOM     14  C   UNL     1      -2.515   9.944  16.001  0.00  0.00    +0.000 A 
ATOM     15  C   UNL     1      -3.752  10.511  15.719  0.00  0.00    +0.000 A 
ATOM     16  F   UNL     1      -4.340  10.251  14.543  0.00  0.00    +0.000 F 
ATOM     17  C   UNL     1      -4.370  11.343  16.644  0.00  0.00    +0.000 A 
ATOM     18  F   UNL     1      -5.561  11.889  16.368  0.00  0.00    +0.000 F 
ATOM     19  C   UNL     1      -3.757  11.625  17.863  0.00  0.00    +0.000 A 
ENDBRANCH   7  12
BRANCH   3  20
ATOM     20  C   UNL     1       1.626   7.530  20.258  0.00  0.00    +0.000 A 
ATOM     21  C   UNL     1       1.399   6.352  20.973  0.00  0.00    +0.000 A 
ATOM     22  C   UNL     1       2.038   5.162  20.613  0.00  0.00    +0.000 A 
ATOM     23  C   UNL     1       2.909   5.128  19.523  0.00  0.00    +0.000 A 
ATOM     24  C   UNL     1       3.134   6.302  18.799  0.00  0.00    +0.000 A 
ATOM     25  C   UNL     1       2.480   7.491  19.151  0.00  0.00    +0.000 A 
BRANCH  23  26
ATOM     26  S   UNL     1       3.779   3.618  19.162  0.00  0.00    +0.000 S 
BRANCH  26  27
ATOM     27  C   UNL     1       2.930   3.064  17.678  0.00  0.00    +0.000 C 
ATOM     28  F   UNL     1       2.859   1.717  17.553  0.00  0.00    +0.000 F 
ATOM     29  F   UNL     1       1.657   3.530  17.658  0.00  0.00    +0.000 F 
ATOM     30  F   UNL     1       3.544   3.536  16.565  0.00  0.00    +0.000 F 
ENDBRANCH  26  27
ENDBRANCH  23  26
ENDBRANCH   3  20
TORSDOF 4
ENDMDL
MODEL 3
REMARK VINA RESULT:      -8.4      0.573      1.464
REMARK  Name = 
REMARK  4 active torsions:
REMARK  status: ('A' for Active; 'I' for Inactive)
REMARK    1  A    between atoms: N_3  and  C_4
REMARK    2  A    between atoms: C_7  and  S_8
REMARK    3  A    between atoms: S_8  and  C_9
REMARK    4  A    between atoms: C_18  and  C_19
REMARK                            x       y       z     vdW  Elec       q    Type
REMARK                         _______ _______ _______ _____ _____    ______ ____
ROOT
ATOM      1  O   UNL     1       1.868   9.353  22.565  0.00  0.00    +0.000 OA
ATOM      2  C   UNL     1       1.080   9.639  21.664  0.00  0.00    +0.000 C 
ATOM      3  N   UNL     1       0.925   8.957  20.487  0.00  0.00    +0.000 N 
ATOM      4  N   UNL     1       0.296  10.736  21.859  0.00  0.00    +0.000 N 
ATOM      5  C   UNL     1      -0.660  11.212  21.020  0.00  0.00    +0.000 A 
ATOM      6  N   UNL     1      -0.975  10.783  19.825  0.00  0.00    +0.000 NA
ATOM      7  C   UNL     1      -2.063  11.507  19.360  0.00  0.00    +0.000 A 
ATOM      8  C   UNL     1      -2.505  12.507  20.210  0.00  0.00    +0.000 A 
ATOM      9  S   UNL     1      -1.553  12.524  21.637  0.00  0.00    +0.000 S 
ATOM     10  H   UNL     1       0.343   9.414  19.791  0.00  0.00    +0.000 HD
ATOM     11  H   UNL     1       0.420  11.196  22.751  0.00  0.00    +0.000 HD
ENDROOT
BRANCH   7  12
ATOM     12  C   UNL     1      -2.676  11.195  18.076  0.00  0.00    +0.000 A 
ATOM     13  C   UNL     1      -3.927  11.723  17.716  0.00  0.00    +0.000 A 
ATOM     14  C   UNL     1      -4.523  11.374  16.501  0.00  0.00    +0.000 A 
ATOM     15  C   UNL     1      -3.870  10.498  15.644  0.00  0.00    +0.000 A 
ATOM     16  F   UNL     1      -4.450  10.158  14.485  0.00  0.00    +0.000 F 
ATOM     17  C   UNL     1      -2.630   9.973  15.988  0.00  0.00    +0.000 A 
ATOM     18  F   UNL     1      -2.004   9.127  15.160  0.00  0.00    +0.000 F 
ATOM     19  C   UNL     1      -2.029  10.314  17.197  0.00  0.00    +0.000 A 
ENDBRANCH   7  12
BRANCH   3  20
ATOM     20  C   UNL     1       1.582   7.770  20.103  0.00  0.00    +0.000 A 
ATOM     21  C   UNL     1       2.402   7.681  18.977  0.00  0.00    +0.000 A 
ATOM     22  C   UNL     1       3.000   6.470  18.622  0.00  0.00    +0.000 A 
ATOM     23  C   UNL     1       2.797   5.326  19.394  0.00  0.00    +0.000 A 
ATOM     24  C   UNL     1       1.982   5.411  20.527  0.00  0.00    +0.000 A 
ATOM     25  C   UNL     1       1.396   6.630  20.891  0.00  0.00    +0.000 A 
BRANCH  23  26
ATOM     26  S   UNL     1       3.494   3.782  18.850  0.00  0.00    +0.000 S 
BRANCH  26  27
ATOM     27  C   UNL     1       2.026   2.896  18.311  0.00  0.00    +0.000 C 
ATOM     28  F   UNL     1       1.058   3.692  17.798  0.00  0.00    +0.000 F 
ATOM     29  F   UNL     1       2.344   1.993  17.351  0.00  0.00    +0.000 F 
ATOM     30  F   UNL     1       1.473   2.207  19.338  0.00  0.00    +0.000 F 
ENDBRANCH  26  27
ENDBRANCH  23  26
ENDBRANCH   3  20
TORSDOF 4
ENDMDL
MODEL 4
REMARK VINA RESULT:      -8.2      0.717      1.828
REMARK  Name = 
REMARK  4 active torsions:
REMARK  status: ('A' for Active; 'I' for Inactive)
REMARK    1  A    between atoms: N_3  and  C_4
REMARK    2  A    between atoms: C_7  and  S_8
REMARK    3  A    between atoms: S_8  and  C_9
REMARK    4  A    between atoms: C_18  and  C_19
REMARK                            x       y       z     vdW  Elec       q    Type
REMARK                         _______ _______ _______ _____ _____    ______ ____
ROOT
ATOM      1  O   UNL     1       1.905   9.285  22.585  0.00  0.00    +0.000 OA
ATOM      2  C   UNL     1       1.120   9.580  21.685  0.00  0.00    +0.000 C 
ATOM      3  N   UNL     1       0.938   8.885  20.519  0.00  0.00    +0.000 N 
ATOM      4  N   UNL     1       0.370  10.703  21.867  0.00  0.00    +0.000 N 
ATOM      5  C   UNL     1      -0.576  11.194  21.026  0.00  0.00    +0.000 A 
ATOM      6  N   UNL     1      -0.911  10.755  19.839  0.00  0.00    +0.000 NA
ATOM      7  C   UNL     1      -1.980  11.503  19.369  0.00  0.00    +0.000 A 
ATOM      8  C   UNL     1      -2.388  12.529  20.206  0.00  0.00    +0.000 A 
ATOM      9  S   UNL     1      -1.427  12.541  21.627  0.00  0.00    +0.000 S 
ATOM     10  H   UNL     1       0.366   9.348  19.819  0.00  0.00    +0.000 HD
ATOM     11  H   UNL     1       0.513  11.172  22.750  0.00  0.00    +0.000 HD
ENDROOT
BRANCH   7  12
ATOM     12  C   UNL     1      -2.610  11.190  18.094  0.00  0.00    +0.000 A 
ATOM     13  C   UNL     1      -3.859  11.727  17.744  0.00  0.00    +0.000 A 
ATOM     14  C   UNL     1      -4.472  11.377  16.537  0.00  0.00    +0.000 A 
ATOM     15  C   UNL     1      -3.836  10.490  15.679  0.00  0.00    +0.000 A 
ATOM     16  F   UNL     1      -4.432  10.149  14.528  0.00  0.00    +0.000 F 
ATOM     17  C   UNL     1      -2.598   9.955  16.012  0.00  0.00    +0.000 A 
ATOM     18  F   UNL     1      -1.988   9.098  15.183  0.00  0.00    +0.000 F 
ATOM     19  C   UNL     1      -1.980  10.298  17.213  0.00  0.00    +0.000 A 
ENDBRANCH   7  12
BRANCH   3  20
ATOM     20  C   UNL     1       1.558   7.673  20.151  0.00  0.00    +0.000 A 
ATOM     21  C   UNL     1       1.413   6.491  20.879  0.00  0.00    +0.000 A 
ATOM     22  C   UNL     1       2.079   5.325  20.489  0.00  0.00    +0.000 A 
ATOM     23  C   UNL     1       2.895   5.320  19.357  0.00  0.00    +0.000 A 
ATOM     24  C   UNL     1       3.037   6.500  18.620  0.00  0.00    +0.000 A 
ATOM     25  C   UNL     1       2.355   7.663  19.003  0.00  0.00    +0.000 A 
BRANCH  23  26
ATOM     26  S   UNL     1       3.803   3.845  18.955  0.00  0.00    +0.000 S 
BRANCH  26  27
ATOM     27  C   UNL     1       2.773   3.130  17.667  0.00  0.00    +0.000 C 
ATOM     28  F   UNL     1       3.111   3.514  16.413  0.00  0.00    +0.000 F 
ATOM     29  F   UNL     1       2.846   1.777  17.699  0.00  0.00    +0.000 F 
ATOM     30  F   UNL     1       1.472   3.462  17.849  0.00  0.00    +0.000 F 
ENDBRANCH  26  27
ENDBRANCH  23  26
ENDBRANCH   3  20
TORSDOF 4
ENDMDL
MODEL 5
REMARK VINA RESULT:      -7.8      2.038      2.632
REMARK  Name = 
REMARK  4 active torsions:
REMARK  status: ('A' for Active; 'I' for Inactive)
REMARK    1  A    between atoms: N_3  and  C_4
REMARK    2  A    between atoms: C_7  and  S_8
REMARK    3  A    between atoms: S_8  and  C_9
REMARK    4  A    between atoms: C_18  and  C_19
REMARK                            x       y       z     vdW  Elec       q    Type
REMARK                         _______ _______ _______ _____ _____    ______ ____
ROOT
ATOM      1  O   UNL     1       1.936   9.332  22.431  0.00  0.00    +0.000 OA
ATOM      2  C   UNL     1       1.130   9.628  21.550  0.00  0.00    +0.000 C 
ATOM      3  N   UNL     1       1.005   9.011  20.334  0.00  0.00    +0.000 N 
ATOM      4  N   UNL     1       0.290  10.669  21.811  0.00  0.00    +0.000 N 
ATOM      5  C   UNL     1      -0.694  11.142  21.004  0.00  0.00    +0.000 A 
ATOM      6  N   UNL     1      -0.992  10.769  19.785  0.00  0.00    +0.000 NA
ATOM      7  C   UNL     1      -2.119  11.460  19.366  0.00  0.00    +0.000 A 
ATOM      8  C   UNL     1      -2.609  12.383  20.275  0.00  0.00    +0.000 A 
ATOM      9  S   UNL     1      -1.653  12.366  21.699  0.00  0.00    +0.000 S 
ATOM     10  H   UNL     1       0.397   9.477  19.667  0.00  0.00    +0.000 HD
ATOM     11  H   UNL     1       0.394  11.080  22.728  0.00  0.00    +0.000 HD
ENDROOT
BRANCH   7  12
ATOM     12  C   UNL     1      -2.720  11.193  18.067  0.00  0.00    +0.000 A 
ATOM     13  C   UNL     1      -3.956  11.754  17.705  0.00  0.00    +0.000 A 
ATOM     14  C   UNL     1      -4.542  11.448  16.473  0.00  0.00    +0.000 A 
ATOM     15  C   UNL     1      -3.895  10.582  15.603  0.00  0.00    +0.000 A 
ATOM     16  F   UNL     1      -4.466  10.283  14.428  0.00  0.00    +0.000 F 
ATOM     17  C   UNL     1      -2.670  10.024  15.948  0.00  0.00    +0.000 A 
ATOM     18  F   UNL     1      -2.049   9.187  15.107  0.00  0.00    +0.000 F 
ATOM     19  C   UNL     1      -2.078  10.323  17.174  0.00  0.00    +0.000 A 
ENDBRANCH   7  12
BRANCH   3  20
ATOM     20  C   UNL     1       1.722   7.885  19.879  0.00  0.00    +0.000 A 
ATOM     21  C   UNL     1       1.835   6.704  20.615  0.00  0.00    +0.000 A 
ATOM     22  C   UNL     1       2.589   5.630  20.133  0.00  0.00    +0.000 A 
ATOM     23  C   UNL     1       3.236   5.716  18.901  0.00  0.00    +0.000 A 
ATOM     24  C   UNL     1       3.120   6.894  18.156  0.00  0.00    +0.000 A 
ATOM     25  C   UNL     1       2.350   7.963  18.633  0.00  0.00    +0.000 A 
BRANCH  23  26
ATOM     26  S   UNL     1       4.267   4.366  18.372  0.00  0.00    +0.000 S 
BRANCH  26  27
ATOM     27  C   UNL     1       5.901   5.111  18.452  0.00  0.00    +0.000 C 
ATOM     28  F   UNL     1       6.074   6.155  17.608  0.00  0.00    +0.000 F 
ATOM     29  F   UNL     1       6.151   5.569  19.704  0.00  0.00    +0.000 F 
ATOM     30  F   UNL     1       6.862   4.200  18.163  0.00  0.00    +0.000 F 
ENDBRANCH  26  27
ENDBRANCH  23  26
ENDBRANCH   3  20
TORSDOF 4
ENDMDL
MODEL 6
REMARK VINA RESULT:      -7.6      1.969      2.311
REMARK  Name = 
REMARK  4 active torsions:
REMARK  status: ('A' for Active; 'I' for Inactive)
REMARK    1  A    between atoms: N_3  and  C_4
REMARK    2  A    between atoms: C_7  and  S_8
REMARK    3  A    between atoms: S_8  and  C_9
REMARK    4  A    between atoms: C_18  and  C_19
REMARK                            x       y       z     vdW  Elec       q    Type
REMARK                         _______ _______ _______ _____ _____    ______ ____
ROOT
ATOM      1  O   UNL     1       2.011   9.261  22.555  0.00  0.00    +0.000 OA
ATOM      2  C   UNL     1       1.199   9.564  21.681  0.00  0.00    +0.000 C 
ATOM      3  N   UNL     1       1.065   8.954  20.463  0.00  0.00    +0.000 N 
ATOM      4  N   UNL     1       0.365  10.606  21.954  0.00  0.00    +0.000 N 
ATOM      5  C   UNL     1      -0.623  11.087  21.157  0.00  0.00    +0.000 A 
ATOM      6  N   UNL     1      -0.931  10.721  19.938  0.00  0.00    +0.000 NA
ATOM      7  C   UNL     1      -2.059  11.417  19.530  0.00  0.00    +0.000 A 
ATOM      8  C   UNL     1      -2.540  12.337  20.448  0.00  0.00    +0.000 A 
ATOM      9  S   UNL     1      -1.574  12.309  21.865  0.00  0.00    +0.000 S 
ATOM     10  H   UNL     1       0.453   9.425  19.803  0.00  0.00    +0.000 HD
ATOM     11  H   UNL     1       0.477  11.012  22.873  0.00  0.00    +0.000 HD
ENDROOT
BRANCH   7  12
ATOM     12  C   UNL     1      -2.670  11.159  18.234  0.00  0.00    +0.000 A 
ATOM     13  C   UNL     1      -2.009  10.402  17.253  0.00  0.00    +0.000 A 
ATOM     14  C   UNL     1      -2.589  10.204  15.997  0.00  0.00    +0.000 A 
ATOM     15  C   UNL     1      -3.830  10.763  15.720  0.00  0.00    +0.000 A 
ATOM     16  F   UNL     1      -4.377  10.580  14.510  0.00  0.00    +0.000 F 
ATOM     17  C   UNL     1      -4.495  11.510  16.684  0.00  0.00    +0.000 A 
ATOM     18  F   UNL     1      -5.691  12.049  16.414  0.00  0.00    +0.000 F 
ATOM     19  C   UNL     1      -3.925  11.713  17.939  0.00  0.00    +0.000 A 
ENDBRANCH   7  12
BRANCH   3  20
ATOM     20  C   UNL     1       1.775   7.828  19.998  0.00  0.00    +0.000 A 
ATOM     21  C   UNL     1       1.913   6.653  20.738  0.00  0.00    +0.000 A 
ATOM     22  C   UNL     1       2.659   5.579  20.244  0.00  0.00    +0.000 A 
ATOM     23  C   UNL     1       3.273   5.660  18.994  0.00  0.00    +0.000 A 
ATOM     24  C   UNL     1       3.131   6.831  18.245  0.00  0.00    +0.000 A 
ATOM     25  C   UNL     1       2.369   7.901  18.734  0.00  0.00    +0.000 A 
BRANCH  23  26
ATOM     26  S   UNL     1       4.296   4.311  18.447  0.00  0.00    +0.000 S 
BRANCH  26  27
ATOM     27  C   UNL     1       5.931   5.056  18.506  0.00  0.00    +0.000 C 
ATOM     28  F   UNL     1       6.310   5.459  19.742  0.00  0.00    +0.000 F 
ATOM     29  F   UNL     1       6.868   4.176  18.072  0.00  0.00    +0.000 F 
ATOM     30  F   UNL     1       5.998   6.139  17.695  0.00  0.00    +0.000 F 
ENDBRANCH  26  27
ENDBRANCH  23  26
ENDBRANCH   3  20
TORSDOF 4
ENDMDL
MODEL 7
REMARK VINA RESULT:      -7.4      3.946      4.866
REMARK  Name = 
REMARK  4 active torsions:
REMARK  status: ('A' for Active; 'I' for Inactive)
REMARK    1  A    between atoms: N_3  and  C_4
REMARK    2  A    between atoms: C_7  and  S_8
REMARK    3  A    between atoms: S_8  and  C_9
REMARK    4  A    between atoms: C_18  and  C_19
REMARK                            x       y       z     vdW  Elec       q    Type
REMARK                         _______ _______ _______ _____ _____    ______ ____
ROOT
ATOM      1  O   UNL     1      -0.619   8.617  22.407  0.00  0.00    +0.000 OA
ATOM      2  C   UNL     1      -0.182   9.666  21.934  0.00  0.00    +0.000 C 
ATOM      3  N   UNL     1       0.749   9.770  20.935  0.00  0.00    +0.000 N 
ATOM      4  N   UNL     1      -0.667  10.825  22.460  0.00  0.00    +0.000 N 
ATOM      5  C   UNL     1      -0.354  12.088  22.071  0.00  0.00    +0.000 A 
ATOM      6  N   UNL     1       0.529  12.467  21.183  0.00  0.00    +0.000 NA
ATOM      7  C   UNL     1       0.463  13.845  21.042  0.00  0.00    +0.000 A 
ATOM      8  C   UNL     1      -0.444  14.474  21.878  0.00  0.00    +0.000 A 
ATOM      9  S   UNL     1      -1.252  13.310  22.845  0.00  0.00    +0.000 S 
ATOM     10  H   UNL     1       1.111  10.705  20.771  0.00  0.00    +0.000 HD
ATOM     11  H   UNL     1      -1.371  10.707  23.175  0.00  0.00    +0.000 HD
ENDROOT
BRANCH   7  12
ATOM     12  C   UNL     1       1.290  14.537  20.064  0.00  0.00    +0.000 A 
ATOM     13  C   UNL     1       0.971  15.833  19.623  0.00  0.00    +0.000 A 
ATOM     14  C   UNL     1       1.748  16.464  18.648  0.00  0.00    +0.000 A 
ATOM     15  C   UNL     1       2.845  15.802  18.112  0.00  0.00    +0.000 A 
ATOM     16  F   UNL     1       3.580  16.407  17.169  0.00  0.00    +0.000 F 
ATOM     17  C   UNL     1       3.172  14.523  18.543  0.00  0.00    +0.000 A 
ATOM     18  F   UNL     1       4.230  13.886  18.022  0.00  0.00    +0.000 F 
ATOM     19  C   UNL     1       2.404  13.885  19.514  0.00  0.00    +0.000 A 
ENDBRANCH   7  12
BRANCH   3  20
ATOM     20  C   UNL     1       1.337   8.712  20.212  0.00  0.00    +0.000 A 
ATOM     21  C   UNL     1       1.648   7.477  20.785  0.00  0.00    +0.000 A 
ATOM     22  C   UNL     1       2.264   6.474  20.031  0.00  0.00    +0.000 A 
ATOM     23  C   UNL     1       2.570   6.685  18.687  0.00  0.00    +0.000 A 
ATOM     24  C   UNL     1       2.253   7.917  18.106  0.00  0.00    +0.000 A 
ATOM     25  C   UNL     1       1.620   8.916  18.859  0.00  0.00    +0.000 A 
BRANCH  23  26
ATOM     26  S   UNL     1       3.444   5.421  17.792  0.00  0.00    +0.000 S 
BRANCH  26  27
ATOM     27  C   UNL     1       2.181   4.150  17.643  0.00  0.00    +0.000 C 
ATOM     28  F   UNL     1       0.968   4.619  17.264  0.00  0.00    +0.000 F 
ATOM     29  F   UNL     1       2.549   3.221  16.727  0.00  0.00    +0.000 F 
ATOM     30  F   UNL     1       2.008   3.500  18.820  0.00  0.00    +0.000 F 
ENDBRANCH  26  27
ENDBRANCH  23  26
ENDBRANCH   3  20
TORSDOF 4
ENDMDL
MODEL 8
REMARK VINA RESULT:      -7.4      1.866      2.323
REMARK  Name = 
REMARK  4 active torsions:
REMARK  status: ('A' for Active; 'I' for Inactive)
REMARK    1  A    between atoms: N_3  and  C_4
REMARK    2  A    between atoms: C_7  and  S_8
REMARK    3  A    between atoms: S_8  and  C_9
REMARK    4  A    between atoms: C_18  and  C_19
REMARK                            x       y       z     vdW  Elec       q    Type
REMARK                         _______ _______ _______ _____ _____    ______ ____
ROOT
ATOM      1  O   UNL     1       1.759   9.610  22.526  0.00  0.00    +0.000 OA
ATOM      2  C   UNL     1       0.954   9.880  21.636  0.00  0.00    +0.000 C 
ATOM      3  N   UNL     1       0.843   9.240  20.431  0.00  0.00    +0.000 N 
ATOM      4  N   UNL     1       0.100  10.916  21.875  0.00  0.00    +0.000 N 
ATOM      5  C   UNL     1      -0.885  11.362  21.054  0.00  0.00    +0.000 A 
ATOM      6  N   UNL     1      -1.172  10.964  19.841  0.00  0.00    +0.000 NA
ATOM      7  C   UNL     1      -2.305  11.634  19.403  0.00  0.00    +0.000 A 
ATOM      8  C   UNL     1      -2.811  12.566  20.293  0.00  0.00    +0.000 A 
ATOM      9  S   UNL     1      -1.862  12.587  21.722  0.00  0.00    +0.000 S 
ATOM     10  H   UNL     1       0.233   9.687  19.753  0.00  0.00    +0.000 HD
ATOM     11  H   UNL     1       0.194  11.345  22.785  0.00  0.00    +0.000 HD
ENDROOT
BRANCH   7  12
ATOM     12  C   UNL     1      -2.896  11.336  18.106  0.00  0.00    +0.000 A 
ATOM     13  C   UNL     1      -4.188  11.776  17.775  0.00  0.00    +0.000 A 
ATOM     14  C   UNL     1      -4.760  11.440  16.544  0.00  0.00    +0.000 A 
ATOM     15  C   UNL     1      -4.040  10.664  15.644  0.00  0.00    +0.000 A 
ATOM     16  F   UNL     1      -4.597  10.336  14.470  0.00  0.00    +0.000 F 
ATOM     17  C   UNL     1      -2.760  10.227  15.960  0.00  0.00    +0.000 A 
ATOM     18  F   UNL     1      -2.070   9.478  15.090  0.00  0.00    +0.000 F 
ATOM     19  C   UNL     1      -2.183  10.557  17.184  0.00  0.00    +0.000 A 
ENDBRANCH   7  12
BRANCH   3  20
ATOM     20  C   UNL     1       1.576   8.115  20.001  0.00  0.00    +0.000 A 
ATOM     21  C   UNL     1       2.308   8.091  18.812  0.00  0.00    +0.000 A 
ATOM     22  C   UNL     1       2.988   6.936  18.414  0.00  0.00    +0.000 A 
ATOM     23  C   UNL     1       2.955   5.788  19.204  0.00  0.00    +0.000 A 
ATOM     24  C   UNL     1       2.231   5.809  20.400  0.00  0.00    +0.000 A 
ATOM     25  C   UNL     1       1.563   6.973  20.806  0.00  0.00    +0.000 A 
BRANCH  23  26
ATOM     26  S   UNL     1       3.750   4.310  18.612  0.00  0.00    +0.000 S 
BRANCH  26  27
ATOM     27  C   UNL     1       5.435   4.885  18.364  0.00  0.00    +0.000 C 
ATOM     28  F   UNL     1       5.892   5.696  19.347  0.00  0.00    +0.000 F 
ATOM     29  F   UNL     1       6.288   3.834  18.289  0.00  0.00    +0.000 F 
ATOM     30  F   UNL     1       5.545   5.569  17.199  0.00  0.00    +0.000 F 
ENDBRANCH  26  27
ENDBRANCH  23  26
ENDBRANCH   3  20
TORSDOF 4
ENDMDL
MODEL 9
REMARK VINA RESULT:      -7.4      5.279      6.435
REMARK  Name = 
REMARK  4 active torsions:
REMARK  status: ('A' for Active; 'I' for Inactive)
REMARK    1  A    between atoms: N_3  and  C_4
REMARK    2  A    between atoms: C_7  and  S_8
REMARK    3  A    between atoms: S_8  and  C_9
REMARK    4  A    between atoms: C_18  and  C_19
REMARK                            x       y       z     vdW  Elec       q    Type
REMARK                         _______ _______ _______ _____ _____    ______ ____
ROOT
ATOM      1  O   UNL     1      -1.271  10.362  18.901  0.00  0.00    +0.000 OA
ATOM      2  C   UNL     1      -0.279  11.080  19.023  0.00  0.00    +0.000 C 
ATOM      3  N   UNL     1       1.011  10.649  19.176  0.00  0.00    +0.000 N 
ATOM      4  N   UNL     1      -0.491  12.427  19.009  0.00  0.00    +0.000 N 
ATOM      5  C   UNL     1       0.453  13.399  19.092  0.00  0.00    +0.000 A 
ATOM      6  N   UNL     1       1.740  13.264  19.287  0.00  0.00    +0.000 NA
ATOM      7  C   UNL     1       2.339  14.513  19.222  0.00  0.00    +0.000 A 
ATOM      8  C   UNL     1       1.464  15.570  19.028  0.00  0.00    +0.000 A 
ATOM      9  S   UNL     1      -0.142  14.983  18.899  0.00  0.00    +0.000 S 
ATOM     10  H   UNL     1       1.687  11.369  19.416  0.00  0.00    +0.000 HD
ATOM     11  H   UNL     1      -1.452  12.705  18.866  0.00  0.00    +0.000 HD
ENDROOT
BRANCH   7  12
ATOM     12  C   UNL     1       3.783  14.658  19.335  0.00  0.00    +0.000 A 
ATOM     13  C   UNL     1       4.404  14.838  20.582  0.00  0.00    +0.000 A 
ATOM     14  C   UNL     1       5.787  15.024  20.668  0.00  0.00    +0.000 A 
ATOM     15  C   UNL     1       6.550  15.030  19.508  0.00  0.00    +0.000 A 
ATOM     16  F   UNL     1       7.874  15.220  19.595  0.00  0.00    +0.000 F 
ATOM     17  C   UNL     1       5.948  14.849  18.270  0.00  0.00    +0.000 A 
ATOM     18  F   UNL     1       6.687  14.857  17.153  0.00  0.00    +0.000 F 
ATOM     19  C   UNL     1       4.571  14.663  18.174  0.00  0.00    +0.000 A 
ENDBRANCH   7  12
BRANCH   3  20
ATOM     20  C   UNL     1       1.465   9.314  19.159  0.00  0.00    +0.000 A 
ATOM     21  C   UNL     1       1.425   8.481  20.279  0.00  0.00    +0.000 A 
ATOM     22  C   UNL     1       1.921   7.176  20.217  0.00  0.00    +0.000 A 
ATOM     23  C   UNL     1       2.458   6.678  19.030  0.00  0.00    +0.000 A 
ATOM     24  C   UNL     1       2.493   7.505  17.903  0.00  0.00    +0.000 A 
ATOM     25  C   UNL     1       1.980   8.808  17.962  0.00  0.00    +0.000 A 
BRANCH  23  26
ATOM     26  S   UNL     1       3.170   5.048  19.022  0.00  0.00    +0.000 S 
BRANCH  26  27
ATOM     27  C   UNL     1       1.748   4.038  18.591  0.00  0.00    +0.000 C 
ATOM     28  F   UNL     1       2.050   2.746  18.318  0.00  0.00    +0.000 F 
ATOM     29  F   UNL     1       0.848   4.028  19.605  0.00  0.00    +0.000 F 
ATOM     30  F   UNL     1       1.113   4.537  17.502  0.00  0.00    +0.000 F 
ENDBRANCH  26  27
ENDBRANCH  23  26
ENDBRANCH   3  20
TORSDOF 4
ENDMDL
