MODEL 1
REMARK VINA RESULT:      -7.0      0.000      0.000
REMARK  Name = 
REMARK  7 active torsions:
REMARK  status: ('A' for Active; 'I' for Inactive)
REMARK    1  A    between atoms: C_1  and  C_2
REMARK    2  A    between atoms: C_2  and  C_3
REMARK    3  A    between atoms: C_3  and  O_4
REMARK    4  A    between atoms: O_4  and  C_5
REMARK    5  A    between atoms: C_12  and  C_13
REMARK    6  A    between atoms: N_16  and  C_17
REMARK    7  A    between atoms: C_18  and  C_19
REMARK                            x       y       z     vdW  Elec       q    Type
REMARK                         _______ _______ _______ _____ _____    ______ ____
ROOT
ATOM      1  C   UNL     1       1.622   6.955  20.559  0.00  0.00    +0.000 A 
ATOM      2  C   UNL     1       1.075   7.780  21.489  0.00  0.00    +0.000 A 
ATOM      3  N   UNL     1       0.803   9.128  21.297  0.00  0.00    +0.000 NA
ATOM      4  C   UNL     1       1.125   9.654  20.147  0.00  0.00    +0.000 A 
ATOM      5  C   UNL     1       1.708   8.863  19.111  0.00  0.00    +0.000 A 
ATOM      6  N   UNL     1       2.138   9.243  17.937  0.00  0.00    +0.000 NA
ATOM      7  N   UNL     1       2.654   8.120  17.330  0.00  0.00    +0.000 NA
ATOM      8  C   UNL     1       2.483   7.079  18.135  0.00  0.00    +0.000 A 
ATOM      9  N   UNL     1       1.919   7.525  19.314  0.00  0.00    +0.000 N 
ENDROOT
BRANCH   8  10
ATOM     10  C   UNL     1       2.875   5.687  17.773  0.00  0.00    +0.000 A 
ATOM     11  C   UNL     1       2.007   4.630  17.456  0.00  0.00    +0.000 A 
ATOM     12  N   UNL     1       2.654   3.508  17.166  0.00  0.00    +0.000 NA
ATOM     13  N   UNL     1       3.953   3.840  17.294  0.00  0.00    +0.000 N 
ATOM     14  C   UNL     1       4.920   2.781  17.122  0.00  0.00    +0.000 C 
ATOM     15  C   UNL     1       4.168   5.170  17.647  0.00  0.00    +0.000 A 
BRANCH  15  16
ATOM     16  C   UNL     1       5.486   5.768  17.946  0.00  0.00    +0.000 A 
ATOM     17  C   UNL     1       6.050   6.779  17.158  0.00  0.00    +0.000 A 
ATOM     18  C   UNL     1       7.328   7.287  17.424  0.00  0.00    +0.000 A 
ATOM     19  C   UNL     1       8.046   6.833  18.527  0.00  0.00    +0.000 A 
ATOM     20  C   UNL     1       7.491   5.864  19.352  0.00  0.00    +0.000 A 
ATOM     21  C   UNL     1       6.237   5.323  19.050  0.00  0.00    +0.000 A 
ENDBRANCH  15  16
ENDBRANCH   8  10
BRANCH   1  22
ATOM     22  O   UNL     1       1.966   5.641  20.761  0.00  0.00    +0.000 OA
BRANCH  22  23
ATOM     23  C   UNL     1       0.964   4.635  20.617  0.00  0.00    +0.000 C 
BRANCH  23  25
ATOM     24  C   UNL     1       2.916   3.044  20.715  0.00  0.00    +0.000 C 
ATOM     25  C   UNL     1       1.518   3.347  21.219  0.00  0.00    +0.000 C 
ENDBRANCH  23  25
ENDBRANCH  22  23
ENDBRANCH   1  22
TORSDOF 5
ENDMDL
MODEL 2
REMARK VINA RESULT:      -6.8      0.411      1.064
REMARK  Name = 
REMARK  7 active torsions:
REMARK  status: ('A' for Active; 'I' for Inactive)
REMARK    1  A    between atoms: C_1  and  C_2
REMARK    2  A    between atoms: C_2  and  C_3
REMARK    3  A    between atoms: C_3  and  O_4
REMARK    4  A    between atoms: O_4  and  C_5
REMARK    5  A    between atoms: C_12  and  C_13
REMARK    6  A    between atoms: N_16  and  C_17
REMARK    7  A    between atoms: C_18  and  C_19
REMARK                            x       y       z     vdW  Elec       q    Type
REMARK                         _______ _______ _______ _____ _____    ______ ____
ROOT
ATOM      1  C   UNL     1       1.764   7.317  20.522  0.00  0.00    +0.000 A 
ATOM      2  C   UNL     1       1.288   8.230  21.408  0.00  0.00    +0.000 A 
ATOM      3  N   UNL     1       1.011   9.558  21.113  0.00  0.00    +0.000 NA
ATOM      4  C   UNL     1       1.255   9.973  19.899  0.00  0.00    +0.000 A 
ATOM      5  C   UNL     1       1.759   9.084  18.902  0.00  0.00    +0.000 A 
ATOM      6  N   UNL     1       2.107   9.350  17.671  0.00  0.00    +0.000 NA
ATOM      7  N   UNL     1       2.573   8.169  17.136  0.00  0.00    +0.000 NA
ATOM      8  C   UNL     1       2.454   7.208  18.044  0.00  0.00    +0.000 A 
ATOM      9  N   UNL     1       1.976   7.768  19.213  0.00  0.00    +0.000 N 
ENDROOT
BRANCH   8  10
ATOM     10  C   UNL     1       2.812   5.785  17.785  0.00  0.00    +0.000 A 
ATOM     11  C   UNL     1       1.917   4.726  17.560  0.00  0.00    +0.000 A 
ATOM     12  N   UNL     1       2.537   3.571  17.348  0.00  0.00    +0.000 NA
ATOM     13  N   UNL     1       3.844   3.884  17.436  0.00  0.00    +0.000 N 
ATOM     14  C   UNL     1       4.786   2.794  17.333  0.00  0.00    +0.000 C 
ATOM     15  C   UNL     1       4.091   5.232  17.683  0.00  0.00    +0.000 A 
BRANCH  15  16
ATOM     16  C   UNL     1       5.425   5.822  17.920  0.00  0.00    +0.000 A 
ATOM     17  C   UNL     1       6.268   5.389  18.952  0.00  0.00    +0.000 A 
ATOM     18  C   UNL     1       7.502   6.006  19.196  0.00  0.00    +0.000 A 
ATOM     19  C   UNL     1       7.947   7.034  18.370  0.00  0.00    +0.000 A 
ATOM     20  C   UNL     1       7.151   7.451  17.311  0.00  0.00    +0.000 A 
ATOM     21  C   UNL     1       5.897   6.868  17.105  0.00  0.00    +0.000 A 
ENDBRANCH  15  16
ENDBRANCH   8  10
BRANCH   1  22
ATOM     22  O   UNL     1       2.115   6.023  20.820  0.00  0.00    +0.000 OA
BRANCH  22  23
ATOM     23  C   UNL     1       1.113   5.008  20.769  0.00  0.00    +0.000 C 
BRANCH  23  25
ATOM     24  C   UNL     1       1.225   2.507  20.475  0.00  0.00    +0.000 C 
ATOM     25  C   UNL     1       1.756   3.705  21.237  0.00  0.00    +0.000 C 
ENDBRANCH  23  25
ENDBRANCH  22  23
ENDBRANCH   1  22
TORSDOF 5
ENDMDL
MODEL 3
REMARK VINA RESULT:      -6.7      2.644      5.572
REMARK  Name = 
REMARK  7 active torsions:
REMARK  status: ('A' for Active; 'I' for Inactive)
REMARK    1  A    between atoms: C_1  and  C_2
REMARK    2  A    between atoms: C_2  and  C_3
REMARK    3  A    between atoms: C_3  and  O_4
REMARK    4  A    between atoms: O_4  and  C_5
REMARK    5  A    between atoms: C_12  and  C_13
REMARK    6  A    between atoms: N_16  and  C_17
REMARK    7  A    between atoms: C_18  and  C_19
REMARK                            x       y       z     vdW  Elec       q    Type
REMARK                         _______ _______ _______ _____ _____    ______ ____
ROOT
ATOM      1  C   UNL     1       6.047   6.491  17.040  0.00  0.00    +0.000 A 
ATOM      2  C   UNL     1       6.960   7.416  16.647  0.00  0.00    +0.000 A 
ATOM      3  N   UNL     1       8.107   7.754  17.351  0.00  0.00    +0.000 NA
ATOM      4  C   UNL     1       8.312   7.162  18.496  0.00  0.00    +0.000 A 
ATOM      5  C   UNL     1       7.403   6.177  18.992  0.00  0.00    +0.000 A 
ATOM      6  N   UNL     1       7.431   5.541  20.132  0.00  0.00    +0.000 NA
ATOM      7  N   UNL     1       6.313   4.737  20.155  0.00  0.00    +0.000 NA
ATOM      8  C   UNL     1       5.659   4.875  19.008  0.00  0.00    +0.000 A 
ATOM      9  N   UNL     1       6.306   5.831  18.249  0.00  0.00    +0.000 N 
ENDROOT
BRANCH   8  10
ATOM     10  C   UNL     1       4.428   4.109  18.667  0.00  0.00    +0.000 A 
ATOM     11  C   UNL     1       4.372   2.805  18.147  0.00  0.00    +0.000 A 
ATOM     12  N   UNL     1       3.128   2.386  17.954  0.00  0.00    +0.000 NA
ATOM     13  N   UNL     1       2.370   3.426  18.353  0.00  0.00    +0.000 N 
ATOM     14  C   UNL     1       0.941   3.299  18.178  0.00  0.00    +0.000 C 
ATOM     15  C   UNL     1       3.100   4.514  18.822  0.00  0.00    +0.000 A 
BRANCH  15  16
ATOM     16  C   UNL     1       2.523   5.814  19.228  0.00  0.00    +0.000 A 
ATOM     17  C   UNL     1       2.517   6.932  18.384  0.00  0.00    +0.000 A 
ATOM     18  C   UNL     1       2.022   8.170  18.812  0.00  0.00    +0.000 A 
ATOM     19  C   UNL     1       1.463   8.299  20.081  0.00  0.00    +0.000 A 
ATOM     20  C   UNL     1       1.413   7.194  20.921  0.00  0.00    +0.000 A 
ATOM     21  C   UNL     1       1.958   5.975  20.506  0.00  0.00    +0.000 A 
ENDBRANCH  15  16
ENDBRANCH   8  10
BRANCH   1  22
ATOM     22  O   UNL     1       4.870   6.203  16.392  0.00  0.00    +0.000 OA
BRANCH  22  23
ATOM     23  C   UNL     1       4.923   5.707  15.055  0.00  0.00    +0.000 C 
BRANCH  23  25
ATOM     24  C   UNL     1       6.246   3.967  13.799  0.00  0.00    +0.000 C 
ATOM     25  C   UNL     1       5.560   4.321  15.105  0.00  0.00    +0.000 C 
ENDBRANCH  23  25
ENDBRANCH  22  23
ENDBRANCH   1  22
TORSDOF 5
ENDMDL
MODEL 4
REMARK VINA RESULT:      -6.7      2.608      5.639
REMARK  Name = 
REMARK  7 active torsions:
REMARK  status: ('A' for Active; 'I' for Inactive)
REMARK    1  A    between atoms: C_1  and  C_2
REMARK    2  A    between atoms: C_2  and  C_3
REMARK    3  A    between atoms: C_3  and  O_4
REMARK    4  A    between atoms: O_4  and  C_5
REMARK    5  A    between atoms: C_12  and  C_13
REMARK    6  A    between atoms: N_16  and  C_17
REMARK    7  A    between atoms: C_18  and  C_19
REMARK                            x       y       z     vdW  Elec       q    Type
REMARK                         _______ _______ _______ _____ _____    ______ ____
ROOT
ATOM      1  C   UNL     1       6.144   6.777  17.205  0.00  0.00    +0.000 A 
ATOM      2  C   UNL     1       7.097   7.711  16.950  0.00  0.00    +0.000 A 
ATOM      3  N   UNL     1       8.237   7.915  17.714  0.00  0.00    +0.000 NA
ATOM      4  C   UNL     1       8.393   7.179  18.781  0.00  0.00    +0.000 A 
ATOM      5  C   UNL     1       7.439   6.175  19.130  0.00  0.00    +0.000 A 
ATOM      6  N   UNL     1       7.417   5.400  20.182  0.00  0.00    +0.000 NA
ATOM      7  N   UNL     1       6.272   4.642  20.081  0.00  0.00    +0.000 NA
ATOM      8  C   UNL     1       5.653   4.945  18.947  0.00  0.00    +0.000 A 
ATOM      9  N   UNL     1       6.350   5.964  18.327  0.00  0.00    +0.000 N 
ENDROOT
BRANCH   8  10
ATOM     10  C   UNL     1       4.405   4.273  18.487  0.00  0.00    +0.000 A 
ATOM     11  C   UNL     1       4.314   3.024  17.850  0.00  0.00    +0.000 A 
ATOM     12  N   UNL     1       3.063   2.685  17.569  0.00  0.00    +0.000 NA
ATOM     13  N   UNL     1       2.335   3.721  18.027  0.00  0.00    +0.000 N 
ATOM     14  C   UNL     1       0.912   3.681  17.783  0.00  0.00    +0.000 C 
ATOM     15  C   UNL     1       3.090   4.728  18.623  0.00  0.00    +0.000 A 
BRANCH  15  16
ATOM     16  C   UNL     1       2.554   6.013  19.120  0.00  0.00    +0.000 A 
ATOM     17  C   UNL     1       2.052   6.167  20.418  0.00  0.00    +0.000 A 
ATOM     18  C   UNL     1       1.492   7.378  20.847  0.00  0.00    +0.000 A 
ATOM     19  C   UNL     1       1.477   8.481  19.999  0.00  0.00    +0.000 A 
ATOM     20  C   UNL     1       2.011   8.368  18.721  0.00  0.00    +0.000 A 
ATOM     21  C   UNL     1       2.520   7.142  18.282  0.00  0.00    +0.000 A 
ENDBRANCH  15  16
ENDBRANCH   8  10
BRANCH   1  22
ATOM     22  O   UNL     1       4.975   6.615  16.502  0.00  0.00    +0.000 OA
BRANCH  22  23
ATOM     23  C   UNL     1       5.044   6.279  15.117  0.00  0.00    +0.000 C 
BRANCH  23  25
ATOM     24  C   UNL     1       6.831   4.746  14.214  0.00  0.00    +0.000 C 
ATOM     25  C   UNL     1       5.549   4.842  15.020  0.00  0.00    +0.000 C 
ENDBRANCH  23  25
ENDBRANCH  22  23
ENDBRANCH   1  22
TORSDOF 5
ENDMDL
MODEL 5
REMARK VINA RESULT:      -6.6      1.088      1.125
REMARK  Name = 
REMARK  7 active torsions:
REMARK  status: ('A' for Active; 'I' for Inactive)
REMARK    1  A    between atoms: C_1  and  C_2
REMARK    2  A    between atoms: C_2  and  C_3
REMARK    3  A    between atoms: C_3  and  O_4
REMARK    4  A    between atoms: O_4  and  C_5
REMARK    5  A    between atoms: C_12  and  C_13
REMARK    6  A    between atoms: N_16  and  C_17
REMARK    7  A    between atoms: C_18  and  C_19
REMARK                            x       y       z     vdW  Elec       q    Type
REMARK                         _______ _______ _______ _____ _____    ______ ____
ROOT
ATOM      1  C   UNL     1       1.267   6.904  20.505  0.00  0.00    +0.000 A 
ATOM      2  C   UNL     1       0.853   7.919  21.306  0.00  0.00    +0.000 A 
ATOM      3  N   UNL     1       0.959   9.269  21.001  0.00  0.00    +0.000 NA
ATOM      4  C   UNL     1       1.530   9.593  19.873  0.00  0.00    +0.000 A 
ATOM      5  C   UNL     1       1.999   8.592  18.969  0.00  0.00    +0.000 A 
ATOM      6  N   UNL     1       2.637   8.747  17.839  0.00  0.00    +0.000 NA
ATOM      7  N   UNL     1       2.911   7.480  17.372  0.00  0.00    +0.000 NA
ATOM      8  C   UNL     1       2.391   6.591  18.209  0.00  0.00    +0.000 A 
ATOM      9  N   UNL     1       1.835   7.268  19.277  0.00  0.00    +0.000 N 
ENDROOT
BRANCH   8  10
ATOM     10  C   UNL     1       2.449   5.119  17.984  0.00  0.00    +0.000 A 
ATOM     11  C   UNL     1       1.354   4.252  17.834  0.00  0.00    +0.000 A 
ATOM     12  N   UNL     1       1.724   2.993  17.636  0.00  0.00    +0.000 NA
ATOM     13  N   UNL     1       3.070   3.043  17.656  0.00  0.00    +0.000 N 
ATOM     14  C   UNL     1       3.773   1.785  17.551  0.00  0.00    +0.000 C 
ATOM     15  C   UNL     1       3.589   4.321  17.847  0.00  0.00    +0.000 A 
BRANCH  15  16
ATOM     16  C   UNL     1       5.023   4.641  18.006  0.00  0.00    +0.000 A 
ATOM     17  C   UNL     1       5.954   4.457  16.976  0.00  0.00    +0.000 A 
ATOM     18  C   UNL     1       7.319   4.709  17.169  0.00  0.00    +0.000 A 
ATOM     19  C   UNL     1       7.773   5.209  18.386  0.00  0.00    +0.000 A 
ATOM     20  C   UNL     1       6.864   5.445  19.409  0.00  0.00    +0.000 A 
ATOM     21  C   UNL     1       5.511   5.141  19.227  0.00  0.00    +0.000 A 
ENDBRANCH  15  16
ENDBRANCH   8  10
BRANCH   1  22
ATOM     22  O   UNL     1       1.238   5.569  20.827  0.00  0.00    +0.000 OA
BRANCH  22  23
ATOM     23  C   UNL     1       2.426   4.953  21.325  0.00  0.00    +0.000 C 
BRANCH  23  25
ATOM     24  C   UNL     1       3.198   2.561  21.137  0.00  0.00    +0.000 C 
ATOM     25  C   UNL     1       2.098   3.491  21.612  0.00  0.00    +0.000 C 
ENDBRANCH  23  25
ENDBRANCH  22  23
ENDBRANCH   1  22
TORSDOF 5
ENDMDL
MODEL 6
REMARK VINA RESULT:      -6.6      2.653      5.485
REMARK  Name = 
REMARK  7 active torsions:
REMARK  status: ('A' for Active; 'I' for Inactive)
REMARK    1  A    between atoms: C_1  and  C_2
REMARK    2  A    between atoms: C_2  and  C_3
REMARK    3  A    between atoms: C_3  and  O_4
REMARK    4  A    between atoms: O_4  and  C_5
REMARK    5  A    between atoms: C_12  and  C_13
REMARK    6  A    between atoms: N_16  and  C_17
REMARK    7  A    between atoms: C_18  and  C_19
REMARK                            x       y       z     vdW  Elec       q    Type
REMARK                         _______ _______ _______ _____ _____    ______ ____
ROOT
ATOM      1  C   UNL     1       5.199   4.506  16.533  0.00  0.00    +0.000 A 
ATOM      2  C   UNL     1       5.815   4.762  15.349  0.00  0.00    +0.000 A 
ATOM      3  N   UNL     1       7.067   5.345  15.213  0.00  0.00    +0.000 NA
ATOM      4  C   UNL     1       7.690   5.705  16.302  0.00  0.00    +0.000 A 
ATOM      5  C   UNL     1       7.117   5.478  17.590  0.00  0.00    +0.000 A 
ATOM      6  N   UNL     1       7.579   5.826  18.762  0.00  0.00    +0.000 NA
ATOM      7  N   UNL     1       6.639   5.422  19.685  0.00  0.00    +0.000 NA
ATOM      8  C   UNL     1       5.653   4.800  19.050  0.00  0.00    +0.000 A 
ATOM      9  N   UNL     1       5.901   4.856  17.693  0.00  0.00    +0.000 N 
ENDROOT
BRANCH   8  10
ATOM     10  C   UNL     1       4.490   4.180  19.747  0.00  0.00    +0.000 A 
ATOM     11  C   UNL     1       4.419   2.873  20.255  0.00  0.00    +0.000 A 
ATOM     12  N   UNL     1       3.253   2.613  20.833  0.00  0.00    +0.000 NA
ATOM     13  N   UNL     1       2.562   3.762  20.700  0.00  0.00    +0.000 N 
ATOM     14  C   UNL     1       1.194   3.761  21.166  0.00  0.00    +0.000 C 
ATOM     15  C   UNL     1       3.265   4.778  20.059  0.00  0.00    +0.000 A 
BRANCH  15  16
ATOM     16  C   UNL     1       2.711   6.100  19.699  0.00  0.00    +0.000 A 
ATOM     17  C   UNL     1       2.826   6.641  18.412  0.00  0.00    +0.000 A 
ATOM     18  C   UNL     1       2.348   7.922  18.111  0.00  0.00    +0.000 A 
ATOM     19  C   UNL     1       1.688   8.669  19.082  0.00  0.00    +0.000 A 
ATOM     20  C   UNL     1       1.518   8.138  20.355  0.00  0.00    +0.000 A 
ATOM     21  C   UNL     1       2.045   6.880  20.663  0.00  0.00    +0.000 A 
ENDBRANCH  15  16
ENDBRANCH   8  10
BRANCH   1  22
ATOM     22  O   UNL     1       3.930   4.001  16.680  0.00  0.00    +0.000 OA
BRANCH  22  23
ATOM     23  C   UNL     1       3.757   2.589  16.788  0.00  0.00    +0.000 C 
BRANCH  23  25
ATOM     24  C   UNL     1       1.509   3.579  17.356  0.00  0.00    +0.000 C 
ATOM     25  C   UNL     1       2.385   2.341  17.408  0.00  0.00    +0.000 C 
ENDBRANCH  23  25
ENDBRANCH  22  23
ENDBRANCH   1  22
TORSDOF 5
ENDMDL
MODEL 7
REMARK VINA RESULT:      -6.4      3.274      7.544
REMARK  Name = 
REMARK  7 active torsions:
REMARK  status: ('A' for Active; 'I' for Inactive)
REMARK    1  A    between atoms: C_1  and  C_2
REMARK    2  A    between atoms: C_2  and  C_3
REMARK    3  A    between atoms: C_3  and  O_4
REMARK    4  A    between atoms: O_4  and  C_5
REMARK    5  A    between atoms: C_12  and  C_13
REMARK    6  A    between atoms: N_16  and  C_17
REMARK    7  A    between atoms: C_18  and  C_19
REMARK                            x       y       z     vdW  Elec       q    Type
REMARK                         _______ _______ _______ _____ _____    ______ ____
ROOT
ATOM      1  C   UNL     1       1.263   8.071  20.487  0.00  0.00    +0.000 A 
ATOM      2  C   UNL     1       1.662   6.784  20.658  0.00  0.00    +0.000 A 
ATOM      3  N   UNL     1       2.433   6.061  19.758  0.00  0.00    +0.000 NA
ATOM      4  C   UNL     1       2.776   6.650  18.645  0.00  0.00    +0.000 A 
ATOM      5  C   UNL     1       2.399   8.001  18.377  0.00  0.00    +0.000 A 
ATOM      6  N   UNL     1       2.609   8.709  17.299  0.00  0.00    +0.000 NA
ATOM      7  N   UNL     1       2.011   9.931  17.515  0.00  0.00    +0.000 NA
ATOM      8  C   UNL     1       1.491   9.946  18.736  0.00  0.00    +0.000 A 
ATOM      9  N   UNL     1       1.680   8.703  19.308  0.00  0.00    +0.000 N 
ENDROOT
BRANCH   8  10
ATOM     10  C   UNL     1       0.814  11.135  19.326  0.00  0.00    +0.000 A 
ATOM     11  C   UNL     1       1.333  11.990  20.312  0.00  0.00    +0.000 A 
ATOM     12  N   UNL     1       0.497  12.971  20.629  0.00  0.00    +0.000 NA
ATOM     13  N   UNL     1      -0.573  12.751  19.842  0.00  0.00    +0.000 N 
ATOM     14  C   UNL     1      -1.710  13.624  20.025  0.00  0.00    +0.000 C 
ATOM     15  C   UNL     1      -0.444  11.650  18.999  0.00  0.00    +0.000 A 
BRANCH  15  16
ATOM     16  C   UNL     1      -1.503  11.132  18.108  0.00  0.00    +0.000 A 
ATOM     17  C   UNL     1      -1.808  11.726  16.877  0.00  0.00    +0.000 A 
ATOM     18  C   UNL     1      -2.858  11.256  16.077  0.00  0.00    +0.000 A 
ATOM     19  C   UNL     1      -3.590  10.138  16.469  0.00  0.00    +0.000 A 
ATOM     20  C   UNL     1      -3.277   9.501  17.663  0.00  0.00    +0.000 A 
ATOM     21  C   UNL     1      -2.263  10.009  18.482  0.00  0.00    +0.000 A 
ENDBRANCH  15  16
ENDBRANCH   8  10
BRANCH   1  22
ATOM     22  O   UNL     1       0.438   8.771  21.332  0.00  0.00    +0.000 OA
BRANCH  22  23
ATOM     23  C   UNL     1       0.965   9.255  22.567  0.00  0.00    +0.000 C 
BRANCH  23  25
ATOM     24  C   UNL     1      -1.021  10.744  23.004  0.00  0.00    +0.000 C 
ATOM     25  C   UNL     1      -0.217   9.551  23.485  0.00  0.00    +0.000 C 
ENDBRANCH  23  25
ENDBRANCH  22  23
ENDBRANCH   1  22
TORSDOF 5
ENDMDL
MODEL 8
REMARK VINA RESULT:      -6.4      1.934      6.505
REMARK  Name = 
REMARK  7 active torsions:
REMARK  status: ('A' for Active; 'I' for Inactive)
REMARK    1  A    between atoms: C_1  and  C_2
REMARK    2  A    between atoms: C_2  and  C_3
REMARK    3  A    between atoms: C_3  and  O_4
REMARK    4  A    between atoms: O_4  and  C_5
REMARK    5  A    between atoms: C_12  and  C_13
REMARK    6  A    between atoms: N_16  and  C_17
REMARK    7  A    between atoms: C_18  and  C_19
REMARK                            x       y       z     vdW  Elec       q    Type
REMARK                         _______ _______ _______ _____ _____    ______ ____
ROOT
ATOM      1  C   UNL     1       6.239   6.156  16.811  0.00  0.00    +0.000 A 
ATOM      2  C   UNL     1       7.341   5.770  16.117  0.00  0.00    +0.000 A 
ATOM      3  N   UNL     1       7.447   4.602  15.375  0.00  0.00    +0.000 NA
ATOM      4  C   UNL     1       6.422   3.794  15.367  0.00  0.00    +0.000 A 
ATOM      5  C   UNL     1       5.222   4.116  16.070  0.00  0.00    +0.000 A 
ATOM      6  N   UNL     1       4.138   3.399  16.209  0.00  0.00    +0.000 NA
ATOM      7  N   UNL     1       3.291   4.128  17.013  0.00  0.00    +0.000 NA
ATOM      8  C   UNL     1       3.865   5.289  17.304  0.00  0.00    +0.000 A 
ATOM      9  N   UNL     1       5.132   5.300  16.753  0.00  0.00    +0.000 N 
ENDROOT
BRANCH   8  10
ATOM     10  C   UNL     1       3.205   6.353  18.112  0.00  0.00    +0.000 A 
ATOM     11  C   UNL     1       3.260   7.736  17.878  0.00  0.00    +0.000 A 
ATOM     12  N   UNL     1       2.560   8.432  18.765  0.00  0.00    +0.000 NA
ATOM     13  N   UNL     1       2.046   7.493  19.581  0.00  0.00    +0.000 N 
ATOM     14  C   UNL     1       1.290   7.958  20.721  0.00  0.00    +0.000 C 
ATOM     15  C   UNL     1       2.383   6.188  19.231  0.00  0.00    +0.000 A 
BRANCH  15  16
ATOM     16  C   UNL     1       2.033   4.981  20.009  0.00  0.00    +0.000 A 
ATOM     17  C   UNL     1       2.670   4.649  21.211  0.00  0.00    +0.000 A 
ATOM     18  C   UNL     1       2.365   3.467  21.899  0.00  0.00    +0.000 A 
ATOM     19  C   UNL     1       1.368   2.619  21.426  0.00  0.00    +0.000 A 
ATOM     20  C   UNL     1       0.687   2.949  20.261  0.00  0.00    +0.000 A 
ATOM     21  C   UNL     1       1.034   4.102  19.550  0.00  0.00    +0.000 A 
ENDBRANCH  15  16
ENDBRANCH   8  10
BRANCH   1  22
ATOM     22  O   UNL     1       6.147   7.270  17.610  0.00  0.00    +0.000 OA
BRANCH  22  23
ATOM     23  C   UNL     1       7.003   8.381  17.346  0.00  0.00    +0.000 C 
BRANCH  23  25
ATOM     24  C   UNL     1       8.801   9.614  18.612  0.00  0.00    +0.000 C 
ATOM     25  C   UNL     1       8.211   8.259  18.270  0.00  0.00    +0.000 C 
ENDBRANCH  23  25
ENDBRANCH  22  23
ENDBRANCH   1  22
TORSDOF 5
ENDMDL
MODEL 9
REMARK VINA RESULT:      -6.3      2.030      6.287
REMARK  Name = 
REMARK  7 active torsions:
REMARK  status: ('A' for Active; 'I' for Inactive)
REMARK    1  A    between atoms: C_1  and  C_2
REMARK    2  A    between atoms: C_2  and  C_3
REMARK    3  A    between atoms: C_3  and  O_4
REMARK    4  A    between atoms: O_4  and  C_5
REMARK    5  A    between atoms: C_12  and  C_13
REMARK    6  A    between atoms: N_16  and  C_17
REMARK    7  A    between atoms: C_18  and  C_19
REMARK                            x       y       z     vdW  Elec       q    Type
REMARK                         _______ _______ _______ _____ _____    ______ ____
ROOT
ATOM      1  C   UNL     1       4.494   5.097  18.823  0.00  0.00    +0.000 A 
ATOM      2  C   UNL     1       5.201   3.943  18.942  0.00  0.00    +0.000 A 
ATOM      3  N   UNL     1       4.807   2.842  19.688  0.00  0.00    +0.000 NA
ATOM      4  C   UNL     1       3.687   2.929  20.354  0.00  0.00    +0.000 A 
ATOM      5  C   UNL     1       2.880   4.105  20.291  0.00  0.00    +0.000 A 
ATOM      6  N   UNL     1       1.775   4.373  20.934  0.00  0.00    +0.000 NA
ATOM      7  N   UNL     1       1.412   5.650  20.567  0.00  0.00    +0.000 NA
ATOM      8  C   UNL     1       2.284   6.106  19.676  0.00  0.00    +0.000 A 
ATOM      9  N   UNL     1       3.273   5.157  19.506  0.00  0.00    +0.000 N 
ENDROOT
BRANCH   8  10
ATOM     10  C   UNL     1       2.166   7.438  19.019  0.00  0.00    +0.000 A 
ATOM     11  C   UNL     1       2.582   7.769  17.720  0.00  0.00    +0.000 A 
ATOM     12  N   UNL     1       2.334   9.036  17.412  0.00  0.00    +0.000 NA
ATOM     13  N   UNL     1       1.752   9.531  18.521  0.00  0.00    +0.000 N 
ATOM     14  C   UNL     1       1.439  10.942  18.522  0.00  0.00    +0.000 C 
ATOM     15  C   UNL     1       1.597   8.601  19.546  0.00  0.00    +0.000 A 
BRANCH  15  16
ATOM     16  C   UNL     1       1.079   8.903  20.897  0.00  0.00    +0.000 A 
ATOM     17  C   UNL     1       1.918   9.064  22.007  0.00  0.00    +0.000 A 
ATOM     18  C   UNL     1       1.401   9.287  23.289  0.00  0.00    +0.000 A 
ATOM     19  C   UNL     1       0.027   9.415  23.478  0.00  0.00    +0.000 A 
ATOM     20  C   UNL     1      -0.825   9.307  22.386  0.00  0.00    +0.000 A 
ATOM     21  C   UNL     1      -0.305   9.030  21.118  0.00  0.00    +0.000 A 
ENDBRANCH  15  16
ENDBRANCH   8  10
BRANCH   1  22
ATOM     22  O   UNL     1       4.908   6.222  18.151  0.00  0.00    +0.000 OA
BRANCH  22  23
ATOM     23  C   UNL     1       5.944   6.101  17.177  0.00  0.00    +0.000 C 
BRANCH  23  25
ATOM     24  C   UNL     1       5.583   4.724  15.096  0.00  0.00    +0.000 C 
ATOM     25  C   UNL     1       5.277   6.029  15.806  0.00  0.00    +0.000 C 
ENDBRANCH  23  25
ENDBRANCH  22  23
ENDBRANCH   1  22
TORSDOF 5
ENDMDL
