MODEL 1
REMARK VINA RESULT:      -7.4      0.000      0.000
REMARK  Name = 
REMARK  10 active torsions:
REMARK  status: ('A' for Active; 'I' for Inactive)
REMARK    1  A    between atoms: C_1  and  O_2
REMARK    2  A    between atoms: O_2  and  C_3
REMARK    3  A    between atoms: C_7  and  N_8
REMARK    4  A    between atoms: N_8  and  C_9
REMARK    5  A    between atoms: N_8  and  C_15
REMARK    6  A    between atoms: C_9  and  C_10
REMARK    7  A    between atoms: C_10  and  N_11
REMARK    8  A    between atoms: C_12  and  C_13
REMARK    9  A    between atoms: C_19  and  O_20
REMARK   10  A    between atoms: O_20  and  C_21
REMARK                            x       y       z     vdW  Elec       q    Type
REMARK                         _______ _______ _______ _____ _____    ______ ____
ROOT
ATOM      1  N   UNL     1       3.402   5.659  18.342  0.00  0.00    +0.000 N 
ENDROOT
BRANCH   1   6
ATOM      2  C   UNL     1       6.751   5.625  16.698  0.00  0.00    +0.000 A 
ATOM      3  C   UNL     1       7.605   5.512  17.793  0.00  0.00    +0.000 A 
ATOM      4  C   UNL     1       7.082   5.430  19.082  0.00  0.00    +0.000 A 
ATOM      5  C   UNL     1       5.697   5.454  19.284  0.00  0.00    +0.000 A 
ATOM      6  C   UNL     1       4.811   5.609  18.212  0.00  0.00    +0.000 A 
ATOM      7  C   UNL     1       5.373   5.689  16.916  0.00  0.00    +0.000 A 
BRANCH   2   9
ATOM      8  C   UNL     1       6.897   4.763  14.489  0.00  0.00    +0.000 C 
ATOM      9  O   UNL     1       7.376   5.663  15.480  0.00  0.00    +0.000 OA
ENDBRANCH   2   9
ENDBRANCH   1   6
BRANCH   1  10
ATOM     10  C   UNL     1       2.706   6.860  18.715  0.00  0.00    +0.000 A 
ATOM     11  C   UNL     1       2.419   7.861  17.775  0.00  0.00    +0.000 A 
ATOM     12  C   UNL     1       1.720   9.016  18.138  0.00  0.00    +0.000 A 
ATOM     13  C   UNL     1       1.273   9.179  19.447  0.00  0.00    +0.000 A 
ATOM     14  C   UNL     1       1.520   8.195  20.402  0.00  0.00    +0.000 A 
ATOM     15  C   UNL     1       2.241   7.053  20.036  0.00  0.00    +0.000 A 
BRANCH  14  16
ATOM     16  O   UNL     1       1.007   8.468  21.641  0.00  0.00    +0.000 OA
ATOM     17  C   UNL     1      -0.404   8.617  21.740  0.00  0.00    +0.000 C 
ENDBRANCH  14  16
ENDBRANCH   1  10
BRANCH   1  18
ATOM     18  C   UNL     1       2.538   4.672  17.628  0.00  0.00    +0.000 C 
BRANCH  18  19
ATOM     19  C   UNL     1       2.767   3.194  18.023  0.00  0.00    +0.000 C 
BRANCH  19  20
ATOM     20  N   UNL     1       2.718   2.943  19.463  0.00  0.00    +0.000 N 
ATOM     21  C   UNL     1       1.529   2.780  20.127  0.00  0.00    +0.000 C 
ATOM     22  C   UNL     1       1.645   2.726  21.630  0.00  0.00    +0.000 C 
ATOM     23  O   UNL     1       0.443   2.685  19.557  0.00  0.00    +0.000 OA
ATOM     24  H   UNL     1       3.556   3.119  20.004  0.00  0.00    +0.000 HD
ENDBRANCH  19  20
ENDBRANCH  18  19
ENDBRANCH   1  18
TORSDOF 7
ENDMDL
MODEL 2
REMARK VINA RESULT:      -7.3      1.382      1.908
REMARK  Name = 
REMARK  10 active torsions:
REMARK  status: ('A' for Active; 'I' for Inactive)
REMARK    1  A    between atoms: C_1  and  O_2
REMARK    2  A    between atoms: O_2  and  C_3
REMARK    3  A    between atoms: C_7  and  N_8
REMARK    4  A    between atoms: N_8  and  C_9
REMARK    5  A    between atoms: N_8  and  C_15
REMARK    6  A    between atoms: C_9  and  C_10
REMARK    7  A    between atoms: C_10  and  N_11
REMARK    8  A    between atoms: C_12  and  C_13
REMARK    9  A    between atoms: C_19  and  O_20
REMARK   10  A    between atoms: O_20  and  C_21
REMARK                            x       y       z     vdW  Elec       q    Type
REMARK                         _______ _______ _______ _____ _____    ______ ____
ROOT
ATOM      1  N   UNL     1       3.474   5.271  18.249  0.00  0.00    +0.000 N 
ENDROOT
BRANCH   1   6
ATOM      2  C   UNL     1       6.858   4.868  16.729  0.00  0.00    +0.000 A 
ATOM      3  C   UNL     1       7.688   5.026  17.836  0.00  0.00    +0.000 A 
ATOM      4  C   UNL     1       7.138   5.252  19.096  0.00  0.00    +0.000 A 
ATOM      5  C   UNL     1       5.749   5.313  19.258  0.00  0.00    +0.000 A 
ATOM      6  C   UNL     1       4.886   5.200  18.163  0.00  0.00    +0.000 A 
ATOM      7  C   UNL     1       5.476   4.972  16.897  0.00  0.00    +0.000 A 
BRANCH   2   9
ATOM      8  C   UNL     1       6.704   4.556  14.377  0.00  0.00    +0.000 C 
ATOM      9  O   UNL     1       7.509   4.617  15.550  0.00  0.00    +0.000 OA
ENDBRANCH   2   9
ENDBRANCH   1   6
BRANCH   1  10
ATOM     10  C   UNL     1       2.788   6.452  18.693  0.00  0.00    +0.000 A 
ATOM     11  C   UNL     1       2.247   6.543  19.984  0.00  0.00    +0.000 A 
ATOM     12  C   UNL     1       1.602   7.705  20.419  0.00  0.00    +0.000 A 
ATOM     13  C   UNL     1       1.509   8.809  19.576  0.00  0.00    +0.000 A 
ATOM     14  C   UNL     1       2.055   8.763  18.294  0.00  0.00    +0.000 A 
ATOM     15  C   UNL     1       2.678   7.589  17.858  0.00  0.00    +0.000 A 
BRANCH  14  16
ATOM     16  O   UNL     1       1.915   9.921  17.578  0.00  0.00    +0.000 OA
ATOM     17  C   UNL     1       1.888  11.138  18.314  0.00  0.00    +0.000 C 
ENDBRANCH  14  16
ENDBRANCH   1  10
BRANCH   1  18
ATOM     18  C   UNL     1       2.618   4.362  17.428  0.00  0.00    +0.000 C 
BRANCH  18  19
ATOM     19  C   UNL     1       2.361   2.968  18.047  0.00  0.00    +0.000 C 
BRANCH  19  20
ATOM     20  N   UNL     1       1.731   3.003  19.366  0.00  0.00    +0.000 N 
ATOM     21  C   UNL     1       2.442   2.752  20.512  0.00  0.00    +0.000 C 
ATOM     22  C   UNL     1       1.606   2.635  21.763  0.00  0.00    +0.000 C 
ATOM     23  O   UNL     1       3.666   2.628  20.536  0.00  0.00    +0.000 OA
ATOM     24  H   UNL     1       0.719   2.988  19.409  0.00  0.00    +0.000 HD
ENDBRANCH  19  20
ENDBRANCH  18  19
ENDBRANCH   1  18
TORSDOF 7
ENDMDL
MODEL 3
REMARK VINA RESULT:      -7.3      3.292      6.682
REMARK  Name = 
REMARK  10 active torsions:
REMARK  status: ('A' for Active; 'I' for Inactive)
REMARK    1  A    between atoms: C_1  and  O_2
REMARK    2  A    between atoms: O_2  and  C_3
REMARK    3  A    between atoms: C_7  and  N_8
REMARK    4  A    between atoms: N_8  and  C_9
REMARK    5  A    between atoms: N_8  and  C_15
REMARK    6  A    between atoms: C_9  and  C_10
REMARK    7  A    between atoms: C_10  and  N_11
REMARK    8  A    between atoms: C_12  and  C_13
REMARK    9  A    between atoms: C_19  and  O_20
REMARK   10  A    between atoms: O_20  and  C_21
REMARK                            x       y       z     vdW  Elec       q    Type
REMARK                         _______ _______ _______ _____ _____    ______ ____
ROOT
ATOM      1  N   UNL     1       5.157   4.492  16.974  0.00  0.00    +0.000 N 
ENDROOT
BRANCH   1   6
ATOM      2  C   UNL     1       2.939   3.168  19.667  0.00  0.00    +0.000 A 
ATOM      3  C   UNL     1       1.673   3.388  19.127  0.00  0.00    +0.000 A 
ATOM      4  C   UNL     1       1.542   3.961  17.864  0.00  0.00    +0.000 A 
ATOM      5  C   UNL     1       2.679   4.312  17.127  0.00  0.00    +0.000 A 
ATOM      6  C   UNL     1       3.964   4.144  17.654  0.00  0.00    +0.000 A 
ATOM      7  C   UNL     1       4.064   3.560  18.939  0.00  0.00    +0.000 A 
BRANCH   2   9
ATOM      8  C   UNL     1       1.859   2.878  21.764  0.00  0.00    +0.000 C 
ATOM      9  O   UNL     1       2.945   2.569  20.898  0.00  0.00    +0.000 OA
ENDBRANCH   2   9
ENDBRANCH   1   6
BRANCH   1  10
ATOM     10  C   UNL     1       6.155   5.344  17.559  0.00  0.00    +0.000 A 
ATOM     11  C   UNL     1       7.034   4.871  18.545  0.00  0.00    +0.000 A 
ATOM     12  C   UNL     1       8.020   5.698  19.093  0.00  0.00    +0.000 A 
ATOM     13  C   UNL     1       8.160   7.008  18.645  0.00  0.00    +0.000 A 
ATOM     14  C   UNL     1       7.320   7.506  17.650  0.00  0.00    +0.000 A 
ATOM     15  C   UNL     1       6.321   6.679  17.124  0.00  0.00    +0.000 A 
BRANCH  14  16
ATOM     16  O   UNL     1       7.578   8.798  17.285  0.00  0.00    +0.000 OA
ATOM     17  C   UNL     1       8.439   9.551  18.130  0.00  0.00    +0.000 C 
ENDBRANCH  14  16
ENDBRANCH   1  10
BRANCH   1  18
ATOM     18  C   UNL     1       5.686   3.626  15.878  0.00  0.00    +0.000 C 
BRANCH  18  19
ATOM     19  C   UNL     1       5.586   4.232  14.458  0.00  0.00    +0.000 C 
BRANCH  19  20
ATOM     20  N   UNL     1       6.378   3.529  13.449  0.00  0.00    +0.000 N 
ATOM     21  C   UNL     1       5.833   3.129  12.256  0.00  0.00    +0.000 C 
ATOM     22  C   UNL     1       6.726   2.250  11.415  0.00  0.00    +0.000 C 
ATOM     23  O   UNL     1       4.705   3.450  11.884  0.00  0.00    +0.000 OA
ATOM     24  H   UNL     1       7.268   3.139  13.732  0.00  0.00    +0.000 HD
ENDBRANCH  19  20
ENDBRANCH  18  19
ENDBRANCH   1  18
TORSDOF 7
ENDMDL
MODEL 4
REMARK VINA RESULT:      -7.2      2.587      6.574
REMARK  Name = 
REMARK  10 active torsions:
REMARK  status: ('A' for Active; 'I' for Inactive)
REMARK    1  A    between atoms: C_1  and  O_2
REMARK    2  A    between atoms: O_2  and  C_3
REMARK    3  A    between atoms: C_7  and  N_8
REMARK    4  A    between atoms: N_8  and  C_9
REMARK    5  A    between atoms: N_8  and  C_15
REMARK    6  A    between atoms: C_9  and  C_10
REMARK    7  A    between atoms: C_10  and  N_11
REMARK    8  A    between atoms: C_12  and  C_13
REMARK    9  A    between atoms: C_19  and  O_20
REMARK   10  A    between atoms: O_20  and  C_21
REMARK                            x       y       z     vdW  Elec       q    Type
REMARK                         _______ _______ _______ _____ _____    ______ ____
ROOT
ATOM      1  N   UNL     1       5.189   4.704  16.905  0.00  0.00    +0.000 N 
ENDROOT
BRANCH   1   6
ATOM      2  C   UNL     1       2.304   5.134  19.232  0.00  0.00    +0.000 A 
ATOM      3  C   UNL     1       1.455   4.107  18.825  0.00  0.00    +0.000 A 
ATOM      4  C   UNL     1       1.834   3.255  17.790  0.00  0.00    +0.000 A 
ATOM      5  C   UNL     1       3.072   3.419  17.158  0.00  0.00    +0.000 A 
ATOM      6  C   UNL     1       3.932   4.465  17.512  0.00  0.00    +0.000 A 
ATOM      7  C   UNL     1       3.518   5.313  18.566  0.00  0.00    +0.000 A 
BRANCH   2   9
ATOM      8  C   UNL     1       2.011   7.294  20.178  0.00  0.00    +0.000 C 
ATOM      9  O   UNL     1       1.841   5.885  20.279  0.00  0.00    +0.000 OA
ENDBRANCH   2   9
ENDBRANCH   1   6
BRANCH   1  10
ATOM     10  C   UNL     1       6.201   5.514  17.524  0.00  0.00    +0.000 A 
ATOM     11  C   UNL     1       7.029   5.005  18.536  0.00  0.00    +0.000 A 
ATOM     12  C   UNL     1       8.029   5.791  19.117  0.00  0.00    +0.000 A 
ATOM     13  C   UNL     1       8.234   7.096  18.678  0.00  0.00    +0.000 A 
ATOM     14  C   UNL     1       7.446   7.629  17.659  0.00  0.00    +0.000 A 
ATOM     15  C   UNL     1       6.432   6.843  17.099  0.00  0.00    +0.000 A 
BRANCH  14  16
ATOM     16  O   UNL     1       7.766   8.911  17.307  0.00  0.00    +0.000 OA
ATOM     17  C   UNL     1       8.520   9.671  18.243  0.00  0.00    +0.000 C 
ENDBRANCH  14  16
ENDBRANCH   1  10
BRANCH   1  18
ATOM     18  C   UNL     1       5.731   3.756  15.885  0.00  0.00    +0.000 C 
BRANCH  18  19
ATOM     19  C   UNL     1       5.965   4.366  14.483  0.00  0.00    +0.000 C 
BRANCH  19  20
ATOM     20  N   UNL     1       5.023   3.904  13.464  0.00  0.00    +0.000 N 
ATOM     21  C   UNL     1       5.452   3.404  12.260  0.00  0.00    +0.000 C 
ATOM     22  C   UNL     1       4.357   3.158  11.251  0.00  0.00    +0.000 C 
ATOM     23  O   UNL     1       6.632   3.170  12.005  0.00  0.00    +0.000 OA
ATOM     24  H   UNL     1       4.051   4.169  13.561  0.00  0.00    +0.000 HD
ENDBRANCH  19  20
ENDBRANCH  18  19
ENDBRANCH   1  18
TORSDOF 7
ENDMDL
MODEL 5
REMARK VINA RESULT:      -7.2      2.948      6.573
REMARK  Name = 
REMARK  10 active torsions:
REMARK  status: ('A' for Active; 'I' for Inactive)
REMARK    1  A    between atoms: C_1  and  O_2
REMARK    2  A    between atoms: O_2  and  C_3
REMARK    3  A    between atoms: C_7  and  N_8
REMARK    4  A    between atoms: N_8  and  C_9
REMARK    5  A    between atoms: N_8  and  C_15
REMARK    6  A    between atoms: C_9  and  C_10
REMARK    7  A    between atoms: C_10  and  N_11
REMARK    8  A    between atoms: C_12  and  C_13
REMARK    9  A    between atoms: C_19  and  O_20
REMARK   10  A    between atoms: O_20  and  C_21
REMARK                            x       y       z     vdW  Elec       q    Type
REMARK                         _______ _______ _______ _____ _____    ______ ____
ROOT
ATOM      1  N   UNL     1       5.556   5.066  16.856  0.00  0.00    +0.000 N 
ENDROOT
BRANCH   1   6
ATOM      2  C   UNL     1       2.325   3.427  17.750  0.00  0.00    +0.000 A 
ATOM      3  C   UNL     1       1.553   4.517  18.148  0.00  0.00    +0.000 A 
ATOM      4  C   UNL     1       2.088   5.803  18.110  0.00  0.00    +0.000 A 
ATOM      5  C   UNL     1       3.399   6.010  17.665  0.00  0.00    +0.000 A 
ATOM      6  C   UNL     1       4.216   4.935  17.297  0.00  0.00    +0.000 A 
ATOM      7  C   UNL     1       3.645   3.642  17.347  0.00  0.00    +0.000 A 
BRANCH   2   9
ATOM      8  C   UNL     1       0.738   2.038  18.846  0.00  0.00    +0.000 C 
ATOM      9  O   UNL     1       1.684   2.218  17.798  0.00  0.00    +0.000 OA
ENDBRANCH   2   9
ENDBRANCH   1   6
BRANCH   1  10
ATOM     10  C   UNL     1       6.520   5.873  17.551  0.00  0.00    +0.000 A 
ATOM     11  C   UNL     1       7.286   5.352  18.606  0.00  0.00    +0.000 A 
ATOM     12  C   UNL     1       8.240   6.134  19.262  0.00  0.00    +0.000 A 
ATOM     13  C   UNL     1       8.463   7.448  18.859  0.00  0.00    +0.000 A 
ATOM     14  C   UNL     1       7.737   7.992  17.801  0.00  0.00    +0.000 A 
ATOM     15  C   UNL     1       6.767   7.210  17.165  0.00  0.00    +0.000 A 
BRANCH  14  16
ATOM     16  O   UNL     1       8.069   9.283  17.492  0.00  0.00    +0.000 OA
ATOM     17  C   UNL     1       8.792  10.018  18.471  0.00  0.00    +0.000 C 
ENDBRANCH  14  16
ENDBRANCH   1  10
BRANCH   1  18
ATOM     18  C   UNL     1       6.175   4.018  15.990  0.00  0.00    +0.000 C 
BRANCH  18  19
ATOM     19  C   UNL     1       6.383   4.427  14.513  0.00  0.00    +0.000 C 
BRANCH  19  20
ATOM     20  N   UNL     1       5.335   3.960  13.607  0.00  0.00    +0.000 N 
ATOM     21  C   UNL     1       5.626   3.473  12.358  0.00  0.00    +0.000 C 
ATOM     22  C   UNL     1       4.424   3.219  11.482  0.00  0.00    +0.000 C 
ATOM     23  O   UNL     1       6.771   3.257  11.965  0.00  0.00    +0.000 OA
ATOM     24  H   UNL     1       4.378   4.211  13.820  0.00  0.00    +0.000 HD
ENDBRANCH  19  20
ENDBRANCH  18  19
ENDBRANCH   1  18
TORSDOF 7
ENDMDL
MODEL 6
REMARK VINA RESULT:      -7.2      2.194      6.618
REMARK  Name = 
REMARK  10 active torsions:
REMARK  status: ('A' for Active; 'I' for Inactive)
REMARK    1  A    between atoms: C_1  and  O_2
REMARK    2  A    between atoms: O_2  and  C_3
REMARK    3  A    between atoms: C_7  and  N_8
REMARK    4  A    between atoms: N_8  and  C_9
REMARK    5  A    between atoms: N_8  and  C_15
REMARK    6  A    between atoms: C_9  and  C_10
REMARK    7  A    between atoms: C_10  and  N_11
REMARK    8  A    between atoms: C_12  and  C_13
REMARK    9  A    between atoms: C_19  and  O_20
REMARK   10  A    between atoms: O_20  and  C_21
REMARK                            x       y       z     vdW  Elec       q    Type
REMARK                         _______ _______ _______ _____ _____    ______ ____
ROOT
ATOM      1  N   UNL     1       4.562   5.037  17.118  0.00  0.00    +0.000 N 
ENDROOT
BRANCH   1   6
ATOM      2  C   UNL     1       1.919   4.811  19.743  0.00  0.00    +0.000 A 
ATOM      3  C   UNL     1       1.549   3.471  19.660  0.00  0.00    +0.000 A 
ATOM      4  C   UNL     1       2.179   2.626  18.749  0.00  0.00    +0.000 A 
ATOM      5  C   UNL     1       3.192   3.117  17.916  0.00  0.00    +0.000 A 
ATOM      6  C   UNL     1       3.560   4.467  17.943  0.00  0.00    +0.000 A 
ATOM      7  C   UNL     1       2.902   5.298  18.879  0.00  0.00    +0.000 A 
BRANCH   2   9
ATOM      8  C   UNL     1       1.607   6.909  20.814  0.00  0.00    +0.000 C 
ATOM      9  O   UNL     1       1.256   5.535  20.698  0.00  0.00    +0.000 OA
ENDBRANCH   2   9
ENDBRANCH   1   6
BRANCH   1  10
ATOM     10  C   UNL     1       5.738   5.661  17.656  0.00  0.00    +0.000 A 
ATOM     11  C   UNL     1       6.494   5.050  18.668  0.00  0.00    +0.000 A 
ATOM     12  C   UNL     1       7.652   5.651  19.171  0.00  0.00    +0.000 A 
ATOM     13  C   UNL     1       8.089   6.867  18.651  0.00  0.00    +0.000 A 
ATOM     14  C   UNL     1       7.376   7.492  17.629  0.00  0.00    +0.000 A 
ATOM     15  C   UNL     1       6.206   6.895  17.148  0.00  0.00    +0.000 A 
BRANCH  14  16
ATOM     16  O   UNL     1       7.926   8.667  17.193  0.00  0.00    +0.000 OA
ATOM     17  C   UNL     1       8.462   9.537  18.182  0.00  0.00    +0.000 C 
ENDBRANCH  14  16
ENDBRANCH   1  10
BRANCH   1  18
ATOM     18  C   UNL     1       4.724   4.588  15.703  0.00  0.00    +0.000 C 
BRANCH  18  19
ATOM     19  C   UNL     1       5.958   3.693  15.436  0.00  0.00    +0.000 C 
BRANCH  19  20
ATOM     20  N   UNL     1       6.366   3.636  14.033  0.00  0.00    +0.000 N 
ATOM     21  C   UNL     1       7.171   4.598  13.477  0.00  0.00    +0.000 C 
ATOM     22  C   UNL     1       7.336   4.497  11.980  0.00  0.00    +0.000 C 
ATOM     23  O   UNL     1       7.722   5.482  14.131  0.00  0.00    +0.000 OA
ATOM     24  H   UNL     1       5.865   3.007  13.419  0.00  0.00    +0.000 HD
ENDBRANCH  19  20
ENDBRANCH  18  19
ENDBRANCH   1  18
TORSDOF 7
ENDMDL
MODEL 7
REMARK VINA RESULT:      -7.2      1.006      5.674
REMARK  Name = 
REMARK  10 active torsions:
REMARK  status: ('A' for Active; 'I' for Inactive)
REMARK    1  A    between atoms: C_1  and  O_2
REMARK    2  A    between atoms: O_2  and  C_3
REMARK    3  A    between atoms: C_7  and  N_8
REMARK    4  A    between atoms: N_8  and  C_9
REMARK    5  A    between atoms: N_8  and  C_15
REMARK    6  A    between atoms: C_9  and  C_10
REMARK    7  A    between atoms: C_10  and  N_11
REMARK    8  A    between atoms: C_12  and  C_13
REMARK    9  A    between atoms: C_19  and  O_20
REMARK   10  A    between atoms: O_20  and  C_21
REMARK                            x       y       z     vdW  Elec       q    Type
REMARK                         _______ _______ _______ _____ _____    ______ ____
ROOT
ATOM      1  N   UNL     1       3.243   5.796  17.958  0.00  0.00    +0.000 N 
ENDROOT
BRANCH   1   6
ATOM      2  C   UNL     1       1.621   9.057  18.771  0.00  0.00    +0.000 A 
ATOM      3  C   UNL     1       1.217   8.854  20.089  0.00  0.00    +0.000 A 
ATOM      4  C   UNL     1       1.491   7.645  20.725  0.00  0.00    +0.000 A 
ATOM      5  C   UNL     1       2.179   6.631  20.048  0.00  0.00    +0.000 A 
ATOM      6  C   UNL     1       2.562   6.784  18.711  0.00  0.00    +0.000 A 
ATOM      7  C   UNL     1       2.270   8.023  18.093  0.00  0.00    +0.000 A 
BRANCH   2   9
ATOM      8  C   UNL     1       1.236  11.363  19.196  0.00  0.00    +0.000 C 
ATOM      9  O   UNL     1       1.327  10.294  18.261  0.00  0.00    +0.000 OA
ENDBRANCH   2   9
ENDBRANCH   1   6
BRANCH   1  10
ATOM     10  C   UNL     1       4.676   5.719  17.908  0.00  0.00    +0.000 A 
ATOM     11  C   UNL     1       5.443   5.586  19.076  0.00  0.00    +0.000 A 
ATOM     12  C   UNL     1       6.837   5.486  19.019  0.00  0.00    +0.000 A 
ATOM     13  C   UNL     1       7.488   5.493  17.788  0.00  0.00    +0.000 A 
ATOM     14  C   UNL     1       6.757   5.601  16.606  0.00  0.00    +0.000 A 
ATOM     15  C   UNL     1       5.365   5.724  16.672  0.00  0.00    +0.000 A 
BRANCH  14  16
ATOM     16  O   UNL     1       7.515   5.571  15.468  0.00  0.00    +0.000 OA
ATOM     17  C   UNL     1       6.998   4.839  14.363  0.00  0.00    +0.000 C 
ENDBRANCH  14  16
ENDBRANCH   1  10
BRANCH   1  18
ATOM     18  C   UNL     1       2.568   4.510  17.608  0.00  0.00    +0.000 C 
BRANCH  18  19
ATOM     19  C   UNL     1       3.192   3.247  18.248  0.00  0.00    +0.000 C 
BRANCH  19  20
ATOM     20  N   UNL     1       2.857   3.062  19.659  0.00  0.00    +0.000 N 
ATOM     21  C   UNL     1       1.593   2.711  20.059  0.00  0.00    +0.000 C 
ATOM     22  C   UNL     1       1.367   2.752  21.551  0.00  0.00    +0.000 C 
ATOM     23  O   UNL     1       0.700   2.386  19.278  0.00  0.00    +0.000 OA
ATOM     24  H   UNL     1       3.505   3.417  20.351  0.00  0.00    +0.000 HD
ENDBRANCH  19  20
ENDBRANCH  18  19
ENDBRANCH   1  18
TORSDOF 7
ENDMDL
MODEL 8
REMARK VINA RESULT:      -7.1      2.801      5.383
REMARK  Name = 
REMARK  10 active torsions:
REMARK  status: ('A' for Active; 'I' for Inactive)
REMARK    1  A    between atoms: C_1  and  O_2
REMARK    2  A    between atoms: O_2  and  C_3
REMARK    3  A    between atoms: C_7  and  N_8
REMARK    4  A    between atoms: N_8  and  C_9
REMARK    5  A    between atoms: N_8  and  C_15
REMARK    6  A    between atoms: C_9  and  C_10
REMARK    7  A    between atoms: C_10  and  N_11
REMARK    8  A    between atoms: C_12  and  C_13
REMARK    9  A    between atoms: C_19  and  O_20
REMARK   10  A    between atoms: O_20  and  C_21
REMARK                            x       y       z     vdW  Elec       q    Type
REMARK                         _______ _______ _______ _____ _____    ______ ____
ROOT
ATOM      1  N   UNL     1       5.538   5.129  16.633  0.00  0.00    +0.000 N 
ENDROOT
BRANCH   1   6
ATOM      2  C   UNL     1       7.672   7.944  17.838  0.00  0.00    +0.000 A 
ATOM      3  C   UNL     1       8.368   7.345  18.886  0.00  0.00    +0.000 A 
ATOM      4  C   UNL     1       8.151   6.004  19.194  0.00  0.00    +0.000 A 
ATOM      5  C   UNL     1       7.238   5.248  18.448  0.00  0.00    +0.000 A 
ATOM      6  C   UNL     1       6.491   5.827  17.416  0.00  0.00    +0.000 A 
ATOM      7  C   UNL     1       6.734   7.190  17.128  0.00  0.00    +0.000 A 
BRANCH   2   9
ATOM      8  C   UNL     1       8.839   9.883  18.561  0.00  0.00    +0.000 C 
ATOM      9  O   UNL     1       7.992   9.255  17.606  0.00  0.00    +0.000 OA
ENDBRANCH   2   9
ENDBRANCH   1   6
BRANCH   1  10
ATOM     10  C   UNL     1       4.314   4.620  17.185  0.00  0.00    +0.000 A 
ATOM     11  C   UNL     1       3.720   3.448  16.691  0.00  0.00    +0.000 A 
ATOM     12  C   UNL     1       2.541   2.944  17.248  0.00  0.00    +0.000 A 
ATOM     13  C   UNL     1       1.947   3.591  18.328  0.00  0.00    +0.000 A 
ATOM     14  C   UNL     1       2.521   4.744  18.860  0.00  0.00    +0.000 A 
ATOM     15  C   UNL     1       3.687   5.256  18.282  0.00  0.00    +0.000 A 
BRANCH  14  16
ATOM     16  O   UNL     1       1.851   5.267  19.932  0.00  0.00    +0.000 OA
ATOM     17  C   UNL     1       0.952   4.403  20.618  0.00  0.00    +0.000 C 
ENDBRANCH  14  16
ENDBRANCH   1  10
BRANCH   1  18
ATOM     18  C   UNL     1       5.486   5.322  15.153  0.00  0.00    +0.000 C 
BRANCH  18  19
ATOM     19  C   UNL     1       6.610   4.615  14.360  0.00  0.00    +0.000 C 
BRANCH  19  20
ATOM     20  N   UNL     1       6.160   3.464  13.577  0.00  0.00    +0.000 N 
ATOM     21  C   UNL     1       6.420   3.360  12.234  0.00  0.00    +0.000 C 
ATOM     22  C   UNL     1       5.721   2.216  11.541  0.00  0.00    +0.000 C 
ATOM     23  O   UNL     1       7.159   4.131  11.625  0.00  0.00    +0.000 OA
ATOM     24  H   UNL     1       5.460   2.858  13.985  0.00  0.00    +0.000 HD
ENDBRANCH  19  20
ENDBRANCH  18  19
ENDBRANCH   1  18
TORSDOF 7
ENDMDL
MODEL 9
REMARK VINA RESULT:      -7.1      1.549      5.284
REMARK  Name = 
REMARK  10 active torsions:
REMARK  status: ('A' for Active; 'I' for Inactive)
REMARK    1  A    between atoms: C_1  and  O_2
REMARK    2  A    between atoms: O_2  and  C_3
REMARK    3  A    between atoms: C_7  and  N_8
REMARK    4  A    between atoms: N_8  and  C_9
REMARK    5  A    between atoms: N_8  and  C_15
REMARK    6  A    between atoms: C_9  and  C_10
REMARK    7  A    between atoms: C_10  and  N_11
REMARK    8  A    between atoms: C_12  and  C_13
REMARK    9  A    between atoms: C_19  and  O_20
REMARK   10  A    between atoms: O_20  and  C_21
REMARK                            x       y       z     vdW  Elec       q    Type
REMARK                         _______ _______ _______ _____ _____    ______ ____
ROOT
ATOM      1  N   UNL     1       3.140   4.868  17.473  0.00  0.00    +0.000 N 
ENDROOT
BRANCH   1   6
ATOM      2  C   UNL     1       2.174   8.340  18.445  0.00  0.00    +0.000 A 
ATOM      3  C   UNL     1       1.829   8.175  19.784  0.00  0.00    +0.000 A 
ATOM      4  C   UNL     1       1.926   6.920  20.382  0.00  0.00    +0.000 A 
ATOM      5  C   UNL     1       2.378   5.820  19.644  0.00  0.00    +0.000 A 
ATOM      6  C   UNL     1       2.694   5.940  18.286  0.00  0.00    +0.000 A 
ATOM      7  C   UNL     1       2.585   7.227  17.708  0.00  0.00    +0.000 A 
BRANCH   2   9
ATOM      8  C   UNL     1       1.191  10.490  18.680  0.00  0.00    +0.000 C 
ATOM      9  O   UNL     1       2.071   9.622  17.976  0.00  0.00    +0.000 OA
ENDBRANCH   2   9
ENDBRANCH   1   6
BRANCH   1  10
ATOM     10  C   UNL     1       4.522   4.687  17.128  0.00  0.00    +0.000 A 
ATOM     11  C   UNL     1       4.925   4.487  15.799  0.00  0.00    +0.000 A 
ATOM     12  C   UNL     1       6.275   4.336  15.466  0.00  0.00    +0.000 A 
ATOM     13  C   UNL     1       7.250   4.408  16.457  0.00  0.00    +0.000 A 
ATOM     14  C   UNL     1       6.889   4.628  17.785  0.00  0.00    +0.000 A 
ATOM     15  C   UNL     1       5.535   4.754  18.113  0.00  0.00    +0.000 A 
BRANCH  14  16
ATOM     16  O   UNL     1       7.944   4.699  18.654  0.00  0.00    +0.000 OA
ATOM     17  C   UNL     1       8.011   5.842  19.498  0.00  0.00    +0.000 C 
ENDBRANCH  14  16
ENDBRANCH   1  10
BRANCH   1  18
ATOM     18  C   UNL     1       2.332   3.617  17.358  0.00  0.00    +0.000 C 
BRANCH  18  19
ATOM     19  C   UNL     1       2.944   2.376  18.049  0.00  0.00    +0.000 C 
BRANCH  19  20
ATOM     20  N   UNL     1       2.805   2.370  19.505  0.00  0.00    +0.000 N 
ATOM     21  C   UNL     1       1.580   2.486  20.113  0.00  0.00    +0.000 C 
ATOM     22  C   UNL     1       1.631   2.660  21.610  0.00  0.00    +0.000 C 
ATOM     23  O   UNL     1       0.514   2.455  19.500  0.00  0.00    +0.000 OA
ATOM     24  H   UNL     1       3.639   2.511  20.061  0.00  0.00    +0.000 HD
ENDBRANCH  19  20
ENDBRANCH  18  19
ENDBRANCH   1  18
TORSDOF 7
ENDMDL
