MODEL 1
REMARK VINA RESULT:      -7.5      0.000      0.000
REMARK  Name = 
REMARK  3 active torsions:
REMARK  status: ('A' for Active; 'I' for Inactive)
REMARK    1  A    between atoms: C_5  and  N_6
REMARK    2  A    between atoms: N_6  and  C_7
REMARK    3  A    between atoms: C_7  and  C_8
REMARK                            x       y       z     vdW  Elec       q    Type
REMARK                         _______ _______ _______ _____ _____    ______ ____
ROOT
ATOM      1  C   UNL     1       4.855   3.688  16.693  0.00  0.00    +0.000 C 
ENDROOT
BRANCH   1   2
ATOM      2  C   UNL     1       3.758   3.652  17.732  0.00  0.00    +0.000 A 
ATOM      3  C   UNL     1       2.460   4.121  17.424  0.00  0.00    +0.000 A 
ATOM      4  C   UNL     1       1.423   4.038  18.362  0.00  0.00    +0.000 A 
ATOM      5  C   UNL     1       1.716   3.501  19.597  0.00  0.00    +0.000 A 
ATOM      6  C   UNL     1       2.980   3.065  19.913  0.00  0.00    +0.000 A 
ATOM      7  C   UNL     1       4.020   3.129  19.011  0.00  0.00    +0.000 A 
ATOM      8  O   UNL     1       3.058   2.570  21.178  0.00  0.00    +0.000 OA
ATOM      9  C   UNL     1       1.705   2.780  21.633  0.00  0.00    +0.000 C 
ATOM     10  O   UNL     1       0.838   3.334  20.622  0.00  0.00    +0.000 OA
ENDBRANCH   1   2
BRANCH   1  11
ATOM     11  N   UNL     1       6.160   3.825  17.319  0.00  0.00    +0.000 N 
ATOM     12  H   UNL     1       6.836   3.130  17.013  0.00  0.00    +0.000 HD
BRANCH  11  17
ATOM     13 CL   UNL     1       8.401   9.243  18.266  0.00  0.00    +0.000 Cl
ATOM     14  C   UNL     1       7.765   7.674  17.966  0.00  0.00    +0.000 A 
ATOM     15  C   UNL     1       6.854   7.483  16.935  0.00  0.00    +0.000 A 
ATOM     16  C   UNL     1       6.325   6.209  16.701  0.00  0.00    +0.000 A 
ATOM     17  C   UNL     1       6.719   5.100  17.464  0.00  0.00    +0.000 A 
ATOM     18  C   UNL     1       7.620   5.326  18.516  0.00  0.00    +0.000 A 
ATOM     19  C   UNL     1       8.148   6.600  18.763  0.00  0.00    +0.000 A 
ENDBRANCH  11  17
ENDBRANCH   1  11
TORSDOF 3
ENDMDL
MODEL 2
REMARK VINA RESULT:      -7.3      0.725      1.335
REMARK  Name = 
REMARK  3 active torsions:
REMARK  status: ('A' for Active; 'I' for Inactive)
REMARK    1  A    between atoms: C_5  and  N_6
REMARK    2  A    between atoms: N_6  and  C_7
REMARK    3  A    between atoms: C_7  and  C_8
REMARK                            x       y       z     vdW  Elec       q    Type
REMARK                         _______ _______ _______ _____ _____    ______ ____
ROOT
ATOM      1  C   UNL     1       4.847   3.741  16.425  0.00  0.00    +0.000 C 
ENDROOT
BRANCH   1   2
ATOM      2  C   UNL     1       3.990   3.988  17.644  0.00  0.00    +0.000 A 
ATOM      3  C   UNL     1       3.142   5.117  17.712  0.00  0.00    +0.000 A 
ATOM      4  C   UNL     1       2.302   5.322  18.813  0.00  0.00    +0.000 A 
ATOM      5  C   UNL     1       2.343   4.395  19.833  0.00  0.00    +0.000 A 
ATOM      6  C   UNL     1       3.180   3.308  19.787  0.00  0.00    +0.000 A 
ATOM      7  C   UNL     1       4.016   3.076  18.716  0.00  0.00    +0.000 A 
ATOM      8  O   UNL     1       3.067   2.517  20.888  0.00  0.00    +0.000 OA
ATOM      9  C   UNL     1       2.088   3.254  21.649  0.00  0.00    +0.000 C 
ATOM     10  O   UNL     1       1.594   4.426  20.968  0.00  0.00    +0.000 OA
ENDBRANCH   1   2
BRANCH   1  11
ATOM     11  N   UNL     1       6.261   3.825  16.755  0.00  0.00    +0.000 N 
ATOM     12  H   UNL     1       6.870   3.402  16.060  0.00  0.00    +0.000 HD
BRANCH  11  17
ATOM     13 CL   UNL     1       8.631   8.926  18.661  0.00  0.00    +0.000 Cl
ATOM     14  C   UNL     1       7.928   7.449  18.132  0.00  0.00    +0.000 A 
ATOM     15  C   UNL     1       8.084   6.297  18.894  0.00  0.00    +0.000 A 
ATOM     16  C   UNL     1       7.525   5.092  18.455  0.00  0.00    +0.000 A 
ATOM     17  C   UNL     1       6.773   5.020  17.273  0.00  0.00    +0.000 A 
ATOM     18  C   UNL     1       6.652   6.193  16.511  0.00  0.00    +0.000 A 
ATOM     19  C   UNL     1       7.217   7.401  16.938  0.00  0.00    +0.000 A 
ENDBRANCH  11  17
ENDBRANCH   1  11
TORSDOF 3
ENDMDL
MODEL 3
REMARK VINA RESULT:      -6.9      0.991      1.186
REMARK  Name = 
REMARK  3 active torsions:
REMARK  status: ('A' for Active; 'I' for Inactive)
REMARK    1  A    between atoms: C_5  and  N_6
REMARK    2  A    between atoms: N_6  and  C_7
REMARK    3  A    between atoms: C_7  and  C_8
REMARK                            x       y       z     vdW  Elec       q    Type
REMARK                         _______ _______ _______ _____ _____    ______ ____
ROOT
ATOM      1  C   UNL     1       4.484   3.931  16.456  0.00  0.00    +0.000 C 
ENDROOT
BRANCH   1   2
ATOM      2  C   UNL     1       3.717   3.475  17.676  0.00  0.00    +0.000 A 
ATOM      3  C   UNL     1       3.220   2.153  17.760  0.00  0.00    +0.000 A 
ATOM      4  C   UNL     1       2.559   1.705  18.911  0.00  0.00    +0.000 A 
ATOM      5  C   UNL     1       2.397   2.599  19.947  0.00  0.00    +0.000 A 
ATOM      6  C   UNL     1       2.856   3.891  19.865  0.00  0.00    +0.000 A 
ATOM      7  C   UNL     1       3.513   4.361  18.749  0.00  0.00    +0.000 A 
ATOM      8  O   UNL     1       2.596   4.608  20.992  0.00  0.00    +0.000 OA
ATOM      9  C   UNL     1       1.888   3.627  21.778  0.00  0.00    +0.000 C 
ATOM     10  O   UNL     1       1.792   2.337  21.138  0.00  0.00    +0.000 OA
ENDBRANCH   1   2
BRANCH   1  11
ATOM     11  N   UNL     1       5.918   3.863  16.687  0.00  0.00    +0.000 N 
ATOM     12  H   UNL     1       6.424   3.347  15.972  0.00  0.00    +0.000 HD
BRANCH  11  17
ATOM     13 CL   UNL     1       8.631   8.697  18.819  0.00  0.00    +0.000 Cl
ATOM     14  C   UNL     1       7.861   7.300  18.178  0.00  0.00    +0.000 A 
ATOM     15  C   UNL     1       7.080   7.404  17.033  0.00  0.00    +0.000 A 
ATOM     16  C   UNL     1       6.442   6.269  16.521  0.00  0.00    +0.000 A 
ATOM     17  C   UNL     1       6.597   5.009  17.116  0.00  0.00    +0.000 A 
ATOM     18  C   UNL     1       7.370   4.937  18.286  0.00  0.00    +0.000 A 
ATOM     19  C   UNL     1       8.006   6.069  18.811  0.00  0.00    +0.000 A 
ENDBRANCH  11  17
ENDBRANCH   1  11
TORSDOF 3
ENDMDL
MODEL 4
REMARK VINA RESULT:      -6.9      1.019      1.765
REMARK  Name = 
REMARK  3 active torsions:
REMARK  status: ('A' for Active; 'I' for Inactive)
REMARK    1  A    between atoms: C_5  and  N_6
REMARK    2  A    between atoms: N_6  and  C_7
REMARK    3  A    between atoms: C_7  and  C_8
REMARK                            x       y       z     vdW  Elec       q    Type
REMARK                         _______ _______ _______ _____ _____    ______ ____
ROOT
ATOM      1  C   UNL     1       4.977   3.832  16.201  0.00  0.00    +0.000 C 
ENDROOT
BRANCH   1   2
ATOM      2  C   UNL     1       3.913   3.540  17.233  0.00  0.00    +0.000 A 
ATOM      3  C   UNL     1       3.481   2.213  17.466  0.00  0.00    +0.000 A 
ATOM      4  C   UNL     1       2.538   1.928  18.460  0.00  0.00    +0.000 A 
ATOM      5  C   UNL     1       2.035   2.983  19.191  0.00  0.00    +0.000 A 
ATOM      6  C   UNL     1       2.432   4.277  18.956  0.00  0.00    +0.000 A 
ATOM      7  C   UNL     1       3.360   4.590  17.988  0.00  0.00    +0.000 A 
ATOM      8  O   UNL     1       1.819   5.167  19.783  0.00  0.00    +0.000 OA
ATOM      9  C   UNL     1       0.964   4.286  20.540  0.00  0.00    +0.000 C 
ATOM     10  O   UNL     1       1.124   2.894  20.197  0.00  0.00    +0.000 OA
ENDBRANCH   1   2
BRANCH   1  11
ATOM     11  N   UNL     1       6.298   3.870  16.811  0.00  0.00    +0.000 N 
ATOM     12  H   UNL     1       6.997   3.329  16.308  0.00  0.00    +0.000 HD
BRANCH  11  17
ATOM     13 CL   UNL     1       8.584   9.065  18.560  0.00  0.00    +0.000 Cl
ATOM     14  C   UNL     1       7.906   7.560  18.077  0.00  0.00    +0.000 A 
ATOM     15  C   UNL     1       8.134   6.422  18.841  0.00  0.00    +0.000 A 
ATOM     16  C   UNL     1       7.595   5.195  18.439  0.00  0.00    +0.000 A 
ATOM     17  C   UNL     1       6.793   5.086  17.294  0.00  0.00    +0.000 A 
ATOM     18  C   UNL     1       6.600   6.246  16.527  0.00  0.00    +0.000 A 
ATOM     19  C   UNL     1       7.143   7.477  16.917  0.00  0.00    +0.000 A 
ENDBRANCH  11  17
ENDBRANCH   1  11
TORSDOF 3
ENDMDL
MODEL 5
REMARK VINA RESULT:      -6.9      3.830      6.382
REMARK  Name = 
REMARK  3 active torsions:
REMARK  status: ('A' for Active; 'I' for Inactive)
REMARK    1  A    between atoms: C_5  and  N_6
REMARK    2  A    between atoms: N_6  and  C_7
REMARK    3  A    between atoms: C_7  and  C_8
REMARK                            x       y       z     vdW  Elec       q    Type
REMARK                         _______ _______ _______ _____ _____    ______ ____
ROOT
ATOM      1  C   UNL     1       5.819   3.886  16.157  0.00  0.00    +0.000 C 
ENDROOT
BRANCH   1   2
ATOM      2  C   UNL     1       6.544   4.932  16.971  0.00  0.00    +0.000 A 
ATOM      3  C   UNL     1       7.219   4.576  18.162  0.00  0.00    +0.000 A 
ATOM      4  C   UNL     1       7.942   5.527  18.892  0.00  0.00    +0.000 A 
ATOM      5  C   UNL     1       7.959   6.822  18.419  0.00  0.00    +0.000 A 
ATOM      6  C   UNL     1       7.288   7.181  17.276  0.00  0.00    +0.000 A 
ATOM      7  C   UNL     1       6.571   6.268  16.534  0.00  0.00    +0.000 A 
ATOM      8  O   UNL     1       7.433   8.502  16.982  0.00  0.00    +0.000 OA
ATOM      9  C   UNL     1       8.242   8.938  18.093  0.00  0.00    +0.000 C 
ATOM     10  O   UNL     1       8.614   7.869  18.988  0.00  0.00    +0.000 OA
ENDBRANCH   1   2
BRANCH   1  11
ATOM     11  N   UNL     1       4.382   4.113  16.179  0.00  0.00    +0.000 N 
ATOM     12  H   UNL     1       3.898   3.751  15.361  0.00  0.00    +0.000 HD
BRANCH  11  17
ATOM     13 CL   UNL     1       1.184   2.987  21.055  0.00  0.00    +0.000 Cl
ATOM     14  C   UNL     1       2.127   3.331  19.659  0.00  0.00    +0.000 A 
ATOM     15  C   UNL     1       2.140   4.617  19.132  0.00  0.00    +0.000 A 
ATOM     16  C   UNL     1       2.894   4.892  17.987  0.00  0.00    +0.000 A 
ATOM     17  C   UNL     1       3.674   3.905  17.368  0.00  0.00    +0.000 A 
ATOM     18  C   UNL     1       3.623   2.609  17.904  0.00  0.00    +0.000 A 
ATOM     19  C   UNL     1       2.863   2.322  19.046  0.00  0.00    +0.000 A 
ENDBRANCH  11  17
ENDBRANCH   1  11
TORSDOF 3
ENDMDL
MODEL 6
REMARK VINA RESULT:      -6.9      4.409      6.035
REMARK  Name = 
REMARK  3 active torsions:
REMARK  status: ('A' for Active; 'I' for Inactive)
REMARK    1  A    between atoms: C_5  and  N_6
REMARK    2  A    between atoms: N_6  and  C_7
REMARK    3  A    between atoms: C_7  and  C_8
REMARK                            x       y       z     vdW  Elec       q    Type
REMARK                         _______ _______ _______ _____ _____    ______ ____
ROOT
ATOM      1  C   UNL     1       2.943   4.959  19.259  0.00  0.00    +0.000 C 
ENDROOT
BRANCH   1   2
ATOM      2  C   UNL     1       4.213   4.938  18.440  0.00  0.00    +0.000 A 
ATOM      3  C   UNL     1       5.475   5.070  19.066  0.00  0.00    +0.000 A 
ATOM      4  C   UNL     1       6.659   4.994  18.322  0.00  0.00    +0.000 A 
ATOM      5  C   UNL     1       6.551   4.801  16.962  0.00  0.00    +0.000 A 
ATOM      6  C   UNL     1       5.330   4.693  16.342  0.00  0.00    +0.000 A 
ATOM      7  C   UNL     1       4.147   4.761  17.046  0.00  0.00    +0.000 A 
ATOM      8  O   UNL     1       5.443   4.506  15.000  0.00  0.00    +0.000 OA
ATOM      9  C   UNL     1       6.876   4.545  14.842  0.00  0.00    +0.000 C 
ATOM     10  O   UNL     1       7.588   4.692  16.088  0.00  0.00    +0.000 OA
ENDBRANCH   1   2
BRANCH   1  11
ATOM     11  N   UNL     1       2.930   6.092  20.170  0.00  0.00    +0.000 N 
ATOM     12  H   UNL     1       3.836   6.294  20.586  0.00  0.00    +0.000 HD
BRANCH  11  17
ATOM     13 CL   UNL     1       0.238  11.141  18.578  0.00  0.00    +0.000 Cl
ATOM     14  C   UNL     1       0.992   9.667  19.044  0.00  0.00    +0.000 A 
ATOM     15  C   UNL     1       0.868   9.210  20.350  0.00  0.00    +0.000 A 
ATOM     16  C   UNL     1       1.495   8.019  20.733  0.00  0.00    +0.000 A 
ATOM     17  C   UNL     1       2.223   7.247  19.817  0.00  0.00    +0.000 A 
ATOM     18  C   UNL     1       2.354   7.745  18.511  0.00  0.00    +0.000 A 
ATOM     19  C   UNL     1       1.738   8.941  18.121  0.00  0.00    +0.000 A 
ENDBRANCH  11  17
ENDBRANCH   1  11
TORSDOF 3
ENDMDL
MODEL 7
REMARK VINA RESULT:      -6.9      4.508      6.075
REMARK  Name = 
REMARK  3 active torsions:
REMARK  status: ('A' for Active; 'I' for Inactive)
REMARK    1  A    between atoms: C_5  and  N_6
REMARK    2  A    between atoms: N_6  and  C_7
REMARK    3  A    between atoms: C_7  and  C_8
REMARK                            x       y       z     vdW  Elec       q    Type
REMARK                         _______ _______ _______ _____ _____    ______ ____
ROOT
ATOM      1  C   UNL     1       2.860   5.151  19.131  0.00  0.00    +0.000 C 
ENDROOT
BRANCH   1   2
ATOM      2  C   UNL     1       4.170   5.084  18.381  0.00  0.00    +0.000 A 
ATOM      3  C   UNL     1       5.401   5.138  19.075  0.00  0.00    +0.000 A 
ATOM      4  C   UNL     1       6.618   5.018  18.393  0.00  0.00    +0.000 A 
ATOM      5  C   UNL     1       6.574   4.863  17.024  0.00  0.00    +0.000 A 
ATOM      6  C   UNL     1       5.384   4.833  16.339  0.00  0.00    +0.000 A 
ATOM      7  C   UNL     1       4.170   4.944  16.981  0.00  0.00    +0.000 A 
ATOM      8  O   UNL     1       5.559   4.671  15.000  0.00  0.00    +0.000 OA
ATOM      9  C   UNL     1       6.999   4.641  14.918  0.00  0.00    +0.000 C 
ATOM     10  O   UNL     1       7.650   4.721  16.204  0.00  0.00    +0.000 OA
ENDBRANCH   1   2
BRANCH   1  11
ATOM     11  N   UNL     1       2.854   6.261  20.071  0.00  0.00    +0.000 N 
ATOM     12  H   UNL     1       3.742   6.399  20.547  0.00  0.00    +0.000 HD
BRANCH  11  17
ATOM     13 CL   UNL     1      -0.069  11.222  18.618  0.00  0.00    +0.000 Cl
ATOM     14  C   UNL     1       0.802   9.799  19.033  0.00  0.00    +0.000 A 
ATOM     15  C   UNL     1       1.542   9.134  18.063  0.00  0.00    +0.000 A 
ATOM     16  C   UNL     1       2.239   7.967  18.398  0.00  0.00    +0.000 A 
ATOM     17  C   UNL     1       2.239   7.463  19.707  0.00  0.00    +0.000 A 
ATOM     18  C   UNL     1       1.462   8.140  20.661  0.00  0.00    +0.000 A 
ATOM     19  C   UNL     1       0.755   9.304  20.332  0.00  0.00    +0.000 A 
ENDBRANCH  11  17
ENDBRANCH   1  11
TORSDOF 3
ENDMDL
MODEL 8
REMARK VINA RESULT:      -6.8      2.748      3.367
REMARK  Name = 
REMARK  3 active torsions:
REMARK  status: ('A' for Active; 'I' for Inactive)
REMARK    1  A    between atoms: C_5  and  N_6
REMARK    2  A    between atoms: N_6  and  C_7
REMARK    3  A    between atoms: C_7  and  C_8
REMARK                            x       y       z     vdW  Elec       q    Type
REMARK                         _______ _______ _______ _____ _____    ______ ____
ROOT
ATOM      1  C   UNL     1       3.425   6.840  18.034  0.00  0.00    +0.000 C 
ENDROOT
BRANCH   1   2
ATOM      2  C   UNL     1       2.712   5.647  18.625  0.00  0.00    +0.000 A 
ATOM      3  C   UNL     1       1.938   4.792  17.806  0.00  0.00    +0.000 A 
ATOM      4  C   UNL     1       1.322   3.652  18.335  0.00  0.00    +0.000 A 
ATOM      5  C   UNL     1       1.482   3.401  19.681  0.00  0.00    +0.000 A 
ATOM      6  C   UNL     1       2.213   4.238  20.489  0.00  0.00    +0.000 A 
ATOM      7  C   UNL     1       2.834   5.365  19.998  0.00  0.00    +0.000 A 
ATOM      8  O   UNL     1       2.249   3.813  21.781  0.00  0.00    +0.000 OA
ATOM      9  C   UNL     1       1.425   2.631  21.699  0.00  0.00    +0.000 C 
ATOM     10  O   UNL     1       0.968   2.342  20.361  0.00  0.00    +0.000 OA
ENDBRANCH   1   2
BRANCH   1  11
ATOM     11  N   UNL     1       4.842   6.565  17.854  0.00  0.00    +0.000 N 
ATOM     12  H   UNL     1       5.323   6.317  18.715  0.00  0.00    +0.000 HD
BRANCH  11  17
ATOM     13 CL   UNL     1       6.284   3.374  13.058  0.00  0.00    +0.000 Cl
ATOM     14  C   UNL     1       5.893   4.295  14.456  0.00  0.00    +0.000 A 
ATOM     15  C   UNL     1       5.933   3.698  15.710  0.00  0.00    +0.000 A 
ATOM     16  C   UNL     1       5.600   4.444  16.846  0.00  0.00    +0.000 A 
ATOM     17  C   UNL     1       5.257   5.801  16.758  0.00  0.00    +0.000 A 
ATOM     18  C   UNL     1       5.199   6.371  15.477  0.00  0.00    +0.000 A 
ATOM     19  C   UNL     1       5.523   5.630  14.333  0.00  0.00    +0.000 A 
ENDBRANCH  11  17
ENDBRANCH   1  11
TORSDOF 3
ENDMDL
MODEL 9
REMARK VINA RESULT:      -6.8      3.822      6.414
REMARK  Name = 
REMARK  3 active torsions:
REMARK  status: ('A' for Active; 'I' for Inactive)
REMARK    1  A    between atoms: C_5  and  N_6
REMARK    2  A    between atoms: N_6  and  C_7
REMARK    3  A    between atoms: C_7  and  C_8
REMARK                            x       y       z     vdW  Elec       q    Type
REMARK                         _______ _______ _______ _____ _____    ______ ____
ROOT
ATOM      1  C   UNL     1       5.536   3.940  16.308  0.00  0.00    +0.000 C 
ENDROOT
BRANCH   1   2
ATOM      2  C   UNL     1       6.332   4.965  17.082  0.00  0.00    +0.000 A 
ATOM      3  C   UNL     1       7.007   4.604  18.271  0.00  0.00    +0.000 A 
ATOM      4  C   UNL     1       7.794   5.533  18.962  0.00  0.00    +0.000 A 
ATOM      5  C   UNL     1       7.874   6.812  18.453  0.00  0.00    +0.000 A 
ATOM      6  C   UNL     1       7.204   7.178  17.312  0.00  0.00    +0.000 A 
ATOM      7  C   UNL     1       6.425   6.286  16.607  0.00  0.00    +0.000 A 
ATOM      8  O   UNL     1       7.416   8.479  16.979  0.00  0.00    +0.000 OA
ATOM      9  C   UNL     1       8.268   8.900  18.064  0.00  0.00    +0.000 C 
ATOM     10  O   UNL     1       8.596   7.836  18.983  0.00  0.00    +0.000 OA
ENDBRANCH   1   2
BRANCH   1  11
ATOM     11  N   UNL     1       4.108   4.172  16.453  0.00  0.00    +0.000 N 
ATOM     12  H   UNL     1       3.568   3.933  15.625  0.00  0.00    +0.000 HD
BRANCH  11  17
ATOM     13 CL   UNL     1       1.643   2.805  21.681  0.00  0.00    +0.000 Cl
ATOM     14  C   UNL     1       2.336   3.186  20.154  0.00  0.00    +0.000 A 
ATOM     15  C   UNL     1       2.835   2.170  19.348  0.00  0.00    +0.000 A 
ATOM     16  C   UNL     1       3.413   2.483  18.113  0.00  0.00    +0.000 A 
ATOM     17  C   UNL     1       3.472   3.803  17.644  0.00  0.00    +0.000 A 
ATOM     18  C   UNL     1       2.984   4.813  18.489  0.00  0.00    +0.000 A 
ATOM     19  C   UNL     1       2.412   4.510  19.731  0.00  0.00    +0.000 A 
ENDBRANCH  11  17
ENDBRANCH   1  11
TORSDOF 3
ENDMDL
