MODEL 1
REMARK VINA RESULT:      -6.7      0.000      0.000
REMARK  Name = 
REMARK  8 active torsions:
REMARK  status: ('A' for Active; 'I' for Inactive)
REMARK    1  A    between atoms: C_1  and  O_2
REMARK    2  A    between atoms: O_2  and  C_3
REMARK    3  A    between atoms: C_3  and  C_4
REMARK    4  A    between atoms: C_4  and  N_5
REMARK    5  A    between atoms: C_6  and  C_8
REMARK    6  A    between atoms: C_8  and  C_9
REMARK    7  A    between atoms: N_13  and  C_14
REMARK    8  A    between atoms: C_14  and  C_15
REMARK                            x       y       z     vdW  Elec       q    Type
REMARK                         _______ _______ _______ _____ _____    ______ ____
ROOT
ATOM      1  C   UNL     1       0.797  10.219  19.299  0.00  0.00    +0.000 C 
ATOM      2  C   UNL     1       1.572  11.309  18.478  0.00  0.00    +0.000 C 
ATOM      3  C   UNL     1       0.856  10.179  20.849  0.00  0.00    +0.000 C 
ATOM      4  C   UNL     1       0.241   8.831  21.279  0.00  0.00    +0.000 C 
ATOM      5  C   UNL     1       1.259   7.736  21.044  0.00  0.00    +0.000 C 
ATOM      6  N   UNL     1       1.640   7.629  19.630  0.00  0.00    +0.000 NA
ATOM      7  C   UNL     1       1.596   8.923  18.875  0.00  0.00    +0.000 C 
ENDROOT
BRANCH   1   9
ATOM      8  N   UNL     1      -1.602  10.242  18.332  0.00  0.00    +0.000 N 
ATOM      9  C   UNL     1      -0.626  10.818  19.088  0.00  0.00    +0.000 C 
ATOM     10  O   UNL     1      -0.813  11.998  19.452  0.00  0.00    +0.000 OA
ATOM     11  H   UNL     1      -1.752   9.245  18.445  0.00  0.00    +0.000 HD
BRANCH   8  12
ATOM     12  C   UNL     1      -2.792  11.090  18.151  0.00  0.00    +0.000 C 
BRANCH  12  13
ATOM     13  C   UNL     1      -3.197  11.337  16.715  0.00  0.00    +0.000 C 
BRANCH  13  15
ATOM     14  C   UNL     1      -3.213  10.208  14.657  0.00  0.00    +0.000 C 
ATOM     15  O   UNL     1      -2.560  10.349  15.907  0.00  0.00    +0.000 OA
ENDBRANCH  13  15
ENDBRANCH  12  13
ENDBRANCH   8  12
ENDBRANCH   1   9
BRANCH   6  16
ATOM     16  C   UNL     1       3.036   7.071  19.549  0.00  0.00    +0.000 C 
BRANCH  16  17
ATOM     17  C   UNL     1       3.158   5.833  18.687  0.00  0.00    +0.000 A 
ATOM     18  C   UNL     1       4.122   5.703  17.699  0.00  0.00    +0.000 A 
ATOM     19  S   UNL     1       4.132   4.172  16.966  0.00  0.00    +0.000 S 
ATOM     20  C   UNL     1       2.851   3.601  17.964  0.00  0.00    +0.000 A 
ATOM     21  C   UNL     1       2.304   2.296  17.950  0.00  0.00    +0.000 A 
ATOM     22  C   UNL     1       1.268   1.985  18.831  0.00  0.00    +0.000 A 
ATOM     23  C   UNL     1       0.783   2.949  19.702  0.00  0.00    +0.000 A 
ATOM     24  C   UNL     1       1.341   4.229  19.717  0.00  0.00    +0.000 A 
ATOM     25  C   UNL     1       2.400   4.593  18.832  0.00  0.00    +0.000 A 
ENDBRANCH  16  17
ENDBRANCH   6  16
TORSDOF 6
ENDMDL
MODEL 2
REMARK VINA RESULT:      -6.4      1.412      2.760
REMARK  Name = 
REMARK  8 active torsions:
REMARK  status: ('A' for Active; 'I' for Inactive)
REMARK    1  A    between atoms: C_1  and  O_2
REMARK    2  A    between atoms: O_2  and  C_3
REMARK    3  A    between atoms: C_3  and  C_4
REMARK    4  A    between atoms: C_4  and  N_5
REMARK    5  A    between atoms: C_6  and  C_8
REMARK    6  A    between atoms: C_8  and  C_9
REMARK    7  A    between atoms: N_13  and  C_14
REMARK    8  A    between atoms: C_14  and  C_15
REMARK                            x       y       z     vdW  Elec       q    Type
REMARK                         _______ _______ _______ _____ _____    ______ ____
ROOT
ATOM      1  C   UNL     1       1.053   9.972  18.901  0.00  0.00    +0.000 C 
ATOM      2  C   UNL     1       1.881  11.002  18.055  0.00  0.00    +0.000 C 
ATOM      3  C   UNL     1       1.017  10.040  20.450  0.00  0.00    +0.000 C 
ATOM      4  C   UNL     1       0.371   8.725  20.935  0.00  0.00    +0.000 C 
ATOM      5  C   UNL     1       1.396   7.616  20.839  0.00  0.00    +0.000 C 
ATOM      6  N   UNL     1       1.863   7.411  19.462  0.00  0.00    +0.000 NA
ATOM      7  C   UNL     1       1.870   8.649  18.618  0.00  0.00    +0.000 C 
ENDROOT
BRANCH   1   9
ATOM      8  N   UNL     1      -1.025  10.324  17.400  0.00  0.00    +0.000 N 
ATOM      9  C   UNL     1      -0.352  10.555  18.562  0.00  0.00    +0.000 C 
ATOM     10  O   UNL     1      -0.793  11.459  19.302  0.00  0.00    +0.000 OA
ATOM     11  H   UNL     1      -1.048   9.369  17.058  0.00  0.00    +0.000 HD
BRANCH   8  12
ATOM     12  C   UNL     1      -2.250  11.127  17.253  0.00  0.00    +0.000 C 
BRANCH  12  13
ATOM     13  C   UNL     1      -3.036  10.879  15.985  0.00  0.00    +0.000 C 
BRANCH  13  15
ATOM     14  C   UNL     1      -4.656  11.494  17.568  0.00  0.00    +0.000 C 
ATOM     15  O   UNL     1      -4.359  11.374  16.189  0.00  0.00    +0.000 OA
ENDBRANCH  13  15
ENDBRANCH  12  13
ENDBRANCH   8  12
ENDBRANCH   1   9
BRANCH   6  16
ATOM     16  C   UNL     1       3.259   6.848  19.506  0.00  0.00    +0.000 C 
BRANCH  16  17
ATOM     17  C   UNL     1       3.477   5.665  18.588  0.00  0.00    +0.000 A 
ATOM     18  C   UNL     1       2.517   4.682  18.396  0.00  0.00    +0.000 A 
ATOM     19  S   UNL     1       2.952   3.538  17.220  0.00  0.00    +0.000 S 
ATOM     20  C   UNL     1       4.446   4.327  16.894  0.00  0.00    +0.000 A 
ATOM     21  C   UNL     1       5.401   3.936  15.925  0.00  0.00    +0.000 A 
ATOM     22  C   UNL     1       6.565   4.688  15.777  0.00  0.00    +0.000 A 
ATOM     23  C   UNL     1       6.781   5.800  16.576  0.00  0.00    +0.000 A 
ATOM     24  C   UNL     1       5.826   6.186  17.519  0.00  0.00    +0.000 A 
ATOM     25  C   UNL     1       4.620   5.444  17.708  0.00  0.00    +0.000 A 
ENDBRANCH  16  17
ENDBRANCH   6  16
TORSDOF 6
ENDMDL
MODEL 3
REMARK VINA RESULT:      -6.3      0.893      1.201
REMARK  Name = 
REMARK  8 active torsions:
REMARK  status: ('A' for Active; 'I' for Inactive)
REMARK    1  A    between atoms: C_1  and  O_2
REMARK    2  A    between atoms: O_2  and  C_3
REMARK    3  A    between atoms: C_3  and  C_4
REMARK    4  A    between atoms: C_4  and  N_5
REMARK    5  A    between atoms: C_6  and  C_8
REMARK    6  A    between atoms: C_8  and  C_9
REMARK    7  A    between atoms: N_13  and  C_14
REMARK    8  A    between atoms: C_14  and  C_15
REMARK                            x       y       z     vdW  Elec       q    Type
REMARK                         _______ _______ _______ _____ _____    ______ ____
ROOT
ATOM      1  C   UNL     1       0.973  10.397  19.043  0.00  0.00    +0.000 C 
ATOM      2  C   UNL     1       1.982  11.212  18.161  0.00  0.00    +0.000 C 
ATOM      3  C   UNL     1       0.871  10.623  20.575  0.00  0.00    +0.000 C 
ATOM      4  C   UNL     1       0.018   9.466  21.136  0.00  0.00    +0.000 C 
ATOM      5  C   UNL     1       0.875   8.221  21.207  0.00  0.00    +0.000 C 
ATOM      6  N   UNL     1       1.375   7.817  19.886  0.00  0.00    +0.000 NA
ATOM      7  C   UNL     1       1.603   8.952  18.934  0.00  0.00    +0.000 C 
ENDROOT
BRANCH   1   9
ATOM      8  N   UNL     1      -1.141  10.683  17.580  0.00  0.00    +0.000 N 
ATOM      9  C   UNL     1      -0.315  11.133  18.564  0.00  0.00    +0.000 C 
ATOM     10  O   UNL     1      -0.482  12.309  18.951  0.00  0.00    +0.000 OA
ATOM     11  H   UNL     1      -1.393   9.700  17.597  0.00  0.00    +0.000 HD
BRANCH   8  12
ATOM     12  C   UNL     1      -2.188  11.644  17.198  0.00  0.00    +0.000 C 
BRANCH  12  13
ATOM     13  C   UNL     1      -3.502  11.031  16.767  0.00  0.00    +0.000 C 
BRANCH  13  15
ATOM     14  C   UNL     1      -4.612  11.800  18.686  0.00  0.00    +0.000 C 
ATOM     15  O   UNL     1      -4.217  10.660  17.945  0.00  0.00    +0.000 OA
ENDBRANCH  13  15
ENDBRANCH  12  13
ENDBRANCH   8  12
ENDBRANCH   1   9
BRANCH   6  16
ATOM     16  C   UNL     1       2.671   7.072  20.069  0.00  0.00    +0.000 C 
BRANCH  16  17
ATOM     17  C   UNL     1       2.899   5.972  19.057  0.00  0.00    +0.000 A 
ATOM     18  C   UNL     1       3.862   6.060  18.062  0.00  0.00    +0.000 A 
ATOM     19  S   UNL     1       4.007   4.643  17.139  0.00  0.00    +0.000 S 
ATOM     20  C   UNL     1       2.796   3.831  18.053  0.00  0.00    +0.000 A 
ATOM     21  C   UNL     1       2.372   2.493  17.870  0.00  0.00    +0.000 A 
ATOM     22  C   UNL     1       1.378   1.977  18.701  0.00  0.00    +0.000 A 
ATOM     23  C   UNL     1       0.814   2.772  19.687  0.00  0.00    +0.000 A 
ATOM     24  C   UNL     1       1.250   4.086  19.868  0.00  0.00    +0.000 A 
ATOM     25  C   UNL     1       2.262   4.658  19.039  0.00  0.00    +0.000 A 
ENDBRANCH  16  17
ENDBRANCH   6  16
TORSDOF 6
ENDMDL
MODEL 4
REMARK VINA RESULT:      -6.3      1.357      2.158
REMARK  Name = 
REMARK  8 active torsions:
REMARK  status: ('A' for Active; 'I' for Inactive)
REMARK    1  A    between atoms: C_1  and  O_2
REMARK    2  A    between atoms: O_2  and  C_3
REMARK    3  A    between atoms: C_3  and  C_4
REMARK    4  A    between atoms: C_4  and  N_5
REMARK    5  A    between atoms: C_6  and  C_8
REMARK    6  A    between atoms: C_8  and  C_9
REMARK    7  A    between atoms: N_13  and  C_14
REMARK    8  A    between atoms: C_14  and  C_15
REMARK                            x       y       z     vdW  Elec       q    Type
REMARK                         _______ _______ _______ _____ _____    ______ ____
ROOT
ATOM      1  C   UNL     1       0.915  10.112  19.149  0.00  0.00    +0.000 C 
ATOM      2  C   UNL     1       1.938  10.446  18.006  0.00  0.00    +0.000 C 
ATOM      3  C   UNL     1       1.032  10.759  20.554  0.00  0.00    +0.000 C 
ATOM      4  C   UNL     1       0.068   9.985  21.478  0.00  0.00    +0.000 C 
ATOM      5  C   UNL     1       0.705   8.664  21.847  0.00  0.00    +0.000 C 
ATOM      6  N   UNL     1       0.971   7.828  20.669  0.00  0.00    +0.000 NA
ATOM      7  C   UNL     1       1.275   8.597  19.419  0.00  0.00    +0.000 C 
ENDROOT
BRANCH   1   9
ATOM      8  N   UNL     1      -1.194  10.434  17.685  0.00  0.00    +0.000 N 
ATOM      9  C   UNL     1      -0.277  10.927  18.563  0.00  0.00    +0.000 C 
ATOM     10  O   UNL     1      -0.267  12.164  18.736  0.00  0.00    +0.000 OA
ATOM     11  H   UNL     1      -1.576   9.514  17.880  0.00  0.00    +0.000 HD
BRANCH   8  12
ATOM     12  C   UNL     1      -2.113  11.451  17.151  0.00  0.00    +0.000 C 
BRANCH  12  13
ATOM     13  C   UNL     1      -3.515  10.965  16.858  0.00  0.00    +0.000 C 
BRANCH  13  15
ATOM     14  C   UNL     1      -3.154  10.158  14.684  0.00  0.00    +0.000 C 
ATOM     15  O   UNL     1      -3.765  11.167  15.468  0.00  0.00    +0.000 OA
ENDBRANCH  13  15
ENDBRANCH  12  13
ENDBRANCH   8  12
ENDBRANCH   1   9
BRANCH   6  16
ATOM     16  C   UNL     1       2.136   6.923  20.974  0.00  0.00    +0.000 C 
BRANCH  16  17
ATOM     17  C   UNL     1       2.111   5.611  20.221  0.00  0.00    +0.000 A 
ATOM     18  C   UNL     1       1.208   4.599  20.514  0.00  0.00    +0.000 A 
ATOM     19  S   UNL     1       1.300   3.286  19.442  0.00  0.00    +0.000 S 
ATOM     20  C   UNL     1       2.546   4.029  18.516  0.00  0.00    +0.000 A 
ATOM     21  C   UNL     1       3.147   3.498  17.349  0.00  0.00    +0.000 A 
ATOM     22  C   UNL     1       4.144   4.230  16.707  0.00  0.00    +0.000 A 
ATOM     23  C   UNL     1       4.542   5.458  17.212  0.00  0.00    +0.000 A 
ATOM     24  C   UNL     1       3.932   5.979  18.356  0.00  0.00    +0.000 A 
ATOM     25  C   UNL     1       2.909   5.264  19.049  0.00  0.00    +0.000 A 
ENDBRANCH  16  17
ENDBRANCH   6  16
TORSDOF 6
ENDMDL
MODEL 5
REMARK VINA RESULT:      -6.3      5.094      8.597
REMARK  Name = 
REMARK  8 active torsions:
REMARK  status: ('A' for Active; 'I' for Inactive)
REMARK    1  A    between atoms: C_1  and  O_2
REMARK    2  A    between atoms: O_2  and  C_3
REMARK    3  A    between atoms: C_3  and  C_4
REMARK    4  A    between atoms: C_4  and  N_5
REMARK    5  A    between atoms: C_6  and  C_8
REMARK    6  A    between atoms: C_8  and  C_9
REMARK    7  A    between atoms: N_13  and  C_14
REMARK    8  A    between atoms: C_14  and  C_15
REMARK                            x       y       z     vdW  Elec       q    Type
REMARK                         _______ _______ _______ _____ _____    ______ ____
ROOT
ATOM      1  C   UNL     1      -1.576  11.342  18.567  0.00  0.00    +0.000 C 
ATOM      2  C   UNL     1      -2.887  11.897  19.227  0.00  0.00    +0.000 C 
ATOM      3  C   UNL     1      -0.711  10.263  19.270  0.00  0.00    +0.000 C 
ATOM      4  C   UNL     1       0.619  10.187  18.489  0.00  0.00    +0.000 C 
ATOM      5  C   UNL     1       1.478  11.371  18.876  0.00  0.00    +0.000 C 
ATOM      6  N   UNL     1       0.835  12.651  18.552  0.00  0.00    +0.000 NA
ATOM      7  C   UNL     1      -0.662  12.629  18.621  0.00  0.00    +0.000 C 
ENDROOT
BRANCH   1   9
ATOM      8  N   UNL     1      -2.393  10.816  16.169  0.00  0.00    +0.000 N 
ATOM      9  C   UNL     1      -2.281  10.472  17.482  0.00  0.00    +0.000 C 
ATOM     10  O   UNL     1      -2.971   9.509  17.876  0.00  0.00    +0.000 OA
ATOM     11  H   UNL     1      -1.566  11.186  15.712  0.00  0.00    +0.000 HD
BRANCH   8  12
ATOM     12  C   UNL     1      -3.252   9.910  15.388  0.00  0.00    +0.000 C 
BRANCH  12  13
ATOM     13  C   UNL     1      -3.137  10.047  13.886  0.00  0.00    +0.000 C 
BRANCH  13  15
ATOM     14  C   UNL     1      -4.377   9.809  11.908  0.00  0.00    +0.000 C 
ATOM     15  O   UNL     1      -4.411   9.738  13.322  0.00  0.00    +0.000 OA
ENDBRANCH  13  15
ENDBRANCH  12  13
ENDBRANCH   8  12
ENDBRANCH   1   9
BRANCH   6  16
ATOM     16  C   UNL     1       1.347  13.701  19.502  0.00  0.00    +0.000 C 
BRANCH  16  17
ATOM     17  C   UNL     1       1.781  14.984  18.828  0.00  0.00    +0.000 A 
ATOM     18  C   UNL     1       3.058  15.165  18.318  0.00  0.00    +0.000 A 
ATOM     19  S   UNL     1       3.252  16.638  17.497  0.00  0.00    +0.000 S 
ATOM     20  C   UNL     1       1.614  17.093  17.768  0.00  0.00    +0.000 A 
ATOM     21  C   UNL     1       0.991  18.276  17.303  0.00  0.00    +0.000 A 
ATOM     22  C   UNL     1      -0.353  18.497  17.603  0.00  0.00    +0.000 A 
ATOM     23  C   UNL     1      -1.061  17.569  18.351  0.00  0.00    +0.000 A 
ATOM     24  C   UNL     1      -0.439  16.399  18.793  0.00  0.00    +0.000 A 
ATOM     25  C   UNL     1       0.935  16.131  18.512  0.00  0.00    +0.000 A 
ENDBRANCH  16  17
ENDBRANCH   6  16
TORSDOF 6
ENDMDL
MODEL 6
REMARK VINA RESULT:      -6.1      2.234      3.695
REMARK  Name = 
REMARK  8 active torsions:
REMARK  status: ('A' for Active; 'I' for Inactive)
REMARK    1  A    between atoms: C_1  and  O_2
REMARK    2  A    between atoms: O_2  and  C_3
REMARK    3  A    between atoms: C_3  and  C_4
REMARK    4  A    between atoms: C_4  and  N_5
REMARK    5  A    between atoms: C_6  and  C_8
REMARK    6  A    between atoms: C_8  and  C_9
REMARK    7  A    between atoms: N_13  and  C_14
REMARK    8  A    between atoms: C_14  and  C_15
REMARK                            x       y       z     vdW  Elec       q    Type
REMARK                         _______ _______ _______ _____ _____    ______ ____
ROOT
ATOM      1  C   UNL     1       0.496  10.231  19.691  0.00  0.00    +0.000 C 
ATOM      2  C   UNL     1      -0.759  10.418  20.613  0.00  0.00    +0.000 C 
ATOM      3  C   UNL     1       0.356   9.753  18.222  0.00  0.00    +0.000 C 
ATOM      4  C   UNL     1       1.778   9.402  17.734  0.00  0.00    +0.000 C 
ATOM      5  C   UNL     1       2.172   8.060  18.312  0.00  0.00    +0.000 C 
ATOM      6  N   UNL     1       2.187   8.072  19.780  0.00  0.00    +0.000 NA
ATOM      7  C   UNL     1       1.194   9.006  20.404  0.00  0.00    +0.000 C 
ENDROOT
BRANCH   1   9
ATOM      8  N   UNL     1       1.904  12.394  19.873  0.00  0.00    +0.000 N 
ATOM      9  C   UNL     1       0.776  11.748  19.466  0.00  0.00    +0.000 C 
ATOM     10  O   UNL     1      -0.178  12.458  19.084  0.00  0.00    +0.000 OA
ATOM     11  H   UNL     1       2.792  11.935  19.700  0.00  0.00    +0.000 HD
BRANCH   8  12
ATOM     12  C   UNL     1       1.849  13.854  19.696  0.00  0.00    +0.000 C 
BRANCH  12  13
ATOM     13  C   UNL     1       2.079  14.666  20.951  0.00  0.00    +0.000 C 
BRANCH  13  15
ATOM     14  C   UNL     1       0.120  14.690  22.243  0.00  0.00    +0.000 C 
ATOM     15  O   UNL     1       1.359  14.043  22.012  0.00  0.00    +0.000 OA
ENDBRANCH  13  15
ENDBRANCH  12  13
ENDBRANCH   8  12
ENDBRANCH   1   9
BRANCH   6  16
ATOM     16  C   UNL     1       1.914   6.677  20.276  0.00  0.00    +0.000 C 
BRANCH  16  17
ATOM     17  C   UNL     1       2.789   5.616  19.646  0.00  0.00    +0.000 A 
ATOM     18  C   UNL     1       4.163   5.760  19.520  0.00  0.00    +0.000 A 
ATOM     19  S   UNL     1       4.929   4.377  18.901  0.00  0.00    +0.000 S 
ATOM     20  C   UNL     1       3.448   3.508  18.797  0.00  0.00    +0.000 A 
ATOM     21  C   UNL     1       3.298   2.166  18.370  0.00  0.00    +0.000 A 
ATOM     22  C   UNL     1       2.024   1.600  18.349  0.00  0.00    +0.000 A 
ATOM     23  C   UNL     1       0.923   2.348  18.736  0.00  0.00    +0.000 A 
ATOM     24  C   UNL     1       1.085   3.666  19.170  0.00  0.00    +0.000 A 
ATOM     25  C   UNL     1       2.369   4.289  19.206  0.00  0.00    +0.000 A 
ENDBRANCH  16  17
ENDBRANCH   6  16
TORSDOF 6
ENDMDL
MODEL 7
REMARK VINA RESULT:      -6.0      2.258      4.146
REMARK  Name = 
REMARK  8 active torsions:
REMARK  status: ('A' for Active; 'I' for Inactive)
REMARK    1  A    between atoms: C_1  and  O_2
REMARK    2  A    between atoms: O_2  and  C_3
REMARK    3  A    between atoms: C_3  and  C_4
REMARK    4  A    between atoms: C_4  and  N_5
REMARK    5  A    between atoms: C_6  and  C_8
REMARK    6  A    between atoms: C_8  and  C_9
REMARK    7  A    between atoms: N_13  and  C_14
REMARK    8  A    between atoms: C_14  and  C_15
REMARK                            x       y       z     vdW  Elec       q    Type
REMARK                         _______ _______ _______ _____ _____    ______ ____
ROOT
ATOM      1  C   UNL     1       2.558   7.113  18.571  0.00  0.00    +0.000 C 
ATOM      2  C   UNL     1       3.591   7.965  17.753  0.00  0.00    +0.000 C 
ATOM      3  C   UNL     1       2.861   6.650  20.021  0.00  0.00    +0.000 C 
ATOM      4  C   UNL     1       1.781   5.608  20.386  0.00  0.00    +0.000 C 
ATOM      5  C   UNL     1       2.125   4.297  19.714  0.00  0.00    +0.000 C 
ATOM      6  N   UNL     1       2.161   4.417  18.250  0.00  0.00    +0.000 NA
ATOM      7  C   UNL     1       2.585   5.765  17.749  0.00  0.00    +0.000 C 
ENDROOT
BRANCH   1   9
ATOM      8  N   UNL     1       1.048   9.103  17.900  0.00  0.00    +0.000 N 
ATOM      9  C   UNL     1       1.556   8.274  18.853  0.00  0.00    +0.000 C 
ATOM     10  O   UNL     1       1.376   8.601  20.044  0.00  0.00    +0.000 OA
ATOM     11  H   UNL     1       0.722   8.679  17.038  0.00  0.00    +0.000 HD
BRANCH   8  12
ATOM     12  C   UNL     1       0.262  10.223  18.444  0.00  0.00    +0.000 C 
BRANCH  12  13
ATOM     13  C   UNL     1      -1.185  10.269  18.007  0.00  0.00    +0.000 C 
BRANCH  13  15
ATOM     14  C   UNL     1      -2.011  12.120  19.188  0.00  0.00    +0.000 C 
ATOM     15  O   UNL     1      -1.574  11.639  17.930  0.00  0.00    +0.000 OA
ENDBRANCH  13  15
ENDBRANCH  12  13
ENDBRANCH   8  12
ENDBRANCH   1   9
BRANCH   6  16
ATOM     16  C   UNL     1       3.107   3.380  17.706  0.00  0.00    +0.000 C 
BRANCH  16  17
ATOM     17  C   UNL     1       4.347   3.955  17.057  0.00  0.00    +0.000 A 
ATOM     18  C   UNL     1       4.509   4.017  15.680  0.00  0.00    +0.000 A 
ATOM     19  S   UNL     1       5.925   4.824  15.206  0.00  0.00    +0.000 S 
ATOM     20  C   UNL     1       6.376   5.151  16.834  0.00  0.00    +0.000 A 
ATOM     21  C   UNL     1       7.517   5.879  17.251  0.00  0.00    +0.000 A 
ATOM     22  C   UNL     1       7.741   6.064  18.615  0.00  0.00    +0.000 A 
ATOM     23  C   UNL     1       6.858   5.536  19.543  0.00  0.00    +0.000 A 
ATOM     24  C   UNL     1       5.728   4.832  19.120  0.00  0.00    +0.000 A 
ATOM     25  C   UNL     1       5.460   4.615  17.734  0.00  0.00    +0.000 A 
ENDBRANCH  16  17
ENDBRANCH   6  16
TORSDOF 6
ENDMDL
MODEL 8
REMARK VINA RESULT:      -6.0      2.381      3.283
REMARK  Name = 
REMARK  8 active torsions:
REMARK  status: ('A' for Active; 'I' for Inactive)
REMARK    1  A    between atoms: C_1  and  O_2
REMARK    2  A    between atoms: O_2  and  C_3
REMARK    3  A    between atoms: C_3  and  C_4
REMARK    4  A    between atoms: C_4  and  N_5
REMARK    5  A    between atoms: C_6  and  C_8
REMARK    6  A    between atoms: C_8  and  C_9
REMARK    7  A    between atoms: N_13  and  C_14
REMARK    8  A    between atoms: C_14  and  C_15
REMARK                            x       y       z     vdW  Elec       q    Type
REMARK                         _______ _______ _______ _____ _____    ______ ____
ROOT
ATOM      1  C   UNL     1       0.504  10.242  19.815  0.00  0.00    +0.000 C 
ATOM      2  C   UNL     1      -0.696  10.426  20.809  0.00  0.00    +0.000 C 
ATOM      3  C   UNL     1       0.277   9.783  18.351  0.00  0.00    +0.000 C 
ATOM      4  C   UNL     1       1.667   9.427  17.780  0.00  0.00    +0.000 C 
ATOM      5  C   UNL     1       2.082   8.075  18.318  0.00  0.00    +0.000 C 
ATOM      6  N   UNL     1       2.179   8.069  19.783  0.00  0.00    +0.000 NA
ATOM      7  C   UNL     1       1.230   9.002  20.473  0.00  0.00    +0.000 C 
ENDROOT
BRANCH   1   9
ATOM      8  N   UNL     1       0.118  12.545  18.703  0.00  0.00    +0.000 N 
ATOM      9  C   UNL     1       0.784  11.759  19.593  0.00  0.00    +0.000 C 
ATOM     10  O   UNL     1       1.822  12.232  20.102  0.00  0.00    +0.000 OA
ATOM     11  H   UNL     1      -0.892  12.458  18.670  0.00  0.00    +0.000 HD
BRANCH   8  12
ATOM     12  C   UNL     1       0.687  13.895  18.561  0.00  0.00    +0.000 C 
BRANCH  12  13
ATOM     13  C   UNL     1      -0.218  15.027  18.995  0.00  0.00    +0.000 C 
BRANCH  13  15
ATOM     14  C   UNL     1       1.926  15.977  18.911  0.00  0.00    +0.000 C 
ATOM     15  O   UNL     1       0.534  16.238  18.927  0.00  0.00    +0.000 OA
ENDBRANCH  13  15
ENDBRANCH  12  13
ENDBRANCH   8  12
ENDBRANCH   1   9
BRANCH   6  16
ATOM     16  C   UNL     1       1.922   6.669  20.276  0.00  0.00    +0.000 C 
BRANCH  16  17
ATOM     17  C   UNL     1       2.802   5.618  19.637  0.00  0.00    +0.000 A 
ATOM     18  C   UNL     1       4.175   5.774  19.503  0.00  0.00    +0.000 A 
ATOM     19  S   UNL     1       4.949   4.400  18.874  0.00  0.00    +0.000 S 
ATOM     20  C   UNL     1       3.474   3.519  18.775  0.00  0.00    +0.000 A 
ATOM     21  C   UNL     1       3.333   2.178  18.343  0.00  0.00    +0.000 A 
ATOM     22  C   UNL     1       2.063   1.602  18.326  0.00  0.00    +0.000 A 
ATOM     23  C   UNL     1       0.959   2.339  18.723  0.00  0.00    +0.000 A 
ATOM     24  C   UNL     1       1.112   3.657  19.162  0.00  0.00    +0.000 A 
ATOM     25  C   UNL     1       2.391   4.289  19.193  0.00  0.00    +0.000 A 
ENDBRANCH  16  17
ENDBRANCH   6  16
TORSDOF 6
ENDMDL
MODEL 9
REMARK VINA RESULT:      -6.0      1.120      1.243
REMARK  Name = 
REMARK  8 active torsions:
REMARK  status: ('A' for Active; 'I' for Inactive)
REMARK    1  A    between atoms: C_1  and  O_2
REMARK    2  A    between atoms: O_2  and  C_3
REMARK    3  A    between atoms: C_3  and  C_4
REMARK    4  A    between atoms: C_4  and  N_5
REMARK    5  A    between atoms: C_6  and  C_8
REMARK    6  A    between atoms: C_8  and  C_9
REMARK    7  A    between atoms: N_13  and  C_14
REMARK    8  A    between atoms: C_14  and  C_15
REMARK                            x       y       z     vdW  Elec       q    Type
REMARK                         _______ _______ _______ _____ _____    ______ ____
ROOT
ATOM      1  C   UNL     1       1.141  10.234  18.778  0.00  0.00    +0.000 C 
ATOM      2  C   UNL     1       1.639  11.557  18.096  0.00  0.00    +0.000 C 
ATOM      3  C   UNL     1       1.545   9.872  20.231  0.00  0.00    +0.000 C 
ATOM      4  C   UNL     1       1.134   8.400  20.450  0.00  0.00    +0.000 C 
ATOM      5  C   UNL     1       2.145   7.507  19.766  0.00  0.00    +0.000 C 
ATOM      6  N   UNL     1       2.209   7.749  18.319  0.00  0.00    +0.000 NA
ATOM      7  C   UNL     1       1.911   9.160  17.912  0.00  0.00    +0.000 C 
ENDROOT
BRANCH   1   9
ATOM      8  N   UNL     1      -1.341  10.518  18.108  0.00  0.00    +0.000 N 
ATOM      9  C   UNL     1      -0.331  10.695  19.004  0.00  0.00    +0.000 C 
ATOM     10  O   UNL     1      -0.552  11.463  19.963  0.00  0.00    +0.000 OA
ATOM     11  H   UNL     1      -1.417   9.609  17.665  0.00  0.00    +0.000 HD
BRANCH   8  12
ATOM     12  C   UNL     1      -2.593  11.196  18.483  0.00  0.00    +0.000 C 
BRANCH  12  13
ATOM     13  C   UNL     1      -3.668  11.202  17.419  0.00  0.00    +0.000 C 
BRANCH  13  15
ATOM     14  C   UNL     1      -3.360  10.721  15.143  0.00  0.00    +0.000 C 
ATOM     15  O   UNL     1      -3.338  10.199  16.460  0.00  0.00    +0.000 OA
ENDBRANCH  13  15
ENDBRANCH  12  13
ENDBRANCH   8  12
ENDBRANCH   1   9
BRANCH   6  16
ATOM     16  C   UNL     1       3.586   7.387  17.830  0.00  0.00    +0.000 C 
BRANCH  16  17
ATOM     17  C   UNL     1       4.013   5.976  18.174  0.00  0.00    +0.000 A 
ATOM     18  C   UNL     1       5.281   5.674  18.647  0.00  0.00    +0.000 A 
ATOM     19  S   UNL     1       5.465   4.044  19.082  0.00  0.00    +0.000 S 
ATOM     20  C   UNL     1       3.835   3.671  18.677  0.00  0.00    +0.000 A 
ATOM     21  C   UNL     1       3.208   2.411  18.824  0.00  0.00    +0.000 A 
ATOM     22  C   UNL     1       1.870   2.271  18.454  0.00  0.00    +0.000 A 
ATOM     23  C   UNL     1       1.173   3.356  17.944  0.00  0.00    +0.000 A 
ATOM     24  C   UNL     1       1.798   4.599  17.817  0.00  0.00    +0.000 A 
ATOM     25  C   UNL     1       3.166   4.787  18.180  0.00  0.00    +0.000 A 
ENDBRANCH  16  17
ENDBRANCH   6  16
TORSDOF 6
ENDMDL
