MODEL 1
REMARK VINA RESULT:      -6.3      0.000      0.000
REMARK  Name = 
REMARK  8 active torsions:
REMARK  status: ('A' for Active; 'I' for Inactive)
REMARK    1  A    between atoms: C_1  and  C_10
REMARK    2  A    between atoms: C_2  and  C_3
REMARK    3  A    between atoms: C_3  and  C_4
REMARK    4  A    between atoms: C_4  and  C_5
REMARK    5  A    between atoms: C_10  and  C_11
REMARK    6  A    between atoms: C_11  and  C_12
REMARK    7  A    between atoms: C_12  and  C_13
REMARK    8  A    between atoms: C_13  and  C_14
REMARK                            x       y       z     vdW  Elec       q    Type
REMARK                         _______ _______ _______ _____ _____    ______ ____
ROOT
ATOM      1  C   UNL     1       3.535   6.026  17.806  0.00  0.00    +0.000 C 
ATOM      2  C   UNL     1       4.330   5.271  17.098  0.00  0.00    +0.000 C 
ENDROOT
BRANCH   2   3
ATOM      3  C   UNL     1       5.255   4.393  16.274  0.00  0.00    +0.000 C 
BRANCH   3   4
ATOM      4  C   UNL     1       6.572   5.111  15.996  0.00  0.00    +0.000 C 
BRANCH   4   5
ATOM      5  C   UNL     1       7.200   5.619  17.245  0.00  0.00    +0.000 A 
ATOM      6  C   UNL     1       7.537   6.913  17.579  0.00  0.00    +0.000 A 
ATOM      7  N   UNL     1       8.077   6.827  18.833  0.00  0.00    +0.000 N 
ATOM      8  C   UNL     1       8.050   5.516  19.206  0.00  0.00    +0.000 A 
ATOM      9  N   UNL     1       7.526   4.763  18.269  0.00  0.00    +0.000 NA
ATOM     10  H   UNL     1       8.430   7.595  19.391  0.00  0.00    +0.000 HD
ENDBRANCH   4   5
ENDBRANCH   3   4
ENDBRANCH   2   3
BRANCH   1  11
ATOM     11  C   UNL     1       2.609   6.905  18.630  0.00  0.00    +0.000 C 
BRANCH  11  12
ATOM     12  C   UNL     1       2.594   6.398  20.067  0.00  0.00    +0.000 C 
BRANCH  12  13
ATOM     13  C   UNL     1       1.296   5.650  20.316  0.00  0.00    +0.000 C 
BRANCH  13  14
ATOM     14  C   UNL     1       1.526   4.256  20.886  0.00  0.00    +0.000 C 
BRANCH  14  15
ATOM     15  C   UNL     1       2.254   3.363  19.910  0.00  0.00    +0.000 A 
ATOM     16  C   UNL     1       1.651   3.038  18.691  0.00  0.00    +0.000 A 
ATOM     17  C   UNL     1       2.286   2.184  17.787  0.00  0.00    +0.000 A 
ATOM     18  C   UNL     1       3.535   1.650  18.091  0.00  0.00    +0.000 A 
ATOM     19  C   UNL     1       4.151   1.973  19.294  0.00  0.00    +0.000 A 
ATOM     20  C   UNL     1       3.518   2.823  20.207  0.00  0.00    +0.000 A 
ENDBRANCH  14  15
ENDBRANCH  13  14
ENDBRANCH  12  13
ENDBRANCH  11  12
ENDBRANCH   1  11
TORSDOF 8
ENDMDL
MODEL 2
REMARK VINA RESULT:      -6.3      0.153      1.115
REMARK  Name = 
REMARK  8 active torsions:
REMARK  status: ('A' for Active; 'I' for Inactive)
REMARK    1  A    between atoms: C_1  and  C_10
REMARK    2  A    between atoms: C_2  and  C_3
REMARK    3  A    between atoms: C_3  and  C_4
REMARK    4  A    between atoms: C_4  and  C_5
REMARK    5  A    between atoms: C_10  and  C_11
REMARK    6  A    between atoms: C_11  and  C_12
REMARK    7  A    between atoms: C_12  and  C_13
REMARK    8  A    between atoms: C_13  and  C_14
REMARK                            x       y       z     vdW  Elec       q    Type
REMARK                         _______ _______ _______ _____ _____    ______ ____
ROOT
ATOM      1  C   UNL     1       3.561   5.929  17.886  0.00  0.00    +0.000 C 
ATOM      2  C   UNL     1       4.365   5.244  17.121  0.00  0.00    +0.000 C 
ENDROOT
BRANCH   2   3
ATOM      3  C   UNL     1       5.300   4.446  16.229  0.00  0.00    +0.000 C 
BRANCH   3   4
ATOM      4  C   UNL     1       6.597   5.212  15.987  0.00  0.00    +0.000 C 
BRANCH   4   5
ATOM      5  C   UNL     1       7.218   5.663  17.259  0.00  0.00    +0.000 A 
ATOM      6  C   UNL     1       7.591   6.935  17.636  0.00  0.00    +0.000 A 
ATOM      7  N   UNL     1       8.107   6.796  18.896  0.00  0.00    +0.000 N 
ATOM      8  C   UNL     1       8.031   5.477  19.231  0.00  0.00    +0.000 A 
ATOM      9  N   UNL     1       7.498   4.769  18.264  0.00  0.00    +0.000 NA
ATOM     10  H   UNL     1       8.475   7.537  19.481  0.00  0.00    +0.000 HD
ENDBRANCH   4   5
ENDBRANCH   3   4
ENDBRANCH   2   3
BRANCH   1  11
ATOM     11  C   UNL     1       2.625   6.727  18.779  0.00  0.00    +0.000 C 
BRANCH  11  12
ATOM     12  C   UNL     1       2.630   6.113  20.175  0.00  0.00    +0.000 C 
BRANCH  12  13
ATOM     13  C   UNL     1       1.266   5.505  20.454  0.00  0.00    +0.000 C 
BRANCH  13  14
ATOM     14  C   UNL     1       1.356   4.050  20.895  0.00  0.00    +0.000 C 
BRANCH  14  15
ATOM     15  C   UNL     1       2.117   3.206  19.899  0.00  0.00    +0.000 A 
ATOM     16  C   UNL     1       3.367   2.687  20.249  0.00  0.00    +0.000 A 
ATOM     17  C   UNL     1       4.107   1.937  19.334  0.00  0.00    +0.000 A 
ATOM     18  C   UNL     1       3.603   1.693  18.060  0.00  0.00    +0.000 A 
ATOM     19  C   UNL     1       2.357   2.194  17.702  0.00  0.00    +0.000 A 
ATOM     20  C   UNL     1       1.612   2.952  18.612  0.00  0.00    +0.000 A 
ENDBRANCH  14  15
ENDBRANCH  13  14
ENDBRANCH  12  13
ENDBRANCH  11  12
ENDBRANCH   1  11
TORSDOF 8
ENDMDL
MODEL 3
REMARK VINA RESULT:      -6.1      1.580      3.607
REMARK  Name = 
REMARK  8 active torsions:
REMARK  status: ('A' for Active; 'I' for Inactive)
REMARK    1  A    between atoms: C_1  and  C_10
REMARK    2  A    between atoms: C_2  and  C_3
REMARK    3  A    between atoms: C_3  and  C_4
REMARK    4  A    between atoms: C_4  and  C_5
REMARK    5  A    between atoms: C_10  and  C_11
REMARK    6  A    between atoms: C_11  and  C_12
REMARK    7  A    between atoms: C_12  and  C_13
REMARK    8  A    between atoms: C_13  and  C_14
REMARK                            x       y       z     vdW  Elec       q    Type
REMARK                         _______ _______ _______ _____ _____    ______ ____
ROOT
ATOM      1  C   UNL     1       4.404   2.937  18.663  0.00  0.00    +0.000 C 
ATOM      2  C   UNL     1       5.095   3.997  18.978  0.00  0.00    +0.000 C 
ENDROOT
BRANCH   2   3
ATOM      3  C   UNL     1       5.901   5.232  19.344  0.00  0.00    +0.000 C 
BRANCH   3   4
ATOM      4  C   UNL     1       7.144   5.343  18.466  0.00  0.00    +0.000 C 
BRANCH   4   5
ATOM      5  C   UNL     1       6.796   5.405  17.021  0.00  0.00    +0.000 A 
ATOM      6  C   UNL     1       5.877   6.213  16.387  0.00  0.00    +0.000 A 
ATOM      7  N   UNL     1       5.955   5.870  15.065  0.00  0.00    +0.000 N 
ATOM      8  C   UNL     1       6.896   4.890  14.946  0.00  0.00    +0.000 A 
ATOM      9  N   UNL     1       7.421   4.589  16.109  0.00  0.00    +0.000 NA
ATOM     10  H   UNL     1       5.418   6.272  14.305  0.00  0.00    +0.000 HD
ENDBRANCH   4   5
ENDBRANCH   3   4
ENDBRANCH   2   3
BRANCH   1  11
ATOM     11  C   UNL     1       3.598   1.701  18.297  0.00  0.00    +0.000 C 
BRANCH  11  12
ATOM     12  C   UNL     1       2.477   1.522  19.314  0.00  0.00    +0.000 C 
BRANCH  12  13
ATOM     13  C   UNL     1       1.273   2.337  18.873  0.00  0.00    +0.000 C 
BRANCH  13  14
ATOM     14  C   UNL     1       0.894   3.412  19.883  0.00  0.00    +0.000 C 
BRANCH  14  15
ATOM     15  C   UNL     1       1.470   4.758  19.514  0.00  0.00    +0.000 A 
ATOM     16  C   UNL     1       1.772   5.035  18.177  0.00  0.00    +0.000 A 
ATOM     17  C   UNL     1       2.340   6.258  17.814  0.00  0.00    +0.000 A 
ATOM     18  C   UNL     1       2.609   7.218  18.784  0.00  0.00    +0.000 A 
ATOM     19  C   UNL     1       2.305   6.961  20.116  0.00  0.00    +0.000 A 
ATOM     20  C   UNL     1       1.740   5.736  20.487  0.00  0.00    +0.000 A 
ENDBRANCH  14  15
ENDBRANCH  13  14
ENDBRANCH  12  13
ENDBRANCH  11  12
ENDBRANCH   1  11
TORSDOF 8
ENDMDL
MODEL 4
REMARK VINA RESULT:      -6.0      1.082      2.772
REMARK  Name = 
REMARK  8 active torsions:
REMARK  status: ('A' for Active; 'I' for Inactive)
REMARK    1  A    between atoms: C_1  and  C_10
REMARK    2  A    between atoms: C_2  and  C_3
REMARK    3  A    between atoms: C_3  and  C_4
REMARK    4  A    between atoms: C_4  and  C_5
REMARK    5  A    between atoms: C_10  and  C_11
REMARK    6  A    between atoms: C_11  and  C_12
REMARK    7  A    between atoms: C_12  and  C_13
REMARK    8  A    between atoms: C_13  and  C_14
REMARK                            x       y       z     vdW  Elec       q    Type
REMARK                         _______ _______ _______ _____ _____    ______ ____
ROOT
ATOM      1  C   UNL     1       3.874   2.730  17.398  0.00  0.00    +0.000 C 
ATOM      2  C   UNL     1       4.545   3.530  16.617  0.00  0.00    +0.000 C 
ENDROOT
BRANCH   2   3
ATOM      3  C   UNL     1       5.327   4.462  15.707  0.00  0.00    +0.000 C 
BRANCH   3   4
ATOM      4  C   UNL     1       6.824   4.348  15.979  0.00  0.00    +0.000 C 
BRANCH   4   5
ATOM      5  C   UNL     1       7.249   5.216  17.109  0.00  0.00    +0.000 A 
ATOM      6  C   UNL     1       7.325   6.592  17.161  0.00  0.00    +0.000 A 
ATOM      7  N   UNL     1       7.768   6.875  18.424  0.00  0.00    +0.000 N 
ATOM      8  C   UNL     1       7.940   5.691  19.078  0.00  0.00    +0.000 A 
ATOM      9  N   UNL     1       7.634   4.673  18.311  0.00  0.00    +0.000 NA
ATOM     10  H   UNL     1       7.934   7.797  18.812  0.00  0.00    +0.000 HD
ENDBRANCH   4   5
ENDBRANCH   3   4
ENDBRANCH   2   3
BRANCH   1  11
ATOM     11  C   UNL     1       3.091   1.799  18.308  0.00  0.00    +0.000 C 
BRANCH  11  12
ATOM     12  C   UNL     1       1.640   2.262  18.361  0.00  0.00    +0.000 C 
BRANCH  12  13
ATOM     13  C   UNL     1       1.234   2.462  19.811  0.00  0.00    +0.000 C 
BRANCH  13  14
ATOM     14  C   UNL     1       0.934   3.919  20.138  0.00  0.00    +0.000 C 
BRANCH  14  15
ATOM     15  C   UNL     1       1.972   4.850  19.557  0.00  0.00    +0.000 A 
ATOM     16  C   UNL     1       1.655   5.620  18.434  0.00  0.00    +0.000 A 
ATOM     17  C   UNL     1       2.608   6.460  17.855  0.00  0.00    +0.000 A 
ATOM     18  C   UNL     1       3.887   6.544  18.397  0.00  0.00    +0.000 A 
ATOM     19  C   UNL     1       4.213   5.792  19.520  0.00  0.00    +0.000 A 
ATOM     20  C   UNL     1       3.264   4.944  20.102  0.00  0.00    +0.000 A 
ENDBRANCH  14  15
ENDBRANCH  13  14
ENDBRANCH  12  13
ENDBRANCH  11  12
ENDBRANCH   1  11
TORSDOF 8
ENDMDL
MODEL 5
REMARK VINA RESULT:      -6.0      3.751      5.343
REMARK  Name = 
REMARK  8 active torsions:
REMARK  status: ('A' for Active; 'I' for Inactive)
REMARK    1  A    between atoms: C_1  and  C_10
REMARK    2  A    between atoms: C_2  and  C_3
REMARK    3  A    between atoms: C_3  and  C_4
REMARK    4  A    between atoms: C_4  and  C_5
REMARK    5  A    between atoms: C_10  and  C_11
REMARK    6  A    between atoms: C_11  and  C_12
REMARK    7  A    between atoms: C_12  and  C_13
REMARK    8  A    between atoms: C_13  and  C_14
REMARK                            x       y       z     vdW  Elec       q    Type
REMARK                         _______ _______ _______ _____ _____    ______ ____
ROOT
ATOM      1  C   UNL     1       7.684   7.535  17.802  0.00  0.00    +0.000 C 
ATOM      2  C   UNL     1       8.137   8.752  17.921  0.00  0.00    +0.000 C 
ENDROOT
BRANCH   2   3
ATOM      3  C   UNL     1       8.666  10.169  18.060  0.00  0.00    +0.000 C 
BRANCH   3   4
ATOM      4  C   UNL     1       9.397  10.343  19.388  0.00  0.00    +0.000 C 
BRANCH   4   5
ATOM      5  C   UNL     1      10.516  11.315  19.280  0.00  0.00    +0.000 A 
ATOM      6  C   UNL     1      11.165  12.001  20.284  0.00  0.00    +0.000 A 
ATOM      7  N   UNL     1      12.111  12.756  19.645  0.00  0.00    +0.000 N 
ATOM      8  C   UNL     1      12.005  12.508  18.308  0.00  0.00    +0.000 A 
ATOM      9  N   UNL     1      11.053  11.642  18.057  0.00  0.00    +0.000 NA
ATOM     10  H   UNL     1      12.777  13.384  20.080  0.00  0.00    +0.000 HD
ENDBRANCH   4   5
ENDBRANCH   3   4
ENDBRANCH   2   3
BRANCH   1  11
ATOM     11  C   UNL     1       7.155   6.117  17.664  0.00  0.00    +0.000 C 
BRANCH  11  12
ATOM     12  C   UNL     1       6.861   5.561  19.053  0.00  0.00    +0.000 C 
BRANCH  12  13
ATOM     13  C   UNL     1       5.582   4.742  18.999  0.00  0.00    +0.000 C 
BRANCH  13  14
ATOM     14  C   UNL     1       4.334   5.613  18.952  0.00  0.00    +0.000 C 
BRANCH  14  15
ATOM     15  C   UNL     1       3.078   4.806  19.183  0.00  0.00    +0.000 A 
ATOM     16  C   UNL     1       2.501   4.780  20.457  0.00  0.00    +0.000 A 
ATOM     17  C   UNL     1       1.362   4.013  20.707  0.00  0.00    +0.000 A 
ATOM     18  C   UNL     1       0.784   3.267  19.684  0.00  0.00    +0.000 A 
ATOM     19  C   UNL     1       1.340   3.292  18.411  0.00  0.00    +0.000 A 
ATOM     20  C   UNL     1       2.485   4.054  18.154  0.00  0.00    +0.000 A 
ENDBRANCH  14  15
ENDBRANCH  13  14
ENDBRANCH  12  13
ENDBRANCH  11  12
ENDBRANCH   1  11
TORSDOF 8
ENDMDL
MODEL 6
REMARK VINA RESULT:      -6.0      1.703      3.576
REMARK  Name = 
REMARK  8 active torsions:
REMARK  status: ('A' for Active; 'I' for Inactive)
REMARK    1  A    between atoms: C_1  and  C_10
REMARK    2  A    between atoms: C_2  and  C_3
REMARK    3  A    between atoms: C_3  and  C_4
REMARK    4  A    between atoms: C_4  and  C_5
REMARK    5  A    between atoms: C_10  and  C_11
REMARK    6  A    between atoms: C_11  and  C_12
REMARK    7  A    between atoms: C_12  and  C_13
REMARK    8  A    between atoms: C_13  and  C_14
REMARK                            x       y       z     vdW  Elec       q    Type
REMARK                         _______ _______ _______ _____ _____    ______ ____
ROOT
ATOM      1  C   UNL     1       4.909   3.610  19.361  0.00  0.00    +0.000 C 
ATOM      2  C   UNL     1       5.600   4.654  18.998  0.00  0.00    +0.000 C 
ENDROOT
BRANCH   2   3
ATOM      3  C   UNL     1       6.403   5.872  18.574  0.00  0.00    +0.000 C 
BRANCH   3   4
ATOM      4  C   UNL     1       5.829   6.478  17.298  0.00  0.00    +0.000 C 
BRANCH   4   5
ATOM      5  C   UNL     1       6.072   5.611  16.115  0.00  0.00    +0.000 A 
ATOM      6  C   UNL     1       5.192   4.777  15.459  0.00  0.00    +0.000 A 
ATOM      7  N   UNL     1       5.921   4.218  14.446  0.00  0.00    +0.000 N 
ATOM      8  C   UNL     1       7.187   4.719  14.521  0.00  0.00    +0.000 A 
ATOM      9  N   UNL     1       7.308   5.562  15.518  0.00  0.00    +0.000 NA
ATOM     10  H   UNL     1       5.586   3.555  13.757  0.00  0.00    +0.000 HD
ENDBRANCH   4   5
ENDBRANCH   3   4
ENDBRANCH   2   3
BRANCH   1  11
ATOM     11  C   UNL     1       4.104   2.391  19.783  0.00  0.00    +0.000 C 
BRANCH  11  12
ATOM     12  C   UNL     1       3.167   2.786  20.918  0.00  0.00    +0.000 C 
BRANCH  12  13
ATOM     13  C   UNL     1       1.772   2.269  20.612  0.00  0.00    +0.000 C 
BRANCH  13  14
ATOM     14  C   UNL     1       0.760   3.392  20.429  0.00  0.00    +0.000 C 
BRANCH  14  15
ATOM     15  C   UNL     1       1.379   4.606  19.777  0.00  0.00    +0.000 A 
ATOM     16  C   UNL     1       1.603   4.607  18.397  0.00  0.00    +0.000 A 
ATOM     17  C   UNL     1       2.208   5.701  17.775  0.00  0.00    +0.000 A 
ATOM     18  C   UNL     1       2.592   6.807  18.527  0.00  0.00    +0.000 A 
ATOM     19  C   UNL     1       2.366   6.824  19.898  0.00  0.00    +0.000 A 
ATOM     20  C   UNL     1       1.765   5.729  20.529  0.00  0.00    +0.000 A 
ENDBRANCH  14  15
ENDBRANCH  13  14
ENDBRANCH  12  13
ENDBRANCH  11  12
ENDBRANCH   1  11
TORSDOF 8
ENDMDL
MODEL 7
REMARK VINA RESULT:      -5.9      3.281      5.050
REMARK  Name = 
REMARK  8 active torsions:
REMARK  status: ('A' for Active; 'I' for Inactive)
REMARK    1  A    between atoms: C_1  and  C_10
REMARK    2  A    between atoms: C_2  and  C_3
REMARK    3  A    between atoms: C_3  and  C_4
REMARK    4  A    between atoms: C_4  and  C_5
REMARK    5  A    between atoms: C_10  and  C_11
REMARK    6  A    between atoms: C_11  and  C_12
REMARK    7  A    between atoms: C_12  and  C_13
REMARK    8  A    between atoms: C_13  and  C_14
REMARK                            x       y       z     vdW  Elec       q    Type
REMARK                         _______ _______ _______ _____ _____    ______ ____
ROOT
ATOM      1  C   UNL     1       7.517   6.540  17.867  0.00  0.00    +0.000 C 
ATOM      2  C   UNL     1       7.809   7.810  17.830  0.00  0.00    +0.000 C 
ENDROOT
BRANCH   2   3
ATOM      3  C   UNL     1       8.150   9.290  17.785  0.00  0.00    +0.000 C 
BRANCH   3   4
ATOM      4  C   UNL     1       9.037   9.673  18.966  0.00  0.00    +0.000 C 
BRANCH   4   5
ATOM      5  C   UNL     1       9.346  11.127  18.976  0.00  0.00    +0.000 A 
ATOM      6  C   UNL     1       9.837  11.899  20.007  0.00  0.00    +0.000 A 
ATOM      7  N   UNL     1       9.941  13.161  19.488  0.00  0.00    +0.000 N 
ATOM      8  C   UNL     1       9.520  13.111  18.192  0.00  0.00    +0.000 A 
ATOM      9  N   UNL     1       9.156  11.897  17.854  0.00  0.00    +0.000 NA
ATOM     10  H   UNL     1      10.275  13.986  19.971  0.00  0.00    +0.000 HD
ENDBRANCH   4   5
ENDBRANCH   3   4
ENDBRANCH   2   3
BRANCH   1  11
ATOM     11  C   UNL     1       7.176   5.059  17.910  0.00  0.00    +0.000 C 
BRANCH  11  12
ATOM     12  C   UNL     1       5.707   4.899  18.281  0.00  0.00    +0.000 C 
BRANCH  12  13
ATOM     13  C   UNL     1       4.852   5.587  17.230  0.00  0.00    +0.000 C 
BRANCH  13  14
ATOM     14  C   UNL     1       3.687   6.357  17.837  0.00  0.00    +0.000 C 
BRANCH  14  15
ATOM     15  C   UNL     1       2.714   5.441  18.541  0.00  0.00    +0.000 A 
ATOM     16  C   UNL     1       2.426   5.650  19.893  0.00  0.00    +0.000 A 
ATOM     17  C   UNL     1       1.559   4.795  20.577  0.00  0.00    +0.000 A 
ATOM     18  C   UNL     1       0.966   3.725  19.913  0.00  0.00    +0.000 A 
ATOM     19  C   UNL     1       1.235   3.511  18.566  0.00  0.00    +0.000 A 
ATOM     20  C   UNL     1       2.107   4.361  17.877  0.00  0.00    +0.000 A 
ENDBRANCH  14  15
ENDBRANCH  13  14
ENDBRANCH  12  13
ENDBRANCH  11  12
ENDBRANCH   1  11
TORSDOF 8
ENDMDL
MODEL 8
REMARK VINA RESULT:      -5.9      1.673      2.806
REMARK  Name = 
REMARK  8 active torsions:
REMARK  status: ('A' for Active; 'I' for Inactive)
REMARK    1  A    between atoms: C_1  and  C_10
REMARK    2  A    between atoms: C_2  and  C_3
REMARK    3  A    between atoms: C_3  and  C_4
REMARK    4  A    between atoms: C_4  and  C_5
REMARK    5  A    between atoms: C_10  and  C_11
REMARK    6  A    between atoms: C_11  and  C_12
REMARK    7  A    between atoms: C_12  and  C_13
REMARK    8  A    between atoms: C_13  and  C_14
REMARK                            x       y       z     vdW  Elec       q    Type
REMARK                         _______ _______ _______ _____ _____    ______ ____
ROOT
ATOM      1  C   UNL     1       4.717   7.043  17.706  0.00  0.00    +0.000 C 
ATOM      2  C   UNL     1       5.932   6.582  17.820  0.00  0.00    +0.000 C 
ENDROOT
BRANCH   2   3
ATOM      3  C   UNL     1       7.347   6.045  17.952  0.00  0.00    +0.000 C 
BRANCH   3   4
ATOM      4  C   UNL     1       7.421   4.601  17.466  0.00  0.00    +0.000 C 
BRANCH   4   5
ATOM      5  C   UNL     1       6.990   4.471  16.049  0.00  0.00    +0.000 A 
ATOM      6  C   UNL     1       6.011   3.661  15.515  0.00  0.00    +0.000 A 
ATOM      7  N   UNL     1       6.019   3.931  14.174  0.00  0.00    +0.000 N 
ATOM      8  C   UNL     1       6.980   4.872  13.947  0.00  0.00    +0.000 A 
ATOM      9  N   UNL     1       7.581   5.218  15.059  0.00  0.00    +0.000 NA
ATOM     10  H   UNL     1       5.419   3.514  13.471  0.00  0.00    +0.000 HD
ENDBRANCH   4   5
ENDBRANCH   3   4
ENDBRANCH   2   3
BRANCH   1  11
ATOM     11  C   UNL     1       3.301   7.579  17.573  0.00  0.00    +0.000 C 
BRANCH  11  12
ATOM     12  C   UNL     1       2.337   6.597  18.227  0.00  0.00    +0.000 C 
BRANCH  12  13
ATOM     13  C   UNL     1       2.345   6.818  19.730  0.00  0.00    +0.000 C 
BRANCH  13  14
ATOM     14  C   UNL     1       2.104   5.532  20.510  0.00  0.00    +0.000 C 
BRANCH  14  15
ATOM     15  C   UNL     1       2.386   4.306  19.674  0.00  0.00    +0.000 A 
ATOM     16  C   UNL     1       3.709   3.951  19.396  0.00  0.00    +0.000 A 
ATOM     17  C   UNL     1       3.996   2.845  18.595  0.00  0.00    +0.000 A 
ATOM     18  C   UNL     1       2.961   2.078  18.067  0.00  0.00    +0.000 A 
ATOM     19  C   UNL     1       1.641   2.413  18.343  0.00  0.00    +0.000 A 
ATOM     20  C   UNL     1       1.347   3.524  19.141  0.00  0.00    +0.000 A 
ENDBRANCH  14  15
ENDBRANCH  13  14
ENDBRANCH  12  13
ENDBRANCH  11  12
ENDBRANCH   1  11
TORSDOF 8
ENDMDL
MODEL 9
REMARK VINA RESULT:      -5.9      1.577      2.656
REMARK  Name = 
REMARK  8 active torsions:
REMARK  status: ('A' for Active; 'I' for Inactive)
REMARK    1  A    between atoms: C_1  and  C_10
REMARK    2  A    between atoms: C_2  and  C_3
REMARK    3  A    between atoms: C_3  and  C_4
REMARK    4  A    between atoms: C_4  and  C_5
REMARK    5  A    between atoms: C_10  and  C_11
REMARK    6  A    between atoms: C_11  and  C_12
REMARK    7  A    between atoms: C_12  and  C_13
REMARK    8  A    between atoms: C_13  and  C_14
REMARK                            x       y       z     vdW  Elec       q    Type
REMARK                         _______ _______ _______ _____ _____    ______ ____
ROOT
ATOM      1  C   UNL     1       3.800   6.396  18.358  0.00  0.00    +0.000 C 
ATOM      2  C   UNL     1       4.969   5.820  18.317  0.00  0.00    +0.000 C 
ENDROOT
BRANCH   2   3
ATOM      3  C   UNL     1       6.331   5.149  18.271  0.00  0.00    +0.000 C 
BRANCH   3   4
ATOM      4  C   UNL     1       7.163   5.700  17.117  0.00  0.00    +0.000 C 
BRANCH   4   5
ATOM      5  C   UNL     1       6.898   4.972  15.848  0.00  0.00    +0.000 A 
ATOM      6  C   UNL     1       6.096   3.872  15.633  0.00  0.00    +0.000 A 
ATOM      7  N   UNL     1       6.203   3.609  14.295  0.00  0.00    +0.000 N 
ATOM      8  C   UNL     1       7.046   4.536  13.758  0.00  0.00    +0.000 A 
ATOM      9  N   UNL     1       7.481   5.372  14.669  0.00  0.00    +0.000 NA
ATOM     10  H   UNL     1       5.739   2.865  13.788  0.00  0.00    +0.000 HD
ENDBRANCH   4   5
ENDBRANCH   3   4
ENDBRANCH   2   3
BRANCH   1  11
ATOM     11  C   UNL     1       2.437   7.068  18.403  0.00  0.00    +0.000 C 
BRANCH  11  12
ATOM     12  C   UNL     1       2.009   7.221  19.858  0.00  0.00    +0.000 C 
BRANCH  12  13
ATOM     13  C   UNL     1       2.330   5.939  20.608  0.00  0.00    +0.000 C 
BRANCH  13  14
ATOM     14  C   UNL     1       1.393   4.797  20.239  0.00  0.00    +0.000 C 
BRANCH  14  15
ATOM     15  C   UNL     1       2.125   3.670  19.550  0.00  0.00    +0.000 A 
ATOM     16  C   UNL     1       3.281   3.141  20.133  0.00  0.00    +0.000 A 
ATOM     17  C   UNL     1       3.997   2.125  19.498  0.00  0.00    +0.000 A 
ATOM     18  C   UNL     1       3.562   1.623  18.275  0.00  0.00    +0.000 A 
ATOM     19  C   UNL     1       2.409   2.131  17.689  0.00  0.00    +0.000 A 
ATOM     20  C   UNL     1       1.689   3.153  18.317  0.00  0.00    +0.000 A 
ENDBRANCH  14  15
ENDBRANCH  13  14
ENDBRANCH  12  13
ENDBRANCH  11  12
ENDBRANCH   1  11
TORSDOF 8
ENDMDL
