MODEL 1
REMARK VINA RESULT:      -7.0      0.000      0.000
REMARK  Name = 
REMARK  7 active torsions:
REMARK  status: ('A' for Active; 'I' for Inactive)
REMARK    1  A    between atoms: C_1  and  C_2
REMARK    2  A    between atoms: C_2  and  C_3
REMARK    3  A    between atoms: C_3  and  C_4
REMARK    4  A    between atoms: C_4  and  C_5
REMARK    5  A    between atoms: N_7  and  C_8
REMARK    6  A    between atoms: C_11  and  C_12
REMARK    7  A    between atoms: N_14  and  C_15
REMARK                            x       y       z     vdW  Elec       q    Type
REMARK                         _______ _______ _______ _____ _____    ______ ____
ROOT
ATOM      1  C   UNL     1       4.376   5.345  17.167  0.00  0.00    +0.000 A 
ATOM      2  C   UNL     1       3.994   6.684  17.167  0.00  0.00    +0.000 A 
ATOM      3  C   UNL     1       3.195   7.209  18.184  0.00  0.00    +0.000 A 
ATOM      4  C   UNL     1       2.758   6.399  19.234  0.00  0.00    +0.000 A 
ATOM      5  C   UNL     1       3.130   5.048  19.246  0.00  0.00    +0.000 A 
ATOM      6  C   UNL     1       3.927   4.523  18.212  0.00  0.00    +0.000 A 
ENDROOT
BRANCH   1   9
ATOM      7  C   UNL     1       6.411   5.353  15.757  0.00  0.00    +0.000 C 
ATOM      8  O   UNL     1       6.989   6.295  16.279  0.00  0.00    +0.000 OA
ATOM      9  N   UNL     1       5.189   4.811  16.142  0.00  0.00    +0.000 N 
ATOM     10  H   UNL     1       4.914   3.924  15.742  0.00  0.00    +0.000 HD
BRANCH   7  11
ATOM     11  C   UNL     1       7.059   4.644  14.588  0.00  0.00    +0.000 C 
BRANCH  11  12
ATOM     12  C   UNL     1       6.097   3.694  13.893  0.00  0.00    +0.000 C 
BRANCH  12  14
ATOM     13  C   UNL     1       7.403   4.568  11.941  0.00  0.00    +0.000 C 
ATOM     14  C   UNL     1       6.364   3.554  12.393  0.00  0.00    +0.000 C 
ENDBRANCH  12  14
ENDBRANCH  11  12
ENDBRANCH   7  11
ENDBRANCH   1   9
BRANCH   4  15
ATOM     15  C   UNL     1       1.852   7.019  20.244  0.00  0.00    +0.000 C 
ATOM     16  O   UNL     1       1.248   6.269  21.002  0.00  0.00    +0.000 OA
ATOM     17  N   UNL     1       1.719   8.400  20.200  0.00  0.00    +0.000 N 
ATOM     18  H   UNL     1       2.126   8.888  19.414  0.00  0.00    +0.000 HD
BRANCH  17  19
ATOM     19  C   UNL     1       0.877   9.162  21.049  0.00  0.00    +0.000 A 
ATOM     20  C   UNL     1      -0.203   9.920  20.599  0.00  0.00    +0.000 A 
ATOM     21  C   UNL     1      -0.981  10.640  21.507  0.00  0.00    +0.000 A 
ATOM     22  C   UNL     1      -0.650  10.582  22.850  0.00  0.00    +0.000 A 
ATOM     23  N   UNL     1       0.381   9.857  23.333  0.00  0.00    +0.000 NA
ATOM     24  C   UNL     1       1.113   9.165  22.423  0.00  0.00    +0.000 A 
ENDBRANCH  17  19
ENDBRANCH   4  15
TORSDOF 6
ENDMDL
MODEL 2
REMARK VINA RESULT:      -7.0      2.281      9.498
REMARK  Name = 
REMARK  7 active torsions:
REMARK  status: ('A' for Active; 'I' for Inactive)
REMARK    1  A    between atoms: C_1  and  C_2
REMARK    2  A    between atoms: C_2  and  C_3
REMARK    3  A    between atoms: C_3  and  C_4
REMARK    4  A    between atoms: C_4  and  C_5
REMARK    5  A    between atoms: N_7  and  C_8
REMARK    6  A    between atoms: C_11  and  C_12
REMARK    7  A    between atoms: N_14  and  C_15
REMARK                            x       y       z     vdW  Elec       q    Type
REMARK                         _______ _______ _______ _____ _____    ______ ____
ROOT
ATOM      1  C   UNL     1       0.657   9.564  19.931  0.00  0.00    +0.000 A 
ATOM      2  C   UNL     1       1.196   8.481  20.618  0.00  0.00    +0.000 A 
ATOM      3  C   UNL     1       2.034   7.564  19.982  0.00  0.00    +0.000 A 
ATOM      4  C   UNL     1       2.354   7.712  18.631  0.00  0.00    +0.000 A 
ATOM      5  C   UNL     1       1.815   8.795  17.923  0.00  0.00    +0.000 A 
ATOM      6  C   UNL     1       0.963   9.710  18.569  0.00  0.00    +0.000 A 
ENDROOT
BRANCH   1   9
ATOM      7  C   UNL     1       0.271  11.624  21.249  0.00  0.00    +0.000 C 
ATOM      8  O   UNL     1       1.428  12.010  21.323  0.00  0.00    +0.000 OA
ATOM      9  N   UNL     1      -0.187  10.497  20.573  0.00  0.00    +0.000 N 
ATOM     10  H   UNL     1      -1.185  10.395  20.439  0.00  0.00    +0.000 HD
BRANCH   7  11
ATOM     11  C   UNL     1      -0.822  12.431  21.914  0.00  0.00    +0.000 C 
BRANCH  11  12
ATOM     12  C   UNL     1      -1.532  11.642  23.002  0.00  0.00    +0.000 C 
BRANCH  12  14
ATOM     13  C   UNL     1      -3.611  12.696  22.082  0.00  0.00    +0.000 C 
ATOM     14  C   UNL     1      -2.920  12.191  23.339  0.00  0.00    +0.000 C 
ENDBRANCH  12  14
ENDBRANCH  11  12
ENDBRANCH   7  11
ENDBRANCH   1   9
BRANCH   4  15
ATOM     15  C   UNL     1       3.199   6.653  18.008  0.00  0.00    +0.000 C 
ATOM     16  O   UNL     1       2.823   5.490  18.111  0.00  0.00    +0.000 OA
ATOM     17  N   UNL     1       4.384   7.067  17.415  0.00  0.00    +0.000 N 
ATOM     18  H   UNL     1       4.672   8.026  17.555  0.00  0.00    +0.000 HD
BRANCH  17  19
ATOM     19  C   UNL     1       5.333   6.206  16.808  0.00  0.00    +0.000 A 
ATOM     20  C   UNL     1       6.262   5.447  17.519  0.00  0.00    +0.000 A 
ATOM     21  C   UNL     1       7.160   4.623  16.839  0.00  0.00    +0.000 A 
ATOM     22  C   UNL     1       7.105   4.585  15.456  0.00  0.00    +0.000 A 
ATOM     23  N   UNL     1       6.219   5.295  14.727  0.00  0.00    +0.000 NA
ATOM     24  C   UNL     1       5.357   6.081  15.420  0.00  0.00    +0.000 A 
ENDBRANCH  17  19
ENDBRANCH   4  15
TORSDOF 6
ENDMDL
MODEL 3
REMARK VINA RESULT:      -6.9      2.234      9.116
REMARK  Name = 
REMARK  7 active torsions:
REMARK  status: ('A' for Active; 'I' for Inactive)
REMARK    1  A    between atoms: C_1  and  C_2
REMARK    2  A    between atoms: C_2  and  C_3
REMARK    3  A    between atoms: C_3  and  C_4
REMARK    4  A    between atoms: C_4  and  C_5
REMARK    5  A    between atoms: N_7  and  C_8
REMARK    6  A    between atoms: C_11  and  C_12
REMARK    7  A    between atoms: N_14  and  C_15
REMARK                            x       y       z     vdW  Elec       q    Type
REMARK                         _______ _______ _______ _____ _____    ______ ____
ROOT
ATOM      1  C   UNL     1       0.840   9.830  19.429  0.00  0.00    +0.000 A 
ATOM      2  C   UNL     1       1.309   9.736  18.122  0.00  0.00    +0.000 A 
ATOM      3  C   UNL     1       2.098   8.659  17.712  0.00  0.00    +0.000 A 
ATOM      4  C   UNL     1       2.435   7.643  18.608  0.00  0.00    +0.000 A 
ATOM      5  C   UNL     1       1.974   7.725  19.929  0.00  0.00    +0.000 A 
ATOM      6  C   UNL     1       1.188   8.819  20.338  0.00  0.00    +0.000 A 
ENDROOT
BRANCH   1   9
ATOM      7  C   UNL     1       0.504  11.976  20.617  0.00  0.00    +0.000 C 
ATOM      8  O   UNL     1       1.657  12.167  20.973  0.00  0.00    +0.000 OA
ATOM      9  N   UNL     1       0.037  10.915  19.846  0.00  0.00    +0.000 N 
ATOM     10  H   UNL     1      -0.901  10.975  19.472  0.00  0.00    +0.000 HD
BRANCH   7  11
ATOM     11  C   UNL     1      -0.564  12.979  20.996  0.00  0.00    +0.000 C 
BRANCH  11  12
ATOM     12  C   UNL     1      -1.738  12.322  21.702  0.00  0.00    +0.000 C 
BRANCH  12  14
ATOM     13  C   UNL     1      -1.051  10.417  23.179  0.00  0.00    +0.000 C 
ATOM     14  C   UNL     1      -1.418  11.892  23.136  0.00  0.00    +0.000 C 
ENDBRANCH  12  14
ENDBRANCH  11  12
ENDBRANCH   7  11
ENDBRANCH   1   9
BRANCH   4  15
ATOM     15  C   UNL     1       3.337   6.564  18.110  0.00  0.00    +0.000 C 
ATOM     16  O   UNL     1       3.156   5.429  18.538  0.00  0.00    +0.000 OA
ATOM     17  N   UNL     1       4.354   6.948  17.247  0.00  0.00    +0.000 N 
ATOM     18  H   UNL     1       4.511   7.938  17.114  0.00  0.00    +0.000 HD
BRANCH  17  19
ATOM     19  C   UNL     1       5.329   6.075  16.703  0.00  0.00    +0.000 A 
ATOM     20  C   UNL     1       5.215   5.458  15.457  0.00  0.00    +0.000 A 
ATOM     21  C   UNL     1       6.226   4.614  14.998  0.00  0.00    +0.000 A 
ATOM     22  C   UNL     1       7.331   4.406  15.807  0.00  0.00    +0.000 A 
ATOM     23  N   UNL     1       7.489   4.987  17.015  0.00  0.00    +0.000 NA
ATOM     24  C   UNL     1       6.490   5.807  17.428  0.00  0.00    +0.000 A 
ENDBRANCH  17  19
ENDBRANCH   4  15
TORSDOF 6
ENDMDL
MODEL 4
REMARK VINA RESULT:      -6.8      0.951      1.634
REMARK  Name = 
REMARK  7 active torsions:
REMARK  status: ('A' for Active; 'I' for Inactive)
REMARK    1  A    between atoms: C_1  and  C_2
REMARK    2  A    between atoms: C_2  and  C_3
REMARK    3  A    between atoms: C_3  and  C_4
REMARK    4  A    between atoms: C_4  and  C_5
REMARK    5  A    between atoms: N_7  and  C_8
REMARK    6  A    between atoms: C_11  and  C_12
REMARK    7  A    between atoms: N_14  and  C_15
REMARK                            x       y       z     vdW  Elec       q    Type
REMARK                         _______ _______ _______ _____ _____    ______ ____
ROOT
ATOM      1  C   UNL     1       4.201   5.860  17.212  0.00  0.00    +0.000 A 
ATOM      2  C   UNL     1       3.844   5.168  18.365  0.00  0.00    +0.000 A 
ATOM      3  C   UNL     1       3.011   5.743  19.326  0.00  0.00    +0.000 A 
ATOM      4  C   UNL     1       2.513   7.035  19.153  0.00  0.00    +0.000 A 
ATOM      5  C   UNL     1       2.866   7.748  17.999  0.00  0.00    +0.000 A 
ATOM      6  C   UNL     1       3.715   7.166  17.039  0.00  0.00    +0.000 A 
ENDROOT
BRANCH   1   9
ATOM      7  C   UNL     1       6.429   5.338  16.266  0.00  0.00    +0.000 C 
ATOM      8  O   UNL     1       7.118   5.817  17.155  0.00  0.00    +0.000 OA
ATOM      9  N   UNL     1       5.039   5.279  16.234  0.00  0.00    +0.000 N 
ATOM     10  H   UNL     1       4.603   4.697  15.530  0.00  0.00    +0.000 HD
BRANCH   7  11
ATOM     11  C   UNL     1       7.102   4.703  15.069  0.00  0.00    +0.000 C 
BRANCH  11  12
ATOM     12  C   UNL     1       6.123   3.905  14.222  0.00  0.00    +0.000 C 
BRANCH  12  14
ATOM     13  C   UNL     1       5.518   2.996  11.967  0.00  0.00    +0.000 C 
ATOM     14  C   UNL     1       6.553   3.779  12.759  0.00  0.00    +0.000 C 
ENDBRANCH  12  14
ENDBRANCH  11  12
ENDBRANCH   7  11
ENDBRANCH   1   9
BRANCH   4  15
ATOM     15  C   UNL     1       1.686   7.603  20.257  0.00  0.00    +0.000 C 
ATOM     16  O   UNL     1       1.358   6.851  21.167  0.00  0.00    +0.000 OA
ATOM     17  N   UNL     1       1.301   8.931  20.129  0.00  0.00    +0.000 N 
ATOM     18  H   UNL     1       1.480   9.392  19.248  0.00  0.00    +0.000 HD
BRANCH  17  19
ATOM     19  C   UNL     1       0.485   9.632  21.053  0.00  0.00    +0.000 A 
ATOM     20  C   UNL     1       0.279   9.230  22.373  0.00  0.00    +0.000 A 
ATOM     21  C   UNL     1      -0.540   9.983  23.215  0.00  0.00    +0.000 A 
ATOM     22  C   UNL     1      -1.139  11.123  22.707  0.00  0.00    +0.000 A 
ATOM     23  N   UNL     1      -0.964  11.555  21.440  0.00  0.00    +0.000 NA
ATOM     24  C   UNL     1      -0.156  10.803  20.650  0.00  0.00    +0.000 A 
ENDBRANCH  17  19
ENDBRANCH   4  15
TORSDOF 6
ENDMDL
MODEL 5
REMARK VINA RESULT:      -6.8      2.329      9.465
REMARK  Name = 
REMARK  7 active torsions:
REMARK  status: ('A' for Active; 'I' for Inactive)
REMARK    1  A    between atoms: C_1  and  C_2
REMARK    2  A    between atoms: C_2  and  C_3
REMARK    3  A    between atoms: C_3  and  C_4
REMARK    4  A    between atoms: C_4  and  C_5
REMARK    5  A    between atoms: N_7  and  C_8
REMARK    6  A    between atoms: C_11  and  C_12
REMARK    7  A    between atoms: N_14  and  C_15
REMARK                            x       y       z     vdW  Elec       q    Type
REMARK                         _______ _______ _______ _____ _____    ______ ____
ROOT
ATOM      1  C   UNL     1       0.685   9.660  19.608  0.00  0.00    +0.000 A 
ATOM      2  C   UNL     1       1.192   8.615  20.374  0.00  0.00    +0.000 A 
ATOM      3  C   UNL     1       2.061   7.670  19.826  0.00  0.00    +0.000 A 
ATOM      4  C   UNL     1       2.446   7.751  18.486  0.00  0.00    +0.000 A 
ATOM      5  C   UNL     1       1.941   8.795  17.699  0.00  0.00    +0.000 A 
ATOM      6  C   UNL     1       1.057   9.739  18.256  0.00  0.00    +0.000 A 
ENDROOT
BRANCH   1   9
ATOM      7  C   UNL     1       0.228  11.699  20.936  0.00  0.00    +0.000 C 
ATOM      8  O   UNL     1       1.382  12.014  21.185  0.00  0.00    +0.000 OA
ATOM      9  N   UNL     1      -0.190  10.621  20.161  0.00  0.00    +0.000 N 
ATOM     10  H   UNL     1      -1.163  10.581  19.885  0.00  0.00    +0.000 HD
BRANCH   7  11
ATOM     11  C   UNL     1      -0.904  12.548  21.472  0.00  0.00    +0.000 C 
BRANCH  11  12
ATOM     12  C   UNL     1      -1.165  12.285  22.946  0.00  0.00    +0.000 C 
BRANCH  12  14
ATOM     13  C   UNL     1      -3.506  12.719  22.165  0.00  0.00    +0.000 C 
ATOM     14  C   UNL     1      -2.593  12.625  23.377  0.00  0.00    +0.000 C 
ENDBRANCH  12  14
ENDBRANCH  11  12
ENDBRANCH   7  11
ENDBRANCH   1   9
BRANCH   4  15
ATOM     15  C   UNL     1       3.322   6.665  17.959  0.00  0.00    +0.000 C 
ATOM     16  O   UNL     1       3.049   5.512  18.273  0.00  0.00    +0.000 OA
ATOM     17  N   UNL     1       4.418   7.058  17.204  0.00  0.00    +0.000 N 
ATOM     18  H   UNL     1       4.638   8.044  17.168  0.00  0.00    +0.000 HD
BRANCH  17  19
ATOM     19  C   UNL     1       5.382   6.176  16.653  0.00  0.00    +0.000 A 
ATOM     20  C   UNL     1       5.324   5.670  15.355  0.00  0.00    +0.000 A 
ATOM     21  C   UNL     1       6.319   4.808  14.893  0.00  0.00    +0.000 A 
ATOM     22  C   UNL     1       7.351   4.471  15.753  0.00  0.00    +0.000 A 
ATOM     23  N   UNL     1       7.454   4.941  17.013  0.00  0.00    +0.000 NA
ATOM     24  C   UNL     1       6.472   5.782  17.428  0.00  0.00    +0.000 A 
ENDBRANCH  17  19
ENDBRANCH   4  15
TORSDOF 6
ENDMDL
MODEL 6
REMARK VINA RESULT:      -6.8      2.325      9.357
REMARK  Name = 
REMARK  7 active torsions:
REMARK  status: ('A' for Active; 'I' for Inactive)
REMARK    1  A    between atoms: C_1  and  C_2
REMARK    2  A    between atoms: C_2  and  C_3
REMARK    3  A    between atoms: C_3  and  C_4
REMARK    4  A    between atoms: C_4  and  C_5
REMARK    5  A    between atoms: N_7  and  C_8
REMARK    6  A    between atoms: C_11  and  C_12
REMARK    7  A    between atoms: N_14  and  C_15
REMARK                            x       y       z     vdW  Elec       q    Type
REMARK                         _______ _______ _______ _____ _____    ______ ____
ROOT
ATOM      1  C   UNL     1       0.698   9.744  19.812  0.00  0.00    +0.000 A 
ATOM      2  C   UNL     1       1.067   9.745  18.470  0.00  0.00    +0.000 A 
ATOM      3  C   UNL     1       1.836   8.713  17.930  0.00  0.00    +0.000 A 
ATOM      4  C   UNL     1       2.256   7.648  18.728  0.00  0.00    +0.000 A 
ATOM      5  C   UNL     1       1.897   7.634  20.083  0.00  0.00    +0.000 A 
ATOM      6  C   UNL     1       1.130   8.683  20.623  0.00  0.00    +0.000 A 
ENDROOT
BRANCH   1   9
ATOM      7  C   UNL     1       0.442  11.884  21.033  0.00  0.00    +0.000 C 
ATOM      8  O   UNL     1       1.626  12.151  21.178  0.00  0.00    +0.000 OA
ATOM      9  N   UNL     1      -0.085  10.784  20.362  0.00  0.00    +0.000 N 
ATOM     10  H   UNL     1      -1.076  10.780  20.160  0.00  0.00    +0.000 HD
BRANCH   7  11
ATOM     11  C   UNL     1      -0.603  12.825  21.591  0.00  0.00    +0.000 C 
BRANCH  11  12
ATOM     12  C   UNL     1      -1.136  12.351  22.934  0.00  0.00    +0.000 C 
BRANCH  12  14
ATOM     13  C   UNL     1      -3.271  12.745  21.682  0.00  0.00    +0.000 C 
ATOM     14  C   UNL     1      -2.657  12.181  22.954  0.00  0.00    +0.000 C 
ENDBRANCH  12  14
ENDBRANCH  11  12
ENDBRANCH   7  11
ENDBRANCH   1   9
BRANCH   4  15
ATOM     15  C   UNL     1       3.132   6.621  18.092  0.00  0.00    +0.000 C 
ATOM     16  O   UNL     1       2.778   5.449  18.162  0.00  0.00    +0.000 OA
ATOM     17  N   UNL     1       4.315   7.074  17.525  0.00  0.00    +0.000 N 
ATOM     18  H   UNL     1       4.581   8.035  17.692  0.00  0.00    +0.000 HD
BRANCH  17  19
ATOM     19  C   UNL     1       5.290   6.247  16.912  0.00  0.00    +0.000 A 
ATOM     20  C   UNL     1       6.237   5.505  17.617  0.00  0.00    +0.000 A 
ATOM     21  C   UNL     1       7.160   4.715  16.931  0.00  0.00    +0.000 A 
ATOM     22  C   UNL     1       7.111   4.693  15.547  0.00  0.00    +0.000 A 
ATOM     23  N   UNL     1       6.209   5.387  14.823  0.00  0.00    +0.000 NA
ATOM     24  C   UNL     1       5.322   6.141  15.522  0.00  0.00    +0.000 A 
ENDBRANCH  17  19
ENDBRANCH   4  15
TORSDOF 6
ENDMDL
MODEL 7
REMARK VINA RESULT:      -6.7      1.784      1.922
REMARK  Name = 
REMARK  7 active torsions:
REMARK  status: ('A' for Active; 'I' for Inactive)
REMARK    1  A    between atoms: C_1  and  C_2
REMARK    2  A    between atoms: C_2  and  C_3
REMARK    3  A    between atoms: C_3  and  C_4
REMARK    4  A    between atoms: C_4  and  C_5
REMARK    5  A    between atoms: N_7  and  C_8
REMARK    6  A    between atoms: C_11  and  C_12
REMARK    7  A    between atoms: N_14  and  C_15
REMARK                            x       y       z     vdW  Elec       q    Type
REMARK                         _______ _______ _______ _____ _____    ______ ____
ROOT
ATOM      1  C   UNL     1       4.165   5.398  17.042  0.00  0.00    +0.000 A 
ATOM      2  C   UNL     1       4.445   6.761  17.080  0.00  0.00    +0.000 A 
ATOM      3  C   UNL     1       3.679   7.635  17.853  0.00  0.00    +0.000 A 
ATOM      4  C   UNL     1       2.608   7.161  18.613  0.00  0.00    +0.000 A 
ATOM      5  C   UNL     1       2.311   5.792  18.582  0.00  0.00    +0.000 A 
ATOM      6  C   UNL     1       3.080   4.917  17.792  0.00  0.00    +0.000 A 
ENDROOT
BRANCH   1   9
ATOM      7  C   UNL     1       5.607   4.872  15.099  0.00  0.00    +0.000 C 
ATOM      8  O   UNL     1       5.686   5.996  14.625  0.00  0.00    +0.000 OA
ATOM      9  N   UNL     1       4.941   4.508  16.265  0.00  0.00    +0.000 N 
ATOM     10  H   UNL     1       5.107   3.583  16.639  0.00  0.00    +0.000 HD
BRANCH   7  11
ATOM     11  C   UNL     1       6.312   3.726  14.407  0.00  0.00    +0.000 C 
BRANCH  11  12
ATOM     12  C   UNL     1       6.461   3.966  12.914  0.00  0.00    +0.000 C 
BRANCH  12  14
ATOM     13  C   UNL     1       4.439   3.333  11.576  0.00  0.00    +0.000 C 
ATOM     14  C   UNL     1       5.808   2.878  12.058  0.00  0.00    +0.000 C 
ENDBRANCH  12  14
ENDBRANCH  11  12
ENDBRANCH   7  11
ENDBRANCH   1   9
BRANCH   4  15
ATOM     15  C   UNL     1       1.799   8.168  19.357  0.00  0.00    +0.000 C 
ATOM     16  O   UNL     1       1.577   7.957  20.544  0.00  0.00    +0.000 OA
ATOM     17  N   UNL     1       1.305   9.239  18.623  0.00  0.00    +0.000 N 
ATOM     18  H   UNL     1       1.402   9.206  17.617  0.00  0.00    +0.000 HD
BRANCH  17  19
ATOM     19  C   UNL     1       0.486  10.272  19.144  0.00  0.00    +0.000 A 
ATOM     20  C   UNL     1      -0.886  10.371  18.913  0.00  0.00    +0.000 A 
ATOM     21  C   UNL     1      -1.616  11.422  19.468  0.00  0.00    +0.000 A 
ATOM     22  C   UNL     1      -0.946  12.354  20.242  0.00  0.00    +0.000 A 
ATOM     23  N   UNL     1       0.377  12.296  20.500  0.00  0.00    +0.000 NA
ATOM     24  C   UNL     1       1.056  11.258  19.949  0.00  0.00    +0.000 A 
ENDBRANCH  17  19
ENDBRANCH   4  15
TORSDOF 6
ENDMDL
MODEL 8
REMARK VINA RESULT:      -6.7      5.506      7.702
REMARK  Name = 
REMARK  7 active torsions:
REMARK  status: ('A' for Active; 'I' for Inactive)
REMARK    1  A    between atoms: C_1  and  C_2
REMARK    2  A    between atoms: C_2  and  C_3
REMARK    3  A    between atoms: C_3  and  C_4
REMARK    4  A    between atoms: C_4  and  C_5
REMARK    5  A    between atoms: N_7  and  C_8
REMARK    6  A    between atoms: C_11  and  C_12
REMARK    7  A    between atoms: N_14  and  C_15
REMARK                            x       y       z     vdW  Elec       q    Type
REMARK                         _______ _______ _______ _____ _____    ______ ____
ROOT
ATOM      1  C   UNL     1       6.450   5.306  18.192  0.00  0.00    +0.000 A 
ATOM      2  C   UNL     1       5.999   6.349  17.389  0.00  0.00    +0.000 A 
ATOM      3  C   UNL     1       6.645   7.586  17.379  0.00  0.00    +0.000 A 
ATOM      4  C   UNL     1       7.766   7.809  18.180  0.00  0.00    +0.000 A 
ATOM      5  C   UNL     1       8.231   6.770  18.998  0.00  0.00    +0.000 A 
ATOM      6  C   UNL     1       7.568   5.528  19.010  0.00  0.00    +0.000 A 
ENDROOT
BRANCH   1   9
ATOM      7  C   UNL     1       4.669   3.764  18.957  0.00  0.00    +0.000 C 
ATOM      8  O   UNL     1       4.035   4.549  19.645  0.00  0.00    +0.000 OA
ATOM      9  N   UNL     1       5.802   4.050  18.201  0.00  0.00    +0.000 N 
ATOM     10  H   UNL     1       6.119   3.355  17.537  0.00  0.00    +0.000 HD
BRANCH   7  11
ATOM     11  C   UNL     1       4.204   2.328  18.852  0.00  0.00    +0.000 C 
BRANCH  11  12
ATOM     12  C   UNL     1       2.919   2.203  18.048  0.00  0.00    +0.000 C 
BRANCH  12  14
ATOM     13  C   UNL     1       0.970   3.071  19.363  0.00  0.00    +0.000 C 
ATOM     14  C   UNL     1       1.707   1.823  18.902  0.00  0.00    +0.000 C 
ENDBRANCH  12  14
ENDBRANCH  11  12
ENDBRANCH   7  11
ENDBRANCH   1   9
BRANCH   4  15
ATOM     15  C   UNL     1       8.357   9.178  18.164  0.00  0.00    +0.000 C 
ATOM     16  O   UNL     1       8.095   9.900  17.208  0.00  0.00    +0.000 OA
ATOM     17  N   UNL     1       9.212   9.502  19.208  0.00  0.00    +0.000 N 
ATOM     18  H   UNL     1       9.492   8.761  19.836  0.00  0.00    +0.000 HD
BRANCH  17  19
ATOM     19  C   UNL     1       9.897  10.736  19.344  0.00  0.00    +0.000 A 
ATOM     20  C   UNL     1       9.911  11.495  20.514  0.00  0.00    +0.000 A 
ATOM     21  C   UNL     1      10.614  12.699  20.560  0.00  0.00    +0.000 A 
ATOM     22  C   UNL     1      11.287  13.114  19.423  0.00  0.00    +0.000 A 
ATOM     23  N   UNL     1      11.308  12.411  18.272  0.00  0.00    +0.000 NA
ATOM     24  C   UNL     1      10.619  11.242  18.263  0.00  0.00    +0.000 A 
ENDBRANCH  17  19
ENDBRANCH   4  15
TORSDOF 6
ENDMDL
MODEL 9
REMARK VINA RESULT:      -6.7      2.070      9.308
REMARK  Name = 
REMARK  7 active torsions:
REMARK  status: ('A' for Active; 'I' for Inactive)
REMARK    1  A    between atoms: C_1  and  C_2
REMARK    2  A    between atoms: C_2  and  C_3
REMARK    3  A    between atoms: C_3  and  C_4
REMARK    4  A    between atoms: C_4  and  C_5
REMARK    5  A    between atoms: N_7  and  C_8
REMARK    6  A    between atoms: C_11  and  C_12
REMARK    7  A    between atoms: N_14  and  C_15
REMARK                            x       y       z     vdW  Elec       q    Type
REMARK                         _______ _______ _______ _____ _____    ______ ____
ROOT
ATOM      1  C   UNL     1       0.728   9.186  20.393  0.00  0.00    +0.000 A 
ATOM      2  C   UNL     1       1.201   7.985  20.913  0.00  0.00    +0.000 A 
ATOM      3  C   UNL     1       2.029   7.148  20.163  0.00  0.00    +0.000 A 
ATOM      4  C   UNL     1       2.406   7.497  18.866  0.00  0.00    +0.000 A 
ATOM      5  C   UNL     1       1.935   8.702  18.326  0.00  0.00    +0.000 A 
ATOM      6  C   UNL     1       1.092   9.536  19.083  0.00  0.00    +0.000 A 
ENDROOT
BRANCH   1   9
ATOM      7  C   UNL     1      -0.034  10.169  22.535  0.00  0.00    +0.000 C 
ATOM      8  O   UNL     1       0.784   9.644  23.275  0.00  0.00    +0.000 OA
ATOM      9  N   UNL     1      -0.106  10.039  21.151  0.00  0.00    +0.000 N 
ATOM     10  H   UNL     1      -0.715  10.668  20.644  0.00  0.00    +0.000 HD
BRANCH   7  11
ATOM     11  C   UNL     1      -1.080  11.090  23.123  0.00  0.00    +0.000 C 
BRANCH  11  12
ATOM     12  C   UNL     1      -1.542  12.139  22.124  0.00  0.00    +0.000 C 
BRANCH  12  14
ATOM     13  C   UNL     1       0.090  14.041  22.110  0.00  0.00    +0.000 C 
ATOM     14  C   UNL     1      -1.276  13.573  22.588  0.00  0.00    +0.000 C 
ENDBRANCH  12  14
ENDBRANCH  11  12
ENDBRANCH   7  11
ENDBRANCH   1   9
BRANCH   4  15
ATOM     15  C   UNL     1       3.236   6.518  18.107  0.00  0.00    +0.000 C 
ATOM     16  O   UNL     1       2.864   5.349  18.090  0.00  0.00    +0.000 OA
ATOM     17  N   UNL     1       4.403   7.001  17.532  0.00  0.00    +0.000 N 
ATOM     18  H   UNL     1       4.693   7.940  17.769  0.00  0.00    +0.000 HD
BRANCH  17  19
ATOM     19  C   UNL     1       5.337   6.216  16.808  0.00  0.00    +0.000 A 
ATOM     20  C   UNL     1       5.189   5.869  15.466  0.00  0.00    +0.000 A 
ATOM     21  C   UNL     1       6.160   5.094  14.831  0.00  0.00    +0.000 A 
ATOM     22  C   UNL     1       7.259   4.681  15.566  0.00  0.00    +0.000 A 
ATOM     23  N   UNL     1       7.449   4.998  16.864  0.00  0.00    +0.000 NA
ATOM     24  C   UNL     1       6.488   5.758  17.448  0.00  0.00    +0.000 A 
ENDBRANCH  17  19
ENDBRANCH   4  15
TORSDOF 6
ENDMDL
