MODEL 1
REMARK VINA RESULT:      -8.4      0.000      0.000
REMARK  Name = 
REMARK  8 active torsions:
REMARK  status: ('A' for Active; 'I' for Inactive)
REMARK    1  A    between atoms: C_1  and  C_2
REMARK    2  A    between atoms: C_2  and  C_3
REMARK    3  A    between atoms: C_3  and  C_4
REMARK    4  A    between atoms: C_4  and  C_5
REMARK    5  A    between atoms: C_5  and  N_6
REMARK    6  A    between atoms: C_8  and  C_9
REMARK    7  A    between atoms: C_9  and  C_11
REMARK    8  A    between atoms: C_14  and  C_15
REMARK                            x       y       z     vdW  Elec       q    Type
REMARK                         _______ _______ _______ _____ _____    ______ ____
ROOT
ATOM      1  C   UNL     1       1.635   8.820  18.326  0.00  0.00    +0.000 C 
ATOM      2  O   UNL     1       1.382   9.019  17.156  0.00  0.00    +0.000 OA
ENDROOT
BRANCH   1   3
ATOM      3  C   UNL     1       1.274   9.908  19.408  0.00  0.00    +0.000 A 
ATOM      4  C   UNL     1       1.289  11.147  18.814  0.00  0.00    +0.000 A 
ATOM      5  C   UNL     1       1.179  12.231  19.619  0.00  0.00    +0.000 A 
ATOM      6  C   UNL     1      -0.073  12.142  20.128  0.00  0.00    +0.000 A 
ATOM      7  C   UNL     1      -0.250  11.038  20.953  0.00  0.00    +0.000 A 
ATOM      8  C   UNL     1      -1.159  11.213  22.004  0.00  0.00    +0.000 A 
ATOM      9  C   UNL     1      -0.980  10.491  23.165  0.00  0.00    +0.000 A 
ATOM     10  C   UNL     1       0.009   9.519  23.194  0.00  0.00    +0.000 A 
ATOM     11  C   UNL     1       0.738   9.157  22.012  0.00  0.00    +0.000 A 
ATOM     12  C   UNL     1       0.639   9.921  20.780  0.00  0.00    +0.000 A 
BRANCH   6  13
ATOM     13  C   UNL     1      -1.168  12.842  19.407  0.00  0.00    +0.000 C 
ATOM     14  N   UNL     1      -1.023  14.194  19.308  0.00  0.00    +0.000 N 
ATOM     15  O   UNL     1      -2.100  12.257  18.877  0.00  0.00    +0.000 OA
ATOM     16  H   UNL     1      -0.157  14.664  19.578  0.00  0.00    +0.000 HD
ATOM     17  H   UNL     1      -1.633  14.680  18.678  0.00  0.00    +0.000 HD
ENDBRANCH   6  13
ENDBRANCH   1   3
BRANCH   1  20
ATOM     18  N   UNL     1       2.906   5.592  19.886  0.00  0.00    +0.000 N 
ATOM     19  C   UNL     1       2.203   6.794  19.944  0.00  0.00    +0.000 A 
ATOM     20  C   UNL     1       2.499   7.585  18.822  0.00  0.00    +0.000 A 
ATOM     21  C   UNL     1       3.587   6.824  18.152  0.00  0.00    +0.000 A 
ATOM     22  C   UNL     1       4.379   7.027  16.983  0.00  0.00    +0.000 A 
ATOM     23  C   UNL     1       5.172   5.982  16.455  0.00  0.00    +0.000 A 
ATOM     24  C   UNL     1       5.233   4.758  17.079  0.00  0.00    +0.000 A 
ATOM     25  C   UNL     1       4.532   4.526  18.254  0.00  0.00    +0.000 A 
ATOM     26  C   UNL     1       3.701   5.566  18.757  0.00  0.00    +0.000 A 
BRANCH  18  27
ATOM     27  C   UNL     1       2.725   4.421  20.753  0.00  0.00    +0.000 C 
BRANCH  27  28
ATOM     28  C   UNL     1       1.286   3.880  20.788  0.00  0.00    +0.000 C 
BRANCH  28  29
ATOM     29  C   UNL     1       1.139   2.509  20.101  0.00  0.00    +0.000 C 
BRANCH  29  31
ATOM     30  C   UNL     1       2.279   2.123  17.856  0.00  0.00    +0.000 C 
ATOM     31  C   UNL     1       1.041   2.648  18.574  0.00  0.00    +0.000 C 
ENDBRANCH  29  31
ENDBRANCH  28  29
ENDBRANCH  27  28
ENDBRANCH  18  27
ENDBRANCH   1  20
TORSDOF 7
ENDMDL
MODEL 2
REMARK VINA RESULT:      -8.2      1.681      2.488
REMARK  Name = 
REMARK  8 active torsions:
REMARK  status: ('A' for Active; 'I' for Inactive)
REMARK    1  A    between atoms: C_1  and  C_2
REMARK    2  A    between atoms: C_2  and  C_3
REMARK    3  A    between atoms: C_3  and  C_4
REMARK    4  A    between atoms: C_4  and  C_5
REMARK    5  A    between atoms: C_5  and  N_6
REMARK    6  A    between atoms: C_8  and  C_9
REMARK    7  A    between atoms: C_9  and  C_11
REMARK    8  A    between atoms: C_14  and  C_15
REMARK                            x       y       z     vdW  Elec       q    Type
REMARK                         _______ _______ _______ _____ _____    ______ ____
ROOT
ATOM      1  C   UNL     1       1.895   9.240  18.038  0.00  0.00    +0.000 C 
ATOM      2  O   UNL     1       2.388  10.024  17.254  0.00  0.00    +0.000 OA
ENDROOT
BRANCH   1   3
ATOM      3  C   UNL     1       0.555   9.607  18.783  0.00  0.00    +0.000 A 
ATOM      4  C   UNL     1       0.821   9.772  20.122  0.00  0.00    +0.000 A 
ATOM      5  C   UNL     1      -0.233   9.914  20.959  0.00  0.00    +0.000 A 
ATOM      6  C   UNL     1      -0.785  11.099  20.601  0.00  0.00    +0.000 A 
ATOM      7  C   UNL     1      -1.319  11.087  19.319  0.00  0.00    +0.000 A 
ATOM      8  C   UNL     1      -2.437  11.908  19.127  0.00  0.00    +0.000 A 
ATOM      9  C   UNL     1      -3.368  11.551  18.175  0.00  0.00    +0.000 A 
ATOM     10  C   UNL     1      -3.090  10.471  17.349  0.00  0.00    +0.000 A 
ATOM     11  C   UNL     1      -1.810   9.822  17.371  0.00  0.00    +0.000 A 
ATOM     12  C   UNL     1      -0.816  10.110  18.391  0.00  0.00    +0.000 A 
BRANCH   6  13
ATOM     13  C   UNL     1      -0.333  12.320  21.318  0.00  0.00    +0.000 C 
ATOM     14  N   UNL     1      -0.798  12.447  22.593  0.00  0.00    +0.000 N 
ATOM     15  O   UNL     1       0.451  13.124  20.838  0.00  0.00    +0.000 OA
ATOM     16  H   UNL     1      -1.293  11.689  23.065  0.00  0.00    +0.000 HD
ATOM     17  H   UNL     1      -0.377  13.150  23.171  0.00  0.00    +0.000 HD
ENDBRANCH   6  13
ENDBRANCH   1   3
BRANCH   1  20
ATOM     18  N   UNL     1       2.842   5.883  19.552  0.00  0.00    +0.000 N 
ATOM     19  C   UNL     1       2.267   7.149  19.629  0.00  0.00    +0.000 A 
ATOM     20  C   UNL     1       2.632   7.918  18.513  0.00  0.00    +0.000 A 
ATOM     21  C   UNL     1       3.630   7.057  17.824  0.00  0.00    +0.000 A 
ATOM     22  C   UNL     1       4.428   7.192  16.649  0.00  0.00    +0.000 A 
ATOM     23  C   UNL     1       5.105   6.077  16.103  0.00  0.00    +0.000 A 
ATOM     24  C   UNL     1       5.047   4.846  16.714  0.00  0.00    +0.000 A 
ATOM     25  C   UNL     1       4.336   4.674  17.894  0.00  0.00    +0.000 A 
ATOM     26  C   UNL     1       3.621   5.788  18.415  0.00  0.00    +0.000 A 
BRANCH  18  27
ATOM     27  C   UNL     1       2.551   4.726  20.409  0.00  0.00    +0.000 C 
BRANCH  27  28
ATOM     28  C   UNL     1       1.067   4.325  20.441  0.00  0.00    +0.000 C 
BRANCH  28  29
ATOM     29  C   UNL     1       0.784   2.998  19.712  0.00  0.00    +0.000 C 
BRANCH  29  31
ATOM     30  C   UNL     1       2.299   1.990  17.929  0.00  0.00    +0.000 C 
ATOM     31  C   UNL     1       2.080   2.225  19.418  0.00  0.00    +0.000 C 
ENDBRANCH  29  31
ENDBRANCH  28  29
ENDBRANCH  27  28
ENDBRANCH  18  27
ENDBRANCH   1  20
TORSDOF 7
ENDMDL
MODEL 3
REMARK VINA RESULT:      -7.9      4.472      7.031
REMARK  Name = 
REMARK  8 active torsions:
REMARK  status: ('A' for Active; 'I' for Inactive)
REMARK    1  A    between atoms: C_1  and  C_2
REMARK    2  A    between atoms: C_2  and  C_3
REMARK    3  A    between atoms: C_3  and  C_4
REMARK    4  A    between atoms: C_4  and  C_5
REMARK    5  A    between atoms: C_5  and  N_6
REMARK    6  A    between atoms: C_8  and  C_9
REMARK    7  A    between atoms: C_9  and  C_11
REMARK    8  A    between atoms: C_14  and  C_15
REMARK                            x       y       z     vdW  Elec       q    Type
REMARK                         _______ _______ _______ _____ _____    ______ ____
ROOT
ATOM      1  C   UNL     1       2.977   3.063  16.840  0.00  0.00    +0.000 C 
ATOM      2  O   UNL     1       2.434   2.278  16.091  0.00  0.00    +0.000 OA
ENDROOT
BRANCH   1   3
ATOM      3  C   UNL     1       2.152   3.757  17.990  0.00  0.00    +0.000 A 
ATOM      4  C   UNL     1       1.491   2.789  18.709  0.00  0.00    +0.000 A 
ATOM      5  C   UNL     1       0.586   3.199  19.629  0.00  0.00    +0.000 A 
ATOM      6  C   UNL     1       1.330   3.833  20.567  0.00  0.00    +0.000 A 
ATOM      7  C   UNL     1       1.937   4.989  20.093  0.00  0.00    +0.000 A 
ATOM      8  C   UNL     1       2.104   6.010  21.037  0.00  0.00    +0.000 A 
ATOM      9  C   UNL     1       2.112   7.320  20.606  0.00  0.00    +0.000 A 
ATOM     10  C   UNL     1       2.094   7.567  19.241  0.00  0.00    +0.000 A 
ATOM     11  C   UNL     1       2.213   6.503  18.285  0.00  0.00    +0.000 A 
ATOM     12  C   UNL     1       2.146   5.105  18.675  0.00  0.00    +0.000 A 
BRANCH   6  13
ATOM     13  C   UNL     1       1.816   3.036  21.724  0.00  0.00    +0.000 C 
ATOM     14  N   UNL     1       0.838   2.523  22.524  0.00  0.00    +0.000 N 
ATOM     15  O   UNL     1       2.996   2.792  21.918  0.00  0.00    +0.000 OA
ATOM     16  H   UNL     1      -0.148   2.560  22.262  0.00  0.00    +0.000 HD
ATOM     17  H   UNL     1       1.108   1.834  23.200  0.00  0.00    +0.000 HD
ENDBRANCH   6  13
ENDBRANCH   1   3
BRANCH   1  20
ATOM     18  N   UNL     1       6.188   4.562  15.461  0.00  0.00    +0.000 N 
ATOM     19  C   UNL     1       5.073   3.734  15.357  0.00  0.00    +0.000 A 
ATOM     20  C   UNL     1       4.456   3.590  16.609  0.00  0.00    +0.000 A 
ATOM     21  C   UNL     1       5.402   4.274  17.531  0.00  0.00    +0.000 A 
ATOM     22  C   UNL     1       5.439   4.504  18.938  0.00  0.00    +0.000 A 
ATOM     23  C   UNL     1       6.357   5.423  19.496  0.00  0.00    +0.000 A 
ATOM     24  C   UNL     1       7.266   6.085  18.703  0.00  0.00    +0.000 A 
ATOM     25  C   UNL     1       7.314   5.851  17.335  0.00  0.00    +0.000 A 
ATOM     26  C   UNL     1       6.359   4.959  16.773  0.00  0.00    +0.000 A 
BRANCH  18  27
ATOM     27  C   UNL     1       6.982   5.118  14.357  0.00  0.00    +0.000 C 
BRANCH  27  28
ATOM     28  C   UNL     1       7.233   4.132  13.204  0.00  0.00    +0.000 C 
BRANCH  28  29
ATOM     29  C   UNL     1       6.193   4.247  12.073  0.00  0.00    +0.000 C 
BRANCH  29  31
ATOM     30  C   UNL     1       4.100   3.155  11.118  0.00  0.00    +0.000 C 
ATOM     31  C   UNL     1       5.383   2.951  11.913  0.00  0.00    +0.000 C 
ENDBRANCH  29  31
ENDBRANCH  28  29
ENDBRANCH  27  28
ENDBRANCH  18  27
ENDBRANCH   1  20
TORSDOF 7
ENDMDL
MODEL 4
REMARK VINA RESULT:      -7.9      1.772      2.685
REMARK  Name = 
REMARK  8 active torsions:
REMARK  status: ('A' for Active; 'I' for Inactive)
REMARK    1  A    between atoms: C_1  and  C_2
REMARK    2  A    between atoms: C_2  and  C_3
REMARK    3  A    between atoms: C_3  and  C_4
REMARK    4  A    between atoms: C_4  and  C_5
REMARK    5  A    between atoms: C_5  and  N_6
REMARK    6  A    between atoms: C_8  and  C_9
REMARK    7  A    between atoms: C_9  and  C_11
REMARK    8  A    between atoms: C_14  and  C_15
REMARK                            x       y       z     vdW  Elec       q    Type
REMARK                         _______ _______ _______ _____ _____    ______ ____
ROOT
ATOM      1  C   UNL     1       2.057   8.968  18.013  0.00  0.00    +0.000 C 
ATOM      2  O   UNL     1       2.766   9.791  17.473  0.00  0.00    +0.000 OA
ENDROOT
BRANCH   1   3
ATOM      3  C   UNL     1       0.737   9.422  18.745  0.00  0.00    +0.000 A 
ATOM      4  C   UNL     1       0.995   9.546  20.090  0.00  0.00    +0.000 A 
ATOM      5  C   UNL     1      -0.058   9.754  20.915  0.00  0.00    +0.000 A 
ATOM      6  C   UNL     1      -0.515  10.982  20.568  0.00  0.00    +0.000 A 
ATOM      7  C   UNL     1      -1.029  11.029  19.279  0.00  0.00    +0.000 A 
ATOM      8  C   UNL     1      -2.081  11.933  19.085  0.00  0.00    +0.000 A 
ATOM      9  C   UNL     1      -3.022  11.660  18.114  0.00  0.00    +0.000 A 
ATOM     10  C   UNL     1      -2.812  10.575  17.276  0.00  0.00    +0.000 A 
ATOM     11  C   UNL     1      -1.584   9.832  17.305  0.00  0.00    +0.000 A 
ATOM     12  C   UNL     1      -0.587  10.031  18.342  0.00  0.00    +0.000 A 
BRANCH   6  13
ATOM     13  C   UNL     1       0.016  12.155  21.310  0.00  0.00    +0.000 C 
ATOM     14  N   UNL     1       0.837  12.971  20.590  0.00  0.00    +0.000 N 
ATOM     15  O   UNL     1      -0.304  12.421  22.458  0.00  0.00    +0.000 OA
ATOM     16  H   UNL     1       0.955  12.863  19.581  0.00  0.00    +0.000 HD
ATOM     17  H   UNL     1       1.067  13.863  20.986  0.00  0.00    +0.000 HD
ENDBRANCH   6  13
ENDBRANCH   1   3
BRANCH   1  20
ATOM     18  N   UNL     1       2.168   5.191  18.443  0.00  0.00    +0.000 N 
ATOM     19  C   UNL     1       1.685   6.454  18.778  0.00  0.00    +0.000 A 
ATOM     20  C   UNL     1       2.483   7.450  18.194  0.00  0.00    +0.000 A 
ATOM     21  C   UNL     1       3.610   6.677  17.607  0.00  0.00    +0.000 A 
ATOM     22  C   UNL     1       4.792   7.020  16.885  0.00  0.00    +0.000 A 
ATOM     23  C   UNL     1       5.552   6.025  16.228  0.00  0.00    +0.000 A 
ATOM     24  C   UNL     1       5.196   4.699  16.303  0.00  0.00    +0.000 A 
ATOM     25  C   UNL     1       4.090   4.303  17.043  0.00  0.00    +0.000 A 
ATOM     26  C   UNL     1       3.304   5.312  17.666  0.00  0.00    +0.000 A 
BRANCH  18  27
ATOM     27  C   UNL     1       1.510   3.900  18.685  0.00  0.00    +0.000 C 
BRANCH  27  28
ATOM     28  C   UNL     1       0.920   3.750  20.097  0.00  0.00    +0.000 C 
BRANCH  28  29
ATOM     29  C   UNL     1       1.444   2.507  20.841  0.00  0.00    +0.000 C 
BRANCH  29  31
ATOM     30  C   UNL     1       3.959   2.378  20.457  0.00  0.00    +0.000 C 
ATOM     31  C   UNL     1       2.844   2.745  21.429  0.00  0.00    +0.000 C 
ENDBRANCH  29  31
ENDBRANCH  28  29
ENDBRANCH  27  28
ENDBRANCH  18  27
ENDBRANCH   1  20
TORSDOF 7
ENDMDL
MODEL 5
REMARK VINA RESULT:      -7.9      1.865      2.925
REMARK  Name = 
REMARK  8 active torsions:
REMARK  status: ('A' for Active; 'I' for Inactive)
REMARK    1  A    between atoms: C_1  and  C_2
REMARK    2  A    between atoms: C_2  and  C_3
REMARK    3  A    between atoms: C_3  and  C_4
REMARK    4  A    between atoms: C_4  and  C_5
REMARK    5  A    between atoms: C_5  and  N_6
REMARK    6  A    between atoms: C_8  and  C_9
REMARK    7  A    between atoms: C_9  and  C_11
REMARK    8  A    between atoms: C_14  and  C_15
REMARK                            x       y       z     vdW  Elec       q    Type
REMARK                         _______ _______ _______ _____ _____    ______ ____
ROOT
ATOM      1  C   UNL     1       2.156   8.881  18.024  0.00  0.00    +0.000 C 
ATOM      2  O   UNL     1       2.888   9.772  17.646  0.00  0.00    +0.000 OA
ENDROOT
BRANCH   1   3
ATOM      3  C   UNL     1       0.780   9.228  18.712  0.00  0.00    +0.000 A 
ATOM      4  C   UNL     1       0.940   9.179  20.076  0.00  0.00    +0.000 A 
ATOM      5  C   UNL     1      -0.172   9.270  20.843  0.00  0.00    +0.000 A 
ATOM      6  C   UNL     1      -0.623  10.530  20.625  0.00  0.00    +0.000 A 
ATOM      7  C   UNL     1      -1.045  10.740  19.319  0.00  0.00    +0.000 A 
ATOM      8  C   UNL     1      -2.095  11.655  19.167  0.00  0.00    +0.000 A 
ATOM      9  C   UNL     1      -2.960  11.505  18.104  0.00  0.00    +0.000 A 
ATOM     10  C   UNL     1      -2.674  10.539  17.150  0.00  0.00    +0.000 A 
ATOM     11  C   UNL     1      -1.440   9.807  17.172  0.00  0.00    +0.000 A 
ATOM     12  C   UNL     1      -0.522   9.876  18.296  0.00  0.00    +0.000 A 
BRANCH   6  13
ATOM     13  C   UNL     1      -0.165  11.601  21.549  0.00  0.00    +0.000 C 
ATOM     14  N   UNL     1      -0.731  11.575  22.789  0.00  0.00    +0.000 N 
ATOM     15  O   UNL     1       0.702  12.409  21.257  0.00  0.00    +0.000 OA
ATOM     16  H   UNL     1      -1.309  10.794  23.102  0.00  0.00    +0.000 HD
ATOM     17  H   UNL     1      -0.322  12.156  23.496  0.00  0.00    +0.000 HD
ENDBRANCH   6  13
ENDBRANCH   1   3
BRANCH   1  20
ATOM     18  N   UNL     1       2.338   5.090  17.782  0.00  0.00    +0.000 N 
ATOM     19  C   UNL     1       1.718   6.269  18.190  0.00  0.00    +0.000 A 
ATOM     20  C   UNL     1       2.593   7.356  18.041  0.00  0.00    +0.000 A 
ATOM     21  C   UNL     1       3.875   6.705  17.661  0.00  0.00    +0.000 A 
ATOM     22  C   UNL     1       5.190   7.176  17.370  0.00  0.00    +0.000 A 
ATOM     23  C   UNL     1       6.150   6.322  16.782  0.00  0.00    +0.000 A 
ATOM     24  C   UNL     1       5.856   5.005  16.515  0.00  0.00    +0.000 A 
ATOM     25  C   UNL     1       4.612   4.479  16.835  0.00  0.00    +0.000 A 
ATOM     26  C   UNL     1       3.635   5.354  17.386  0.00  0.00    +0.000 A 
BRANCH  18  27
ATOM     27  C   UNL     1       1.705   3.778  17.594  0.00  0.00    +0.000 C 
BRANCH  27  28
ATOM     28  C   UNL     1       1.854   2.831  18.797  0.00  0.00    +0.000 C 
BRANCH  28  29
ATOM     29  C   UNL     1       0.794   3.069  19.888  0.00  0.00    +0.000 C 
BRANCH  29  31
ATOM     30  C   UNL     1       2.391   4.395  21.366  0.00  0.00    +0.000 C 
ATOM     31  C   UNL     1       1.433   3.213  21.279  0.00  0.00    +0.000 C 
ENDBRANCH  29  31
ENDBRANCH  28  29
ENDBRANCH  27  28
ENDBRANCH  18  27
ENDBRANCH   1  20
TORSDOF 7
ENDMDL
MODEL 6
REMARK VINA RESULT:      -7.8      2.467      8.636
REMARK  Name = 
REMARK  8 active torsions:
REMARK  status: ('A' for Active; 'I' for Inactive)
REMARK    1  A    between atoms: C_1  and  C_2
REMARK    2  A    between atoms: C_2  and  C_3
REMARK    3  A    between atoms: C_3  and  C_4
REMARK    4  A    between atoms: C_4  and  C_5
REMARK    5  A    between atoms: C_5  and  N_6
REMARK    6  A    between atoms: C_8  and  C_9
REMARK    7  A    between atoms: C_9  and  C_11
REMARK    8  A    between atoms: C_14  and  C_15
REMARK                            x       y       z     vdW  Elec       q    Type
REMARK                         _______ _______ _______ _____ _____    ______ ____
ROOT
ATOM      1  C   UNL     1       1.815   6.172  20.179  0.00  0.00    +0.000 C 
ATOM      2  O   UNL     1       1.077   5.523  20.890  0.00  0.00    +0.000 OA
ENDROOT
BRANCH   1   3
ATOM      3  C   UNL     1       3.039   5.478  19.467  0.00  0.00    +0.000 A 
ATOM      4  C   UNL     1       3.234   4.238  20.028  0.00  0.00    +0.000 A 
ATOM      5  C   UNL     1       4.351   3.558  19.675  0.00  0.00    +0.000 A 
ATOM      6  C   UNL     1       4.171   3.283  18.360  0.00  0.00    +0.000 A 
ATOM      7  C   UNL     1       4.152   4.420  17.562  0.00  0.00    +0.000 A 
ATOM      8  C   UNL     1       4.658   4.252  16.267  0.00  0.00    +0.000 A 
ATOM      9  C   UNL     1       5.235   5.333  15.634  0.00  0.00    +0.000 A 
ATOM     10  C   UNL     1       5.166   6.575  16.249  0.00  0.00    +0.000 A 
ATOM     11  C   UNL     1       4.392   6.779  17.440  0.00  0.00    +0.000 A 
ATOM     12  C   UNL     1       3.816   5.672  18.185  0.00  0.00    +0.000 A 
BRANCH   6  13
ATOM     13  C   UNL     1       3.535   1.988  18.002  0.00  0.00    +0.000 C 
ATOM     14  N   UNL     1       4.223   0.878  18.396  0.00  0.00    +0.000 N 
ATOM     15  O   UNL     1       2.446   1.907  17.457  0.00  0.00    +0.000 OA
ATOM     16  H   UNL     1       5.032   0.937  19.017  0.00  0.00    +0.000 HD
ATOM     17  H   UNL     1       3.749  -0.003  18.341  0.00  0.00    +0.000 HD
ENDBRANCH   6  13
ENDBRANCH   1   3
BRANCH   1  20
ATOM     18  N   UNL     1       1.477   9.780  19.025  0.00  0.00    +0.000 N 
ATOM     19  C   UNL     1       2.000   8.494  18.907  0.00  0.00    +0.000 A 
ATOM     20  C   UNL     1       1.734   7.753  20.069  0.00  0.00    +0.000 A 
ATOM     21  C   UNL     1       1.144   8.765  20.986  0.00  0.00    +0.000 A 
ATOM     22  C   UNL     1       0.659   8.740  22.327  0.00  0.00    +0.000 A 
ATOM     23  C   UNL     1      -0.090   9.821  22.845  0.00  0.00    +0.000 A 
ATOM     24  C   UNL     1      -0.331  10.942  22.086  0.00  0.00    +0.000 A 
ATOM     25  C   UNL     1       0.172  11.045  20.796  0.00  0.00    +0.000 A 
ATOM     26  C   UNL     1       0.886   9.936  20.264  0.00  0.00    +0.000 A 
BRANCH  18  27
ATOM     27  C   UNL     1       1.368  10.790  17.964  0.00  0.00    +0.000 C 
BRANCH  27  28
ATOM     28  C   UNL     1       2.454  11.878  18.017  0.00  0.00    +0.000 C 
BRANCH  28  29
ATOM     29  C   UNL     1       1.885  13.287  18.266  0.00  0.00    +0.000 C 
BRANCH  29  31
ATOM     30  C   UNL     1       3.491  15.176  17.677  0.00  0.00    +0.000 C 
ATOM     31  C   UNL     1       2.967  14.254  18.773  0.00  0.00    +0.000 C 
ENDBRANCH  29  31
ENDBRANCH  28  29
ENDBRANCH  27  28
ENDBRANCH  18  27
ENDBRANCH   1  20
TORSDOF 7
ENDMDL
MODEL 7
REMARK VINA RESULT:      -7.8      2.085      4.250
REMARK  Name = 
REMARK  8 active torsions:
REMARK  status: ('A' for Active; 'I' for Inactive)
REMARK    1  A    between atoms: C_1  and  C_2
REMARK    2  A    between atoms: C_2  and  C_3
REMARK    3  A    between atoms: C_3  and  C_4
REMARK    4  A    between atoms: C_4  and  C_5
REMARK    5  A    between atoms: C_5  and  N_6
REMARK    6  A    between atoms: C_8  and  C_9
REMARK    7  A    between atoms: C_9  and  C_11
REMARK    8  A    between atoms: C_14  and  C_15
REMARK                            x       y       z     vdW  Elec       q    Type
REMARK                         _______ _______ _______ _____ _____    ______ ____
ROOT
ATOM      1  C   UNL     1       2.115   9.345  17.953  0.00  0.00    +0.000 C 
ATOM      2  O   UNL     1       2.784  10.287  17.580  0.00  0.00    +0.000 OA
ENDROOT
BRANCH   1   3
ATOM      3  C   UNL     1       0.771   9.593  18.738  0.00  0.00    +0.000 A 
ATOM      4  C   UNL     1       1.042   9.620  20.085  0.00  0.00    +0.000 A 
ATOM      5  C   UNL     1      -0.011   9.643  20.937  0.00  0.00    +0.000 A 
ATOM      6  C   UNL     1      -0.596  10.844  20.711  0.00  0.00    +0.000 A 
ATOM      7  C   UNL     1      -1.138  10.955  19.436  0.00  0.00    +0.000 A 
ATOM      8  C   UNL     1      -2.279  11.762  19.338  0.00  0.00    +0.000 A 
ATOM      9  C   UNL     1      -3.206  11.484  18.356  0.00  0.00    +0.000 A 
ATOM     10  C   UNL     1      -2.905  10.507  17.418  0.00  0.00    +0.000 A 
ATOM     11  C   UNL     1      -1.608   9.894  17.366  0.00  0.00    +0.000 A 
ATOM     12  C   UNL     1      -0.615  10.098  18.407  0.00  0.00    +0.000 A 
BRANCH   6  13
ATOM     13  C   UNL     1      -0.172  11.992  21.553  0.00  0.00    +0.000 C 
ATOM     14  N   UNL     1       0.493  12.981  20.890  0.00  0.00    +0.000 N 
ATOM     15  O   UNL     1      -0.449  12.091  22.738  0.00  0.00    +0.000 OA
ATOM     16  H   UNL     1       0.559  12.996  19.871  0.00  0.00    +0.000 HD
ATOM     17  H   UNL     1       0.633  13.849  21.372  0.00  0.00    +0.000 HD
ENDBRANCH   6  13
ENDBRANCH   1   3
BRANCH   1  20
ATOM     18  N   UNL     1       4.065   6.134  17.361  0.00  0.00    +0.000 N 
ATOM     19  C   UNL     1       3.563   7.364  16.941  0.00  0.00    +0.000 A 
ATOM     20  C   UNL     1       2.618   7.843  17.862  0.00  0.00    +0.000 A 
ATOM     21  C   UNL     1       2.459   6.703  18.804  0.00  0.00    +0.000 A 
ATOM     22  C   UNL     1       1.663   6.465  19.964  0.00  0.00    +0.000 A 
ATOM     23  C   UNL     1       1.925   5.362  20.807  0.00  0.00    +0.000 A 
ATOM     24  C   UNL     1       2.926   4.466  20.509  0.00  0.00    +0.000 A 
ATOM     25  C   UNL     1       3.690   4.615  19.360  0.00  0.00    +0.000 A 
ATOM     26  C   UNL     1       3.451   5.752  18.538  0.00  0.00    +0.000 A 
BRANCH  18  27
ATOM     27  C   UNL     1       5.204   5.403  16.790  0.00  0.00    +0.000 C 
BRANCH  27  28
ATOM     28  C   UNL     1       6.541   6.160  16.870  0.00  0.00    +0.000 C 
BRANCH  28  29
ATOM     29  C   UNL     1       7.250   5.992  18.227  0.00  0.00    +0.000 C 
BRANCH  29  31
ATOM     30  C   UNL     1       7.852   8.409  17.692  0.00  0.00    +0.000 C 
ATOM     31  C   UNL     1       8.173   7.181  18.536  0.00  0.00    +0.000 C 
ENDBRANCH  29  31
ENDBRANCH  28  29
ENDBRANCH  27  28
ENDBRANCH  18  27
ENDBRANCH   1  20
TORSDOF 7
ENDMDL
MODEL 8
REMARK VINA RESULT:      -7.7      2.264      4.144
REMARK  Name = 
REMARK  8 active torsions:
REMARK  status: ('A' for Active; 'I' for Inactive)
REMARK    1  A    between atoms: C_1  and  C_2
REMARK    2  A    between atoms: C_2  and  C_3
REMARK    3  A    between atoms: C_3  and  C_4
REMARK    4  A    between atoms: C_4  and  C_5
REMARK    5  A    between atoms: C_5  and  N_6
REMARK    6  A    between atoms: C_8  and  C_9
REMARK    7  A    between atoms: C_9  and  C_11
REMARK    8  A    between atoms: C_14  and  C_15
REMARK                            x       y       z     vdW  Elec       q    Type
REMARK                         _______ _______ _______ _____ _____    ______ ____
ROOT
ATOM      1  C   UNL     1       1.701   7.468  20.095  0.00  0.00    +0.000 C 
ATOM      2  O   UNL     1       1.406   6.826  21.081  0.00  0.00    +0.000 OA
ENDROOT
BRANCH   1   3
ATOM      3  C   UNL     1       1.183   8.949  19.932  0.00  0.00    +0.000 A 
ATOM      4  C   UNL     1       1.266   9.306  18.607  0.00  0.00    +0.000 A 
ATOM      5  C   UNL     1       1.036  10.602  18.290  0.00  0.00    +0.000 A 
ATOM      6  C   UNL     1      -0.274  10.788  18.584  0.00  0.00    +0.000 A 
ATOM      7  C   UNL     1      -0.551  10.675  19.941  0.00  0.00    +0.000 A 
ATOM      8  C   UNL     1      -1.597  11.480  20.409  0.00  0.00    +0.000 A 
ATOM      9  C   UNL     1      -1.572  11.908  21.719  0.00  0.00    +0.000 A 
ATOM     10  C   UNL     1      -0.586  11.410  22.559  0.00  0.00    +0.000 A 
ATOM     11  C   UNL     1       0.302  10.366  22.134  0.00  0.00    +0.000 A 
ATOM     12  C   UNL     1       0.365   9.921  20.752  0.00  0.00    +0.000 A 
BRANCH   6  13
ATOM     13  C   UNL     1      -1.266  10.576  17.498  0.00  0.00    +0.000 C 
ATOM     14  N   UNL     1      -1.671  11.708  16.856  0.00  0.00    +0.000 N 
ATOM     15  O   UNL     1      -1.649   9.470  17.149  0.00  0.00    +0.000 OA
ATOM     16  H   UNL     1      -1.215  12.609  17.011  0.00  0.00    +0.000 HD
ATOM     17  H   UNL     1      -2.191  11.597  16.006  0.00  0.00    +0.000 HD
ENDBRANCH   6  13
ENDBRANCH   1   3
BRANCH   1  20
ATOM     18  N   UNL     1       4.163   6.463  17.377  0.00  0.00    +0.000 N 
ATOM     19  C   UNL     1       3.510   7.417  18.154  0.00  0.00    +0.000 A 
ATOM     20  C   UNL     1       2.435   6.832  18.841  0.00  0.00    +0.000 A 
ATOM     21  C   UNL     1       2.384   5.457  18.275  0.00  0.00    +0.000 A 
ATOM     22  C   UNL     1       1.548   4.320  18.481  0.00  0.00    +0.000 A 
ATOM     23  C   UNL     1       1.913   3.052  17.972  0.00  0.00    +0.000 A 
ATOM     24  C   UNL     1       3.060   2.893  17.230  0.00  0.00    +0.000 A 
ATOM     25  C   UNL     1       3.877   3.978  16.947  0.00  0.00    +0.000 A 
ATOM     26  C   UNL     1       3.528   5.243  17.498  0.00  0.00    +0.000 A 
BRANCH  18  27
ATOM     27  C   UNL     1       5.442   6.623  16.672  0.00  0.00    +0.000 C 
BRANCH  27  28
ATOM     28  C   UNL     1       6.664   6.724  17.601  0.00  0.00    +0.000 C 
BRANCH  28  29
ATOM     29  C   UNL     1       7.588   7.907  17.256  0.00  0.00    +0.000 C 
BRANCH  29  31
ATOM     30  C   UNL     1       8.737   9.805  18.508  0.00  0.00    +0.000 C 
ATOM     31  C   UNL     1       8.469   8.306  18.451  0.00  0.00    +0.000 C 
ENDBRANCH  29  31
ENDBRANCH  28  29
ENDBRANCH  27  28
ENDBRANCH  18  27
ENDBRANCH   1  20
TORSDOF 7
ENDMDL
MODEL 9
REMARK VINA RESULT:      -7.7      2.111      4.088
REMARK  Name = 
REMARK  8 active torsions:
REMARK  status: ('A' for Active; 'I' for Inactive)
REMARK    1  A    between atoms: C_1  and  C_2
REMARK    2  A    between atoms: C_2  and  C_3
REMARK    3  A    between atoms: C_3  and  C_4
REMARK    4  A    between atoms: C_4  and  C_5
REMARK    5  A    between atoms: C_5  and  N_6
REMARK    6  A    between atoms: C_8  and  C_9
REMARK    7  A    between atoms: C_9  and  C_11
REMARK    8  A    between atoms: C_14  and  C_15
REMARK                            x       y       z     vdW  Elec       q    Type
REMARK                         _______ _______ _______ _____ _____    ______ ____
ROOT
ATOM      1  C   UNL     1       2.166   9.347  17.989  0.00  0.00    +0.000 C 
ATOM      2  O   UNL     1       2.797  10.290  17.558  0.00  0.00    +0.000 OA
ENDROOT
BRANCH   1   3
ATOM      3  C   UNL     1       0.809   9.589  18.755  0.00  0.00    +0.000 A 
ATOM      4  C   UNL     1       1.058   9.603  20.107  0.00  0.00    +0.000 A 
ATOM      5  C   UNL     1      -0.008   9.618  20.941  0.00  0.00    +0.000 A 
ATOM      6  C   UNL     1      -0.588  10.822  20.717  0.00  0.00    +0.000 A 
ATOM      7  C   UNL     1      -1.109  10.948  19.435  0.00  0.00    +0.000 A 
ATOM      8  C   UNL     1      -2.247  11.756  19.326  0.00  0.00    +0.000 A 
ATOM      9  C   UNL     1      -3.159  11.490  18.327  0.00  0.00    +0.000 A 
ATOM     10  C   UNL     1      -2.843  10.522  17.384  0.00  0.00    +0.000 A 
ATOM     11  C   UNL     1      -1.547   9.907  17.347  0.00  0.00    +0.000 A 
ATOM     12  C   UNL     1      -0.571  10.100  18.406  0.00  0.00    +0.000 A 
BRANCH   6  13
ATOM     13  C   UNL     1      -0.176  11.962  21.577  0.00  0.00    +0.000 C 
ATOM     14  N   UNL     1      -0.914  12.125  22.713  0.00  0.00    +0.000 N 
ATOM     15  O   UNL     1       0.790  12.668  21.334  0.00  0.00    +0.000 OA
ATOM     16  H   UNL     1      -1.595  11.428  23.018  0.00  0.00    +0.000 HD
ATOM     17  H   UNL     1      -0.561  12.757  23.407  0.00  0.00    +0.000 HD
ENDBRANCH   6  13
ENDBRANCH   1   3
BRANCH   1  20
ATOM     18  N   UNL     1       4.300   6.208  17.756  0.00  0.00    +0.000 N 
ATOM     19  C   UNL     1       3.832   7.419  17.249  0.00  0.00    +0.000 A 
ATOM     20  C   UNL     1       2.729   7.864  17.995  0.00  0.00    +0.000 A 
ATOM     21  C   UNL     1       2.456   6.721  18.906  0.00  0.00    +0.000 A 
ATOM     22  C   UNL     1       1.485   6.456  19.917  0.00  0.00    +0.000 A 
ATOM     23  C   UNL     1       1.641   5.363  20.801  0.00  0.00    +0.000 A 
ATOM     24  C   UNL     1       2.709   4.504  20.681  0.00  0.00    +0.000 A 
ATOM     25  C   UNL     1       3.649   4.680  19.675  0.00  0.00    +0.000 A 
ATOM     26  C   UNL     1       3.511   5.806  18.816  0.00  0.00    +0.000 A 
BRANCH  18  27
ATOM     27  C   UNL     1       5.544   5.518  17.389  0.00  0.00    +0.000 C 
BRANCH  27  28
ATOM     28  C   UNL     1       6.013   5.790  15.950  0.00  0.00    +0.000 C 
BRANCH  28  29
ATOM     29  C   UNL     1       5.464   4.771  14.934  0.00  0.00    +0.000 C 
BRANCH  29  31
ATOM     30  C   UNL     1       5.972   3.512  12.778  0.00  0.00    +0.000 C 
ATOM     31  C   UNL     1       6.540   4.340  13.924  0.00  0.00    +0.000 C 
ENDBRANCH  29  31
ENDBRANCH  28  29
ENDBRANCH  27  28
ENDBRANCH  18  27
ENDBRANCH   1  20
TORSDOF 7
ENDMDL
