MODEL 1
REMARK VINA RESULT:      -7.1      0.000      0.000
REMARK  Name = 
REMARK  9 active torsions:
REMARK  status: ('A' for Active; 'I' for Inactive)
REMARK    1  A    between atoms: C_1  and  O_2
REMARK    2  A    between atoms: O_2  and  C_3
REMARK    3  A    between atoms: C_5  and  O_6
REMARK    4  A    between atoms: O_6  and  C_7
REMARK    5  A    between atoms: C_9  and  C_10
REMARK    6  A    between atoms: C_10  and  C_16
REMARK    7  A    between atoms: N_11  and  N_12
REMARK    8  A    between atoms: N_12  and  C_13
REMARK    9  A    between atoms: C_13  and  N_14
REMARK                            x       y       z     vdW  Elec       q    Type
REMARK                         _______ _______ _______ _____ _____    ______ ____
ROOT
ATOM      1  C   UNL     1       3.029   5.797  18.079  0.00  0.00    +0.000 C 
ATOM      2  N   UNL     1       2.524   4.594  18.052  0.00  0.00    +0.000 NA
ENDROOT
BRANCH   1   3
ATOM      3  C   UNL     1       4.359   5.947  17.365  0.00  0.00    +0.000 A 
ATOM      4  C   UNL     1       4.638   5.083  16.294  0.00  0.00    +0.000 A 
ATOM      5  C   UNL     1       5.886   5.114  15.674  0.00  0.00    +0.000 A 
ATOM      6 BR   UNL     1       6.243   3.944  14.233  0.00  0.00    +0.000 Br
ATOM      7  C   UNL     1       6.879   5.984  16.116  0.00  0.00    +0.000 A 
ATOM      8  C   UNL     1       6.594   6.862  17.158  0.00  0.00    +0.000 A 
ATOM      9 BR   UNL     1       7.945   8.017  17.802  0.00  0.00    +0.000 Br
ATOM     10  C   UNL     1       5.333   6.875  17.759  0.00  0.00    +0.000 A 
ENDBRANCH   1   3
BRANCH   1  15
ATOM     11  C   UNL     1       1.567   8.166  20.695  0.00  0.00    +0.000 A 
ATOM     12  C   UNL     1       1.033   9.164  19.877  0.00  0.00    +0.000 A 
ATOM     13  C   UNL     1       1.217   9.104  18.499  0.00  0.00    +0.000 A 
ATOM     14  C   UNL     1       2.003   8.091  17.951  0.00  0.00    +0.000 A 
ATOM     15  C   UNL     1       2.433   7.015  18.743  0.00  0.00    +0.000 A 
ATOM     16  C   UNL     1       2.200   7.057  20.124  0.00  0.00    +0.000 A 
BRANCH  11  18
ATOM     17  C   UNL     1       0.463   9.380  22.374  0.00  0.00    +0.000 C 
ATOM     18  O   UNL     1       1.350   8.311  22.040  0.00  0.00    +0.000 OA
ENDBRANCH  11  18
BRANCH  13  19
ATOM     19  O   UNL     1       0.596  10.073  17.756  0.00  0.00    +0.000 OA
ATOM     20  C   UNL     1      -0.386  10.827  18.471  0.00  0.00    +0.000 C 
ENDBRANCH  13  19
ENDBRANCH   1  15
BRANCH   2  21
ATOM     21  N   UNL     1       1.420   4.273  18.770  0.00  0.00    +0.000 N 
ATOM     22  H   UNL     1       0.678   4.945  18.910  0.00  0.00    +0.000 HD
BRANCH  21  23
ATOM     23  C   UNL     1       1.325   3.082  19.443  0.00  0.00    +0.000 C 
ATOM     24  S   UNL     1       1.412   2.994  21.095  0.00  0.00    +0.000 S 
BRANCH  23  25
ATOM     25  N   UNL     1       1.142   1.982  18.675  0.00  0.00    +0.000 N 
ATOM     26  H   UNL     1       1.953   1.406  18.487  0.00  0.00    +0.000 HD
ATOM     27  H   UNL     1       0.215   1.656  18.437  0.00  0.00    +0.000 HD
ENDBRANCH  23  25
ENDBRANCH  21  23
ENDBRANCH   2  21
TORSDOF 7
ENDMDL
MODEL 2
REMARK VINA RESULT:      -7.1      0.650      2.016
REMARK  Name = 
REMARK  9 active torsions:
REMARK  status: ('A' for Active; 'I' for Inactive)
REMARK    1  A    between atoms: C_1  and  O_2
REMARK    2  A    between atoms: O_2  and  C_3
REMARK    3  A    between atoms: C_5  and  O_6
REMARK    4  A    between atoms: O_6  and  C_7
REMARK    5  A    between atoms: C_9  and  C_10
REMARK    6  A    between atoms: C_10  and  C_16
REMARK    7  A    between atoms: N_11  and  N_12
REMARK    8  A    between atoms: N_12  and  C_13
REMARK    9  A    between atoms: C_13  and  N_14
REMARK                            x       y       z     vdW  Elec       q    Type
REMARK                         _______ _______ _______ _____ _____    ______ ____
ROOT
ATOM      1  C   UNL     1       3.131   5.453  17.993  0.00  0.00    +0.000 C 
ATOM      2  N   UNL     1       2.533   4.293  17.982  0.00  0.00    +0.000 NA
ENDROOT
BRANCH   1   3
ATOM      3  C   UNL     1       4.476   5.485  17.292  0.00  0.00    +0.000 A 
ATOM      4  C   UNL     1       5.451   6.374  17.771  0.00  0.00    +0.000 A 
ATOM      5  C   UNL     1       6.664   6.514  17.098  0.00  0.00    +0.000 A 
ATOM      6 BR   UNL     1       7.965   7.716  17.758  0.00  0.00    +0.000 Br
ATOM      7  C   UNL     1       6.920   5.792  15.935  0.00  0.00    +0.000 A 
ATOM      8  C   UNL     1       5.966   4.888  15.477  0.00  0.00    +0.000 A 
ATOM      9 BR   UNL     1       6.279   3.934  13.874  0.00  0.00    +0.000 Br
ATOM     10  C   UNL     1       4.766   4.703  16.166  0.00  0.00    +0.000 A 
ENDBRANCH   1   3
BRANCH   1  15
ATOM     11  C   UNL     1       1.594   7.923  20.469  0.00  0.00    +0.000 A 
ATOM     12  C   UNL     1       1.407   9.037  19.648  0.00  0.00    +0.000 A 
ATOM     13  C   UNL     1       1.851   9.009  18.329  0.00  0.00    +0.000 A 
ATOM     14  C   UNL     1       2.549   7.897  17.859  0.00  0.00    +0.000 A 
ATOM     15  C   UNL     1       2.626   6.726  18.628  0.00  0.00    +0.000 A 
ATOM     16  C   UNL     1       2.133   6.746  19.940  0.00  0.00    +0.000 A 
BRANCH  11  18
ATOM     17  C   UNL     1       0.330   9.198  21.982  0.00  0.00    +0.000 C 
ATOM     18  O   UNL     1       1.139   8.043  21.755  0.00  0.00    +0.000 OA
ENDBRANCH  11  18
BRANCH  13  19
ATOM     19  O   UNL     1       1.562  10.107  17.562  0.00  0.00    +0.000 OA
ATOM     20  C   UNL     1       1.942  11.354  18.150  0.00  0.00    +0.000 C 
ENDBRANCH  13  19
ENDBRANCH   1  15
BRANCH   2  21
ATOM     21  N   UNL     1       1.400   4.074  18.693  0.00  0.00    +0.000 N 
ATOM     22  H   UNL     1       0.689   4.789  18.772  0.00  0.00    +0.000 HD
BRANCH  21  23
ATOM     23  C   UNL     1       1.232   2.936  19.438  0.00  0.00    +0.000 C 
ATOM     24  S   UNL     1       1.328   2.943  21.093  0.00  0.00    +0.000 S 
BRANCH  23  25
ATOM     25  N   UNL     1       0.968   1.805  18.741  0.00  0.00    +0.000 N 
ATOM     26  H   UNL     1       1.561   1.601  17.946  0.00  0.00    +0.000 HD
ATOM     27  H   UNL     1       0.321   1.112  19.089  0.00  0.00    +0.000 HD
ENDBRANCH  23  25
ENDBRANCH  21  23
ENDBRANCH   2  21
TORSDOF 7
ENDMDL
MODEL 3
REMARK VINA RESULT:      -7.1      0.722      2.881
REMARK  Name = 
REMARK  9 active torsions:
REMARK  status: ('A' for Active; 'I' for Inactive)
REMARK    1  A    between atoms: C_1  and  O_2
REMARK    2  A    between atoms: O_2  and  C_3
REMARK    3  A    between atoms: C_5  and  O_6
REMARK    4  A    between atoms: O_6  and  C_7
REMARK    5  A    between atoms: C_9  and  C_10
REMARK    6  A    between atoms: C_10  and  C_16
REMARK    7  A    between atoms: N_11  and  N_12
REMARK    8  A    between atoms: N_12  and  C_13
REMARK    9  A    between atoms: C_13  and  N_14
REMARK                            x       y       z     vdW  Elec       q    Type
REMARK                         _______ _______ _______ _____ _____    ______ ____
ROOT
ATOM      1  C   UNL     1       3.115   5.279  17.928  0.00  0.00    +0.000 C 
ATOM      2  N   UNL     1       2.622   4.073  18.001  0.00  0.00    +0.000 NA
ENDROOT
BRANCH   1   3
ATOM      3  C   UNL     1       4.467   5.375  17.244  0.00  0.00    +0.000 A 
ATOM      4  C   UNL     1       5.404   6.286  17.755  0.00  0.00    +0.000 A 
ATOM      5  C   UNL     1       6.619   6.486  17.101  0.00  0.00    +0.000 A 
ATOM      6 BR   UNL     1       7.869   7.716  17.805  0.00  0.00    +0.000 Br
ATOM      7  C   UNL     1       6.914   5.802  15.924  0.00  0.00    +0.000 A 
ATOM      8  C   UNL     1       5.997   4.876  15.433  0.00  0.00    +0.000 A 
ATOM      9 BR   UNL     1       6.362   3.973  13.812  0.00  0.00    +0.000 Br
ATOM     10  C   UNL     1       4.797   4.631  16.103  0.00  0.00    +0.000 A 
ENDBRANCH   1   3
BRANCH   1  15
ATOM     11  C   UNL     1       1.893   8.887  18.209  0.00  0.00    +0.000 A 
ATOM     12  C   UNL     1       1.614   8.965  19.576  0.00  0.00    +0.000 A 
ATOM     13  C   UNL     1       1.746   7.834  20.376  0.00  0.00    +0.000 A 
ATOM     14  C   UNL     1       2.079   6.611  19.794  0.00  0.00    +0.000 A 
ATOM     15  C   UNL     1       2.489   6.548  18.453  0.00  0.00    +0.000 A 
ATOM     16  C   UNL     1       2.401   7.703  17.665  0.00  0.00    +0.000 A 
BRANCH  11  18
ATOM     17  C   UNL     1       1.892  11.234  18.266  0.00  0.00    +0.000 C 
ATOM     18  O   UNL     1       1.723  10.044  17.496  0.00  0.00    +0.000 OA
ENDBRANCH  11  18
BRANCH  13  19
ATOM     19  O   UNL     1       1.532   8.005  21.718  0.00  0.00    +0.000 OA
ATOM     20  C   UNL     1       0.904   9.243  22.062  0.00  0.00    +0.000 C 
ENDBRANCH  13  19
ENDBRANCH   1  15
BRANCH   2  21
ATOM     21  N   UNL     1       1.499   3.811  18.713  0.00  0.00    +0.000 N 
ATOM     22  H   UNL     1       0.728   4.465  18.728  0.00  0.00    +0.000 HD
BRANCH  21  23
ATOM     23  C   UNL     1       1.414   2.721  19.541  0.00  0.00    +0.000 C 
ATOM     24  S   UNL     1       1.402   2.868  21.192  0.00  0.00    +0.000 S 
BRANCH  23  25
ATOM     25  N   UNL     1       1.328   1.517  18.928  0.00  0.00    +0.000 N 
ATOM     26  H   UNL     1       1.793   0.735  19.372  0.00  0.00    +0.000 HD
ATOM     27  H   UNL     1       0.694   1.365  18.155  0.00  0.00    +0.000 HD
ENDBRANCH  23  25
ENDBRANCH  21  23
ENDBRANCH   2  21
TORSDOF 7
ENDMDL
MODEL 4
REMARK VINA RESULT:      -7.0      3.586      5.558
REMARK  Name = 
REMARK  9 active torsions:
REMARK  status: ('A' for Active; 'I' for Inactive)
REMARK    1  A    between atoms: C_1  and  O_2
REMARK    2  A    between atoms: O_2  and  C_3
REMARK    3  A    between atoms: C_5  and  O_6
REMARK    4  A    between atoms: O_6  and  C_7
REMARK    5  A    between atoms: C_9  and  C_10
REMARK    6  A    between atoms: C_10  and  C_16
REMARK    7  A    between atoms: N_11  and  N_12
REMARK    8  A    between atoms: N_12  and  C_13
REMARK    9  A    between atoms: C_13  and  N_14
REMARK                            x       y       z     vdW  Elec       q    Type
REMARK                         _______ _______ _______ _____ _____    ______ ____
ROOT
ATOM      1  C   UNL     1       6.089   4.381  16.425  0.00  0.00    +0.000 C 
ATOM      2  N   UNL     1       7.163   4.312  17.163  0.00  0.00    +0.000 NA
ENDROOT
BRANCH   1   3
ATOM      3  C   UNL     1       6.338   4.323  14.929  0.00  0.00    +0.000 A 
ATOM      4  C   UNL     1       7.402   5.074  14.406  0.00  0.00    +0.000 A 
ATOM      5  C   UNL     1       7.608   5.136  13.028  0.00  0.00    +0.000 A 
ATOM      6 BR   UNL     1       9.047   6.150  12.342  0.00  0.00    +0.000 Br
ATOM      7  C   UNL     1       6.753   4.472  12.151  0.00  0.00    +0.000 A 
ATOM      8  C   UNL     1       5.715   3.703  12.671  0.00  0.00    +0.000 A 
ATOM      9 BR   UNL     1       4.518   2.834  11.493  0.00  0.00    +0.000 Br
ATOM     10  C   UNL     1       5.525   3.594  14.050  0.00  0.00    +0.000 A 
ENDBRANCH   1   3
BRANCH   1  15
ATOM     11  C   UNL     1       2.859   5.819  17.871  0.00  0.00    +0.000 A 
ATOM     12  C   UNL     1       2.126   4.651  18.091  0.00  0.00    +0.000 A 
ATOM     13  C   UNL     1       2.646   3.421  17.699  0.00  0.00    +0.000 A 
ATOM     14  C   UNL     1       3.861   3.372  17.016  0.00  0.00    +0.000 A 
ATOM     15  C   UNL     1       4.665   4.517  16.907  0.00  0.00    +0.000 A 
ATOM     16  C   UNL     1       4.155   5.745  17.350  0.00  0.00    +0.000 A 
BRANCH  11  18
ATOM     17  C   UNL     1       2.300   7.198  19.687  0.00  0.00    +0.000 C 
ATOM     18  O   UNL     1       2.265   6.985  18.275  0.00  0.00    +0.000 OA
ENDBRANCH  11  18
BRANCH  13  19
ATOM     19  O   UNL     1       1.907   2.314  18.019  0.00  0.00    +0.000 OA
ATOM     20  C   UNL     1       0.894   2.544  19.003  0.00  0.00    +0.000 C 
ENDBRANCH  13  19
ENDBRANCH   1  15
BRANCH   2  21
ATOM     21  N   UNL     1       7.112   4.500  18.504  0.00  0.00    +0.000 N 
ATOM     22  H   UNL     1       6.546   3.904  19.092  0.00  0.00    +0.000 HD
BRANCH  21  23
ATOM     23  C   UNL     1       7.714   5.579  19.099  0.00  0.00    +0.000 C 
ATOM     24  S   UNL     1       7.838   7.048  18.341  0.00  0.00    +0.000 S 
BRANCH  23  25
ATOM     25  N   UNL     1       8.190   5.376  20.350  0.00  0.00    +0.000 N 
ATOM     26  H   UNL     1       8.840   6.060  20.717  0.00  0.00    +0.000 HD
ATOM     27  H   UNL     1       7.794   4.671  20.955  0.00  0.00    +0.000 HD
ENDBRANCH  23  25
ENDBRANCH  21  23
ENDBRANCH   2  21
TORSDOF 7
ENDMDL
MODEL 5
REMARK VINA RESULT:      -6.9      0.322      2.093
REMARK  Name = 
REMARK  9 active torsions:
REMARK  status: ('A' for Active; 'I' for Inactive)
REMARK    1  A    between atoms: C_1  and  O_2
REMARK    2  A    between atoms: O_2  and  C_3
REMARK    3  A    between atoms: C_5  and  O_6
REMARK    4  A    between atoms: O_6  and  C_7
REMARK    5  A    between atoms: C_9  and  C_10
REMARK    6  A    between atoms: C_10  and  C_16
REMARK    7  A    between atoms: N_11  and  N_12
REMARK    8  A    between atoms: N_12  and  C_13
REMARK    9  A    between atoms: C_13  and  N_14
REMARK                            x       y       z     vdW  Elec       q    Type
REMARK                         _______ _______ _______ _____ _____    ______ ____
ROOT
ATOM      1  C   UNL     1       2.990   5.633  18.010  0.00  0.00    +0.000 C 
ATOM      2  N   UNL     1       2.545   4.407  18.025  0.00  0.00    +0.000 NA
ENDROOT
BRANCH   1   3
ATOM      3  C   UNL     1       4.325   5.820  17.314  0.00  0.00    +0.000 A 
ATOM      4  C   UNL     1       4.630   4.981  16.231  0.00  0.00    +0.000 A 
ATOM      5  C   UNL     1       5.885   5.044  15.625  0.00  0.00    +0.000 A 
ATOM      6 BR   UNL     1       6.277   3.907  14.168  0.00  0.00    +0.000 Br
ATOM      7  C   UNL     1       6.857   5.923  16.095  0.00  0.00    +0.000 A 
ATOM      8  C   UNL     1       6.546   6.777  17.149  0.00  0.00    +0.000 A 
ATOM      9 BR   UNL     1       7.869   7.944  17.828  0.00  0.00    +0.000 Br
ATOM     10  C   UNL     1       5.278   6.758  17.736  0.00  0.00    +0.000 A 
ENDBRANCH   1   3
BRANCH   1  15
ATOM     11  C   UNL     1       1.530   9.135  18.462  0.00  0.00    +0.000 A 
ATOM     12  C   UNL     1       1.378   9.180  19.849  0.00  0.00    +0.000 A 
ATOM     13  C   UNL     1       1.671   8.056  20.616  0.00  0.00    +0.000 A 
ATOM     14  C   UNL     1       2.039   6.868  19.987  0.00  0.00    +0.000 A 
ATOM     15  C   UNL     1       2.322   6.847  18.612  0.00  0.00    +0.000 A 
ATOM     16  C   UNL     1       2.071   7.998  17.853  0.00  0.00    +0.000 A 
BRANCH  11  18
ATOM     17  C   UNL     1       0.596  11.284  18.597  0.00  0.00    +0.000 C 
ATOM     18  O   UNL     1       1.206  10.281  17.785  0.00  0.00    +0.000 OA
ENDBRANCH  11  18
BRANCH  13  19
ATOM     19  O   UNL     1       1.576   8.200  21.975  0.00  0.00    +0.000 OA
ATOM     20  C   UNL     1       0.689   9.240  22.397  0.00  0.00    +0.000 C 
ENDBRANCH  13  19
ENDBRANCH   1  15
BRANCH   2  21
ATOM     21  N   UNL     1       1.444   4.062  18.737  0.00  0.00    +0.000 N 
ATOM     22  H   UNL     1       0.670   4.704  18.840  0.00  0.00    +0.000 HD
BRANCH  21  23
ATOM     23  C   UNL     1       1.391   2.892  19.450  0.00  0.00    +0.000 C 
ATOM     24  S   UNL     1       1.434   2.868  21.107  0.00  0.00    +0.000 S 
BRANCH  23  25
ATOM     25  N   UNL     1       1.286   1.757  18.719  0.00  0.00    +0.000 N 
ATOM     26  H   UNL     1       0.562   1.100  18.982  0.00  0.00    +0.000 HD
ATOM     27  H   UNL     1       1.792   1.642  17.852  0.00  0.00    +0.000 HD
ENDBRANCH  23  25
ENDBRANCH  21  23
ENDBRANCH   2  21
TORSDOF 7
ENDMDL
MODEL 6
REMARK VINA RESULT:      -6.7      3.610      5.486
REMARK  Name = 
REMARK  9 active torsions:
REMARK  status: ('A' for Active; 'I' for Inactive)
REMARK    1  A    between atoms: C_1  and  O_2
REMARK    2  A    between atoms: O_2  and  C_3
REMARK    3  A    between atoms: C_5  and  O_6
REMARK    4  A    between atoms: O_6  and  C_7
REMARK    5  A    between atoms: C_9  and  C_10
REMARK    6  A    between atoms: C_10  and  C_16
REMARK    7  A    between atoms: N_11  and  N_12
REMARK    8  A    between atoms: N_12  and  C_13
REMARK    9  A    between atoms: C_13  and  N_14
REMARK                            x       y       z     vdW  Elec       q    Type
REMARK                         _______ _______ _______ _____ _____    ______ ____
ROOT
ATOM      1  C   UNL     1       6.246   4.351  16.483  0.00  0.00    +0.000 C 
ATOM      2  N   UNL     1       7.359   4.259  17.157  0.00  0.00    +0.000 NA
ENDROOT
BRANCH   1   3
ATOM      3  C   UNL     1       6.408   4.332  14.974  0.00  0.00    +0.000 A 
ATOM      4  C   UNL     1       7.451   5.086  14.411  0.00  0.00    +0.000 A 
ATOM      5  C   UNL     1       7.578   5.183  13.026  0.00  0.00    +0.000 A 
ATOM      6 BR   UNL     1       8.988   6.200  12.286  0.00  0.00    +0.000 Br
ATOM      7  C   UNL     1       6.667   4.553  12.182  0.00  0.00    +0.000 A 
ATOM      8  C   UNL     1       5.650   3.781  12.739  0.00  0.00    +0.000 A 
ATOM      9 BR   UNL     1       4.378   2.958  11.609  0.00  0.00    +0.000 Br
ATOM     10  C   UNL     1       5.538   3.637  14.124  0.00  0.00    +0.000 A 
ENDBRANCH   1   3
BRANCH   1  15
ATOM     11  C   UNL     1       2.654   3.572  17.523  0.00  0.00    +0.000 A 
ATOM     12  C   UNL     1       2.179   4.853  17.812  0.00  0.00    +0.000 A 
ATOM     13  C   UNL     1       3.041   5.944  17.745  0.00  0.00    +0.000 A 
ATOM     14  C   UNL     1       4.392   5.739  17.468  0.00  0.00    +0.000 A 
ATOM     15  C   UNL     1       4.852   4.481  17.049  0.00  0.00    +0.000 A 
ATOM     16  C   UNL     1       3.966   3.396  17.071  0.00  0.00    +0.000 A 
BRANCH  11  18
ATOM     17  C   UNL     1       1.367   2.244  18.970  0.00  0.00    +0.000 C 
ATOM     18  O   UNL     1       1.741   2.556  17.628  0.00  0.00    +0.000 OA
ENDBRANCH  11  18
BRANCH  13  19
ATOM     19  O   UNL     1       2.486   7.177  17.962  0.00  0.00    +0.000 OA
ATOM     20  C   UNL     1       2.222   7.472  19.336  0.00  0.00    +0.000 C 
ENDBRANCH  13  19
ENDBRANCH   1  15
BRANCH   2  21
ATOM     21  N   UNL     1       7.386   4.412  18.503  0.00  0.00    +0.000 N 
ATOM     22  H   UNL     1       6.992   3.710  19.114  0.00  0.00    +0.000 HD
BRANCH  21  23
ATOM     23  C   UNL     1       7.824   5.576  19.082  0.00  0.00    +0.000 C 
ATOM     24  S   UNL     1       7.845   7.015  18.261  0.00  0.00    +0.000 S 
BRANCH  23  25
ATOM     25  N   UNL     1       8.226   5.479  20.372  0.00  0.00    +0.000 N 
ATOM     26  H   UNL     1       7.571   5.772  21.086  0.00  0.00    +0.000 HD
ATOM     27  H   UNL     1       9.072   4.986  20.623  0.00  0.00    +0.000 HD
ENDBRANCH  23  25
ENDBRANCH  21  23
ENDBRANCH   2  21
TORSDOF 7
ENDMDL
MODEL 7
REMARK VINA RESULT:      -6.7      3.684      5.491
REMARK  Name = 
REMARK  9 active torsions:
REMARK  status: ('A' for Active; 'I' for Inactive)
REMARK    1  A    between atoms: C_1  and  O_2
REMARK    2  A    between atoms: O_2  and  C_3
REMARK    3  A    between atoms: C_5  and  O_6
REMARK    4  A    between atoms: O_6  and  C_7
REMARK    5  A    between atoms: C_9  and  C_10
REMARK    6  A    between atoms: C_10  and  C_16
REMARK    7  A    between atoms: N_11  and  N_12
REMARK    8  A    between atoms: N_12  and  C_13
REMARK    9  A    between atoms: C_13  and  N_14
REMARK                            x       y       z     vdW  Elec       q    Type
REMARK                         _______ _______ _______ _____ _____    ______ ____
ROOT
ATOM      1  C   UNL     1       6.333   4.448  16.192  0.00  0.00    +0.000 C 
ATOM      2  N   UNL     1       7.420   4.331  16.905  0.00  0.00    +0.000 NA
ENDROOT
BRANCH   1   3
ATOM      3  C   UNL     1       6.555   4.478  14.691  0.00  0.00    +0.000 A 
ATOM      4  C   UNL     1       5.974   3.461  13.916  0.00  0.00    +0.000 A 
ATOM      5  C   UNL     1       6.232   3.386  12.548  0.00  0.00    +0.000 A 
ATOM      6 BR   UNL     1       5.441   2.011  11.521  0.00  0.00    +0.000 Br
ATOM      7  C   UNL     1       7.083   4.302  11.934  0.00  0.00    +0.000 A 
ATOM      8  C   UNL     1       7.635   5.328  12.696  0.00  0.00    +0.000 A 
ATOM      9 BR   UNL     1       8.828   6.552  11.887  0.00  0.00    +0.000 Br
ATOM     10  C   UNL     1       7.348   5.444  14.057  0.00  0.00    +0.000 A 
ENDBRANCH   1   3
BRANCH   1  15
ATOM     11  C   UNL     1       3.116   5.841  17.709  0.00  0.00    +0.000 A 
ATOM     12  C   UNL     1       2.407   4.662  17.951  0.00  0.00    +0.000 A 
ATOM     13  C   UNL     1       2.937   3.439  17.551  0.00  0.00    +0.000 A 
ATOM     14  C   UNL     1       4.137   3.406  16.841  0.00  0.00    +0.000 A 
ATOM     15  C   UNL     1       4.919   4.564  16.708  0.00  0.00    +0.000 A 
ATOM     16  C   UNL     1       4.400   5.785  17.158  0.00  0.00    +0.000 A 
BRANCH  11  18
ATOM     17  C   UNL     1       2.318   7.082  19.535  0.00  0.00    +0.000 C 
ATOM     18  O   UNL     1       2.513   6.999  18.123  0.00  0.00    +0.000 OA
ENDBRANCH  11  18
BRANCH  13  19
ATOM     19  O   UNL     1       2.224   2.321  17.894  0.00  0.00    +0.000 OA
ATOM     20  C   UNL     1       2.014   2.163  19.300  0.00  0.00    +0.000 C 
ENDBRANCH  13  19
ENDBRANCH   1  15
BRANCH   2  21
ATOM     21  N   UNL     1       7.395   4.440  18.255  0.00  0.00    +0.000 N 
ATOM     22  H   UNL     1       6.983   3.716  18.829  0.00  0.00    +0.000 HD
BRANCH  21  23
ATOM     23  C   UNL     1       7.801   5.587  18.889  0.00  0.00    +0.000 C 
ATOM     24  S   UNL     1       7.773   7.064  18.139  0.00  0.00    +0.000 S 
BRANCH  23  25
ATOM     25  N   UNL     1       8.213   5.441  20.170  0.00  0.00    +0.000 N 
ATOM     26  H   UNL     1       7.933   4.598  20.655  0.00  0.00    +0.000 HD
ATOM     27  H   UNL     1       8.905   6.058  20.573  0.00  0.00    +0.000 HD
ENDBRANCH  23  25
ENDBRANCH  21  23
ENDBRANCH   2  21
TORSDOF 7
ENDMDL
MODEL 8
REMARK VINA RESULT:      -6.5      3.887      5.364
REMARK  Name = 
REMARK  9 active torsions:
REMARK  status: ('A' for Active; 'I' for Inactive)
REMARK    1  A    between atoms: C_1  and  O_2
REMARK    2  A    between atoms: O_2  and  C_3
REMARK    3  A    between atoms: C_5  and  O_6
REMARK    4  A    between atoms: O_6  and  C_7
REMARK    5  A    between atoms: C_9  and  C_10
REMARK    6  A    between atoms: C_10  and  C_16
REMARK    7  A    between atoms: N_11  and  N_12
REMARK    8  A    between atoms: N_12  and  C_13
REMARK    9  A    between atoms: C_13  and  N_14
REMARK                            x       y       z     vdW  Elec       q    Type
REMARK                         _______ _______ _______ _____ _____    ______ ____
ROOT
ATOM      1  C   UNL     1       6.370   4.417  16.412  0.00  0.00    +0.000 C 
ATOM      2  N   UNL     1       7.495   4.357  17.070  0.00  0.00    +0.000 NA
ENDROOT
BRANCH   1   3
ATOM      3  C   UNL     1       6.517   4.513  14.904  0.00  0.00    +0.000 A 
ATOM      4  C   UNL     1       5.722   3.674  14.107  0.00  0.00    +0.000 A 
ATOM      5  C   UNL     1       5.893   3.652  12.724  0.00  0.00    +0.000 A 
ATOM      6 BR   UNL     1       4.813   2.517  11.667  0.00  0.00    +0.000 Br
ATOM      7  C   UNL     1       6.864   4.443  12.114  0.00  0.00    +0.000 A 
ATOM      8  C   UNL     1       7.632   5.297  12.901  0.00  0.00    +0.000 A 
ATOM      9 BR   UNL     1       8.985   6.344  12.095  0.00  0.00    +0.000 Br
ATOM     10  C   UNL     1       7.440   5.365  14.282  0.00  0.00    +0.000 A 
ENDBRANCH   1   3
BRANCH   1  15
ATOM     11  C   UNL     1       2.874   3.298  17.469  0.00  0.00    +0.000 A 
ATOM     12  C   UNL     1       2.291   4.525  17.792  0.00  0.00    +0.000 A 
ATOM     13  C   UNL     1       3.052   5.689  17.743  0.00  0.00    +0.000 A 
ATOM     14  C   UNL     1       4.413   5.612  17.448  0.00  0.00    +0.000 A 
ATOM     15  C   UNL     1       4.977   4.410  16.995  0.00  0.00    +0.000 A 
ATOM     16  C   UNL     1       4.191   3.250  17.000  0.00  0.00    +0.000 A 
BRANCH  11  18
ATOM     17  C   UNL     1       1.155   2.237  18.665  0.00  0.00    +0.000 C 
ATOM     18  O   UNL     1       2.056   2.202  17.558  0.00  0.00    +0.000 OA
ENDBRANCH  11  18
BRANCH  13  19
ATOM     19  O   UNL     1       2.392   6.862  17.994  0.00  0.00    +0.000 OA
ATOM     20  C   UNL     1       3.134   8.039  17.663  0.00  0.00    +0.000 C 
ENDBRANCH  13  19
ENDBRANCH   1  15
BRANCH   2  21
ATOM     21  N   UNL     1       7.526   4.419  18.424  0.00  0.00    +0.000 N 
ATOM     22  H   UNL     1       7.178   3.655  18.987  0.00  0.00    +0.000 HD
BRANCH  21  23
ATOM     23  C   UNL     1       7.904   5.562  19.080  0.00  0.00    +0.000 C 
ATOM     24  S   UNL     1       7.858   7.051  18.353  0.00  0.00    +0.000 S 
BRANCH  23  25
ATOM     25  N   UNL     1       8.305   5.403  20.363  0.00  0.00    +0.000 N 
ATOM     26  H   UNL     1       7.583   5.293  21.065  0.00  0.00    +0.000 HD
ATOM     27  H   UNL     1       9.274   5.235  20.595  0.00  0.00    +0.000 HD
ENDBRANCH  23  25
ENDBRANCH  21  23
ENDBRANCH   2  21
TORSDOF 7
ENDMDL
MODEL 9
REMARK VINA RESULT:      -6.5      4.396      6.137
REMARK  Name = 
REMARK  9 active torsions:
REMARK  status: ('A' for Active; 'I' for Inactive)
REMARK    1  A    between atoms: C_1  and  O_2
REMARK    2  A    between atoms: O_2  and  C_3
REMARK    3  A    between atoms: C_5  and  O_6
REMARK    4  A    between atoms: O_6  and  C_7
REMARK    5  A    between atoms: C_9  and  C_10
REMARK    6  A    between atoms: C_10  and  C_16
REMARK    7  A    between atoms: N_11  and  N_12
REMARK    8  A    between atoms: N_12  and  C_13
REMARK    9  A    between atoms: C_13  and  N_14
REMARK                            x       y       z     vdW  Elec       q    Type
REMARK                         _______ _______ _______ _____ _____    ______ ____
ROOT
ATOM      1  C   UNL     1       1.776   9.965  18.218  0.00  0.00    +0.000 C 
ATOM      2  N   UNL     1       2.650  10.888  17.924  0.00  0.00    +0.000 NA
ENDROOT
BRANCH   1   3
ATOM      3  C   UNL     1       2.352   8.573  18.401  0.00  0.00    +0.000 A 
ATOM      4  C   UNL     1       3.309   8.127  17.476  0.00  0.00    +0.000 A 
ATOM      5  C   UNL     1       3.792   6.820  17.541  0.00  0.00    +0.000 A 
ATOM      6 BR   UNL     1       5.082   6.237  16.289  0.00  0.00    +0.000 Br
ATOM      7  C   UNL     1       3.321   5.935  18.507  0.00  0.00    +0.000 A 
ATOM      8  C   UNL     1       2.393   6.386  19.443  0.00  0.00    +0.000 A 
ATOM      9 BR   UNL     1       1.709   5.184  20.732  0.00  0.00    +0.000 Br
ATOM     10  C   UNL     1       1.936   7.705  19.419  0.00  0.00    +0.000 A 
ENDBRANCH   1   3
BRANCH   1  15
ATOM     11  C   UNL     1      -1.978  10.046  17.512  0.00  0.00    +0.000 A 
ATOM     12  C   UNL     1      -2.433  10.801  18.595  0.00  0.00    +0.000 A 
ATOM     13  C   UNL     1      -1.540  11.208  19.582  0.00  0.00    +0.000 A 
ATOM     14  C   UNL     1      -0.211  10.792  19.523  0.00  0.00    +0.000 A 
ATOM     15  C   UNL     1       0.286  10.148  18.379  0.00  0.00    +0.000 A 
ATOM     16  C   UNL     1      -0.612   9.785  17.366  0.00  0.00    +0.000 A 
BRANCH  11  18
ATOM     17  C   UNL     1      -3.004  10.536  15.458  0.00  0.00    +0.000 C 
ATOM     18  O   UNL     1      -2.927   9.677  16.596  0.00  0.00    +0.000 OA
ENDBRANCH  11  18
BRANCH  13  19
ATOM     19  O   UNL     1      -2.043  12.013  20.569  0.00  0.00    +0.000 OA
ATOM     20  C   UNL     1      -1.367  11.901  21.824  0.00  0.00    +0.000 C 
ENDBRANCH  13  19
ENDBRANCH   1  15
BRANCH   2  21
ATOM     21  N   UNL     1       2.268  12.143  17.586  0.00  0.00    +0.000 N 
ATOM     22  H   UNL     1       1.732  12.316  16.747  0.00  0.00    +0.000 HD
BRANCH  21  23
ATOM     23  C   UNL     1       2.702  13.237  18.290  0.00  0.00    +0.000 C 
ATOM     24  S   UNL     1       2.169  13.565  19.825  0.00  0.00    +0.000 S 
BRANCH  23  25
ATOM     25  N   UNL     1       3.604  14.026  17.661  0.00  0.00    +0.000 N 
ATOM     26  H   UNL     1       4.459  14.242  18.158  0.00  0.00    +0.000 HD
ATOM     27  H   UNL     1       3.509  14.254  16.681  0.00  0.00    +0.000 HD
ENDBRANCH  23  25
ENDBRANCH  21  23
ENDBRANCH   2  21
TORSDOF 7
ENDMDL
