MODEL 1
REMARK VINA RESULT:      -8.4      0.000      0.000
REMARK  Name = 
REMARK  8 active torsions:
REMARK  status: ('A' for Active; 'I' for Inactive)
REMARK    1  A    between atoms: C_1  and  C_2
REMARK    2  A    between atoms: C_2  and  C_3
REMARK    3  A    between atoms: C_7  and  C_8
REMARK    4  A    between atoms: N_9  and  C_10
REMARK    5  A    between atoms: C_10  and  C_11
REMARK    6  A    between atoms: C_11  and  O_12
REMARK    7  A    between atoms: C_11  and  C_13
REMARK    8  A    between atoms: C_19  and  O_20
REMARK                            x       y       z     vdW  Elec       q    Type
REMARK                         _______ _______ _______ _____ _____    ______ ____
ROOT
ATOM      1  C   UNL     1       3.986   3.723  16.815  0.00  0.00    +0.000 C 
ATOM      2  N   UNL     1       4.510   4.869  16.515  0.00  0.00    +0.000 NA
ENDROOT
BRANCH   1   9
ATOM      3  C   UNL     1       1.245   2.592  21.870  0.00  0.00    +0.000 C 
ATOM      4  C   UNL     1       1.926   3.312  20.692  0.00  0.00    +0.000 C 
ATOM      5  C   UNL     1       2.012   4.815  21.029  0.00  0.00    +0.000 C 
ATOM      6  C   UNL     1       1.094   3.100  19.417  0.00  0.00    +0.000 C 
ATOM      7  C   UNL     1       1.801   3.588  18.170  0.00  0.00    +0.000 C 
ATOM      8  O   UNL     1       1.166   4.015  17.206  0.00  0.00    +0.000 OA
ATOM      9  C   UNL     1       3.284   3.473  18.098  0.00  0.00    +0.000 C 
ATOM     10  C   UNL     1       3.969   3.059  19.184  0.00  0.00    +0.000 C 
ATOM     11  C   UNL     1       3.333   2.718  20.500  0.00  0.00    +0.000 C 
BRANCH  10  12
ATOM     12  O   UNL     1       5.347   2.892  19.196  0.00  0.00    +0.000 OA
ATOM     13  H   UNL     1       5.762   3.787  19.159  0.00  0.00    +0.000 HD
ENDBRANCH  10  12
ENDBRANCH   1   9
BRANCH   2  14
ATOM     14  C   UNL     1       5.292   4.842  15.261  0.00  0.00    +0.000 C 
BRANCH  14  15
ATOM     15  C   UNL     1       6.807   4.780  15.574  0.00  0.00    +0.000 C 
BRANCH  15  16
ATOM     16  C   UNL     1       7.270   5.581  16.778  0.00  0.00    +0.000 A 
ATOM     17  C   UNL     1       7.348   6.981  16.790  0.00  0.00    +0.000 A 
ATOM     18  C   UNL     1       7.808   7.661  17.920  0.00  0.00    +0.000 A 
ATOM     19  C   UNL     1       8.195   6.955  19.055  0.00  0.00    +0.000 A 
ATOM     20  C   UNL     1       8.113   5.565  19.068  0.00  0.00    +0.000 A 
ATOM     21  C   UNL     1       7.652   4.885  17.940  0.00  0.00    +0.000 A 
ENDBRANCH  15  16
BRANCH  15  22
ATOM     22  O   UNL     1       7.526   5.259  14.425  0.00  0.00    +0.000 OA
ATOM     23  H   UNL     1       7.999   4.496  14.050  0.00  0.00    +0.000 HD
ENDBRANCH  15  22
ENDBRANCH  14  15
ENDBRANCH   2  14
TORSDOF 6
ENDMDL
MODEL 2
REMARK VINA RESULT:      -8.4      0.070      1.053
REMARK  Name = 
REMARK  8 active torsions:
REMARK  status: ('A' for Active; 'I' for Inactive)
REMARK    1  A    between atoms: C_1  and  C_2
REMARK    2  A    between atoms: C_2  and  C_3
REMARK    3  A    between atoms: C_7  and  C_8
REMARK    4  A    between atoms: N_9  and  C_10
REMARK    5  A    between atoms: C_10  and  C_11
REMARK    6  A    between atoms: C_11  and  O_12
REMARK    7  A    between atoms: C_11  and  C_13
REMARK    8  A    between atoms: C_19  and  O_20
REMARK                            x       y       z     vdW  Elec       q    Type
REMARK                         _______ _______ _______ _____ _____    ______ ____
ROOT
ATOM      1  C   UNL     1       4.023   3.732  16.835  0.00  0.00    +0.000 C 
ATOM      2  N   UNL     1       4.459   4.906  16.501  0.00  0.00    +0.000 NA
ENDROOT
BRANCH   1   9
ATOM      3  C   UNL     1       1.261   2.567  21.870  0.00  0.00    +0.000 C 
ATOM      4  C   UNL     1       1.950   3.295  20.703  0.00  0.00    +0.000 C 
ATOM      5  C   UNL     1       2.049   4.793  21.058  0.00  0.00    +0.000 C 
ATOM      6  C   UNL     1       1.120   3.105  19.423  0.00  0.00    +0.000 C 
ATOM      7  C   UNL     1       1.834   3.601  18.184  0.00  0.00    +0.000 C 
ATOM      8  O   UNL     1       1.205   4.045  17.224  0.00  0.00    +0.000 OA
ATOM      9  C   UNL     1       3.316   3.474  18.114  0.00  0.00    +0.000 C 
ATOM     10  C   UNL     1       3.994   3.042  19.196  0.00  0.00    +0.000 C 
ATOM     11  C   UNL     1       3.353   2.691  20.507  0.00  0.00    +0.000 C 
BRANCH  10  12
ATOM     12  O   UNL     1       5.371   2.862  19.209  0.00  0.00    +0.000 OA
ATOM     13  H   UNL     1       5.569   2.067  19.758  0.00  0.00    +0.000 HD
ENDBRANCH  10  12
ENDBRANCH   1   9
BRANCH   2  14
ATOM     14  C   UNL     1       5.268   4.896  15.264  0.00  0.00    +0.000 C 
BRANCH  14  15
ATOM     15  C   UNL     1       6.768   4.717  15.604  0.00  0.00    +0.000 C 
BRANCH  15  16
ATOM     16  C   UNL     1       7.271   5.486  16.811  0.00  0.00    +0.000 A 
ATOM     17  C   UNL     1       7.665   4.871  18.009  0.00  0.00    +0.000 A 
ATOM     18  C   UNL     1       8.093   5.635  19.097  0.00  0.00    +0.000 A 
ATOM     19  C   UNL     1       8.138   7.023  19.006  0.00  0.00    +0.000 A 
ATOM     20  C   UNL     1       7.765   7.652  17.822  0.00  0.00    +0.000 A 
ATOM     21  C   UNL     1       7.338   6.889  16.734  0.00  0.00    +0.000 A 
ENDBRANCH  15  16
BRANCH  15  22
ATOM     22  O   UNL     1       7.542   5.132  14.465  0.00  0.00    +0.000 OA
ATOM     23  H   UNL     1       7.316   4.529  13.736  0.00  0.00    +0.000 HD
ENDBRANCH  15  22
ENDBRANCH  14  15
ENDBRANCH   2  14
TORSDOF 6
ENDMDL
MODEL 3
REMARK VINA RESULT:      -7.6      1.983      3.608
REMARK  Name = 
REMARK  8 active torsions:
REMARK  status: ('A' for Active; 'I' for Inactive)
REMARK    1  A    between atoms: C_1  and  C_2
REMARK    2  A    between atoms: C_2  and  C_3
REMARK    3  A    between atoms: C_7  and  C_8
REMARK    4  A    between atoms: N_9  and  C_10
REMARK    5  A    between atoms: C_10  and  C_11
REMARK    6  A    between atoms: C_11  and  O_12
REMARK    7  A    between atoms: C_11  and  C_13
REMARK    8  A    between atoms: C_19  and  O_20
REMARK                            x       y       z     vdW  Elec       q    Type
REMARK                         _______ _______ _______ _____ _____    ______ ____
ROOT
ATOM      1  C   UNL     1       4.267   5.324  17.630  0.00  0.00    +0.000 C 
ATOM      2  N   UNL     1       5.448   5.823  17.820  0.00  0.00    +0.000 NA
ENDROOT
BRANCH   1   9
ATOM      3  C   UNL     1       1.453   2.465  21.900  0.00  0.00    +0.000 C 
ATOM      4  C   UNL     1       1.799   3.153  20.568  0.00  0.00    +0.000 C 
ATOM      5  C   UNL     1       0.533   3.161  19.685  0.00  0.00    +0.000 C 
ATOM      6  C   UNL     1       2.928   2.375  19.872  0.00  0.00    +0.000 C 
ATOM      7  C   UNL     1       3.479   3.103  18.663  0.00  0.00    +0.000 C 
ATOM      8  O   UNL     1       3.937   2.483  17.704  0.00  0.00    +0.000 OA
ATOM      9  C   UNL     1       3.528   4.591  18.686  0.00  0.00    +0.000 C 
ATOM     10  C   UNL     1       2.968   5.256  19.717  0.00  0.00    +0.000 C 
ATOM     11  C   UNL     1       2.263   4.591  20.864  0.00  0.00    +0.000 C 
BRANCH  10  12
ATOM     12  O   UNL     1       2.996   6.639  19.836  0.00  0.00    +0.000 OA
ATOM     13  H   UNL     1       2.934   7.023  18.929  0.00  0.00    +0.000 HD
ENDBRANCH  10  12
ENDBRANCH   1   9
BRANCH   2  14
ATOM     14  C   UNL     1       6.056   6.369  16.588  0.00  0.00    +0.000 C 
BRANCH  14  15
ATOM     15  C   UNL     1       7.112   5.384  16.027  0.00  0.00    +0.000 C 
BRANCH  15  16
ATOM     16  C   UNL     1       6.822   4.813  14.652  0.00  0.00    +0.000 A 
ATOM     17  C   UNL     1       5.734   3.970  14.379  0.00  0.00    +0.000 A 
ATOM     18  C   UNL     1       5.536   3.453  13.097  0.00  0.00    +0.000 A 
ATOM     19  C   UNL     1       6.417   3.770  12.067  0.00  0.00    +0.000 A 
ATOM     20  C   UNL     1       7.495   4.615  12.315  0.00  0.00    +0.000 A 
ATOM     21  C   UNL     1       7.694   5.134  13.595  0.00  0.00    +0.000 A 
ENDBRANCH  15  16
BRANCH  15  22
ATOM     22  O   UNL     1       7.235   4.284  16.944  0.00  0.00    +0.000 OA
ATOM     23  H   UNL     1       6.458   4.314  17.528  0.00  0.00    +0.000 HD
ENDBRANCH  15  22
ENDBRANCH  14  15
ENDBRANCH   2  14
TORSDOF 6
ENDMDL
MODEL 4
REMARK VINA RESULT:      -7.6      2.003      3.544
REMARK  Name = 
REMARK  8 active torsions:
REMARK  status: ('A' for Active; 'I' for Inactive)
REMARK    1  A    between atoms: C_1  and  C_2
REMARK    2  A    between atoms: C_2  and  C_3
REMARK    3  A    between atoms: C_7  and  C_8
REMARK    4  A    between atoms: N_9  and  C_10
REMARK    5  A    between atoms: C_10  and  C_11
REMARK    6  A    between atoms: C_11  and  O_12
REMARK    7  A    between atoms: C_11  and  C_13
REMARK    8  A    between atoms: C_19  and  O_20
REMARK                            x       y       z     vdW  Elec       q    Type
REMARK                         _______ _______ _______ _____ _____    ______ ____
ROOT
ATOM      1  C   UNL     1       4.153   5.251  17.561  0.00  0.00    +0.000 C 
ATOM      2  N   UNL     1       5.330   5.772  17.711  0.00  0.00    +0.000 NA
ENDROOT
BRANCH   1   9
ATOM      3  C   UNL     1       1.484   2.464  21.971  0.00  0.00    +0.000 C 
ATOM      4  C   UNL     1       1.784   3.134  20.618  0.00  0.00    +0.000 C 
ATOM      5  C   UNL     1       0.485   3.142  19.785  0.00  0.00    +0.000 C 
ATOM      6  C   UNL     1       2.879   2.339  19.889  0.00  0.00    +0.000 C 
ATOM      7  C   UNL     1       3.389   3.048  18.652  0.00  0.00    +0.000 C 
ATOM      8  O   UNL     1       3.805   2.413  17.683  0.00  0.00    +0.000 OA
ATOM      9  C   UNL     1       3.449   4.536  18.654  0.00  0.00    +0.000 C 
ATOM     10  C   UNL     1       2.935   5.217  19.698  0.00  0.00    +0.000 C 
ATOM     11  C   UNL     1       2.269   4.572  20.879  0.00  0.00    +0.000 C 
BRANCH  10  12
ATOM     12  O   UNL     1       2.978   6.601  19.798  0.00  0.00    +0.000 OA
ATOM     13  H   UNL     1       2.090   6.952  19.548  0.00  0.00    +0.000 HD
ENDBRANCH  10  12
ENDBRANCH   1   9
BRANCH   2  14
ATOM     14  C   UNL     1       5.901   6.293  16.450  0.00  0.00    +0.000 C 
BRANCH  14  15
ATOM     15  C   UNL     1       7.039   5.368  15.953  0.00  0.00    +0.000 C 
BRANCH  15  16
ATOM     16  C   UNL     1       6.869   4.799  14.557  0.00  0.00    +0.000 A 
ATOM     17  C   UNL     1       7.722   5.108  13.487  0.00  0.00    +0.000 A 
ATOM     18  C   UNL     1       7.497   4.574  12.216  0.00  0.00    +0.000 A 
ATOM     19  C   UNL     1       6.420   3.721  11.994  0.00  0.00    +0.000 A 
ATOM     20  C   UNL     1       5.569   3.391  13.045  0.00  0.00    +0.000 A 
ATOM     21  C   UNL     1       5.794   3.923  14.315  0.00  0.00    +0.000 A 
ENDBRANCH  15  16
BRANCH  15  22
ATOM     22  O   UNL     1       7.156   4.264  16.866  0.00  0.00    +0.000 OA
ATOM     23  H   UNL     1       7.837   4.507  17.517  0.00  0.00    +0.000 HD
ENDBRANCH  15  22
ENDBRANCH  14  15
ENDBRANCH   2  14
TORSDOF 6
ENDMDL
MODEL 5
REMARK VINA RESULT:      -7.5      1.929      3.459
REMARK  Name = 
REMARK  8 active torsions:
REMARK  status: ('A' for Active; 'I' for Inactive)
REMARK    1  A    between atoms: C_1  and  C_2
REMARK    2  A    between atoms: C_2  and  C_3
REMARK    3  A    between atoms: C_7  and  C_8
REMARK    4  A    between atoms: N_9  and  C_10
REMARK    5  A    between atoms: C_10  and  C_11
REMARK    6  A    between atoms: C_11  and  O_12
REMARK    7  A    between atoms: C_11  and  C_13
REMARK    8  A    between atoms: C_19  and  O_20
REMARK                            x       y       z     vdW  Elec       q    Type
REMARK                         _______ _______ _______ _____ _____    ______ ____
ROOT
ATOM      1  C   UNL     1       5.238   4.055  17.943  0.00  0.00    +0.000 C 
ATOM      2  N   UNL     1       6.454   4.288  18.324  0.00  0.00    +0.000 NA
ENDROOT
BRANCH   1   9
ATOM      3  C   UNL     1       1.045   2.719  21.813  0.00  0.00    +0.000 C 
ATOM      4  C   UNL     1       1.789   3.113  20.525  0.00  0.00    +0.000 C 
ATOM      5  C   UNL     1       0.741   3.429  19.438  0.00  0.00    +0.000 C 
ATOM      6  C   UNL     1       2.685   1.946  20.078  0.00  0.00    +0.000 C 
ATOM      7  C   UNL     1       3.616   2.325  18.945  0.00  0.00    +0.000 C 
ATOM      8  O   UNL     1       3.976   1.492  18.114  0.00  0.00    +0.000 OA
ATOM      9  C   UNL     1       4.151   3.713  18.894  0.00  0.00    +0.000 C 
ATOM     10  C   UNL     1       3.701   4.629  19.776  0.00  0.00    +0.000 C 
ATOM     11  C   UNL     1       2.656   4.352  20.817  0.00  0.00    +0.000 C 
BRANCH  10  12
ATOM     12  O   UNL     1       4.168   5.935  19.822  0.00  0.00    +0.000 OA
ATOM     13  H   UNL     1       3.548   6.461  20.380  0.00  0.00    +0.000 HD
ENDBRANCH  10  12
ENDBRANCH   1   9
BRANCH   2  14
ATOM     14  C   UNL     1       7.397   4.449  17.198  0.00  0.00    +0.000 C 
BRANCH  14  15
ATOM     15  C   UNL     1       6.813   5.421  16.143  0.00  0.00    +0.000 C 
BRANCH  15  16
ATOM     16  C   UNL     1       6.852   4.939  14.704  0.00  0.00    +0.000 A 
ATOM     17  C   UNL     1       7.746   5.439  13.746  0.00  0.00    +0.000 A 
ATOM     18  C   UNL     1       7.715   4.975  12.429  0.00  0.00    +0.000 A 
ATOM     19  C   UNL     1       6.793   4.004  12.048  0.00  0.00    +0.000 A 
ATOM     20  C   UNL     1       5.906   3.486  12.987  0.00  0.00    +0.000 A 
ATOM     21  C   UNL     1       5.937   3.948  14.304  0.00  0.00    +0.000 A 
ENDBRANCH  15  16
BRANCH  15  22
ATOM     22  O   UNL     1       7.543   6.657  16.212  0.00  0.00    +0.000 OA
ATOM     23  H   UNL     1       7.045   7.246  16.805  0.00  0.00    +0.000 HD
ENDBRANCH  15  22
ENDBRANCH  14  15
ENDBRANCH   2  14
TORSDOF 6
ENDMDL
MODEL 6
REMARK VINA RESULT:      -7.4      1.035      1.739
REMARK  Name = 
REMARK  8 active torsions:
REMARK  status: ('A' for Active; 'I' for Inactive)
REMARK    1  A    between atoms: C_1  and  C_2
REMARK    2  A    between atoms: C_2  and  C_3
REMARK    3  A    between atoms: C_7  and  C_8
REMARK    4  A    between atoms: N_9  and  C_10
REMARK    5  A    between atoms: C_10  and  C_11
REMARK    6  A    between atoms: C_11  and  O_12
REMARK    7  A    between atoms: C_11  and  C_13
REMARK    8  A    between atoms: C_19  and  O_20
REMARK                            x       y       z     vdW  Elec       q    Type
REMARK                         _______ _______ _______ _____ _____    ______ ____
ROOT
ATOM      1  C   UNL     1       4.178   3.620  16.512  0.00  0.00    +0.000 C 
ATOM      2  N   UNL     1       4.686   4.748  16.126  0.00  0.00    +0.000 NA
ENDROOT
BRANCH   1   9
ATOM      3  C   UNL     1       1.370   3.106  21.629  0.00  0.00    +0.000 C 
ATOM      4  C   UNL     1       1.718   3.075  20.130  0.00  0.00    +0.000 C 
ATOM      5  C   UNL     1       0.463   2.628  19.352  0.00  0.00    +0.000 C 
ATOM      6  C   UNL     1       2.870   2.085  19.896  0.00  0.00    +0.000 C 
ATOM      7  C   UNL     1       3.422   2.153  18.487  0.00  0.00    +0.000 C 
ATOM      8  O   UNL     1       3.904   1.159  17.945  0.00  0.00    +0.000 OA
ATOM      9  C   UNL     1       3.440   3.469  17.790  0.00  0.00    +0.000 C 
ATOM     10  C   UNL     1       2.856   4.535  18.373  0.00  0.00    +0.000 C 
ATOM     11  C   UNL     1       2.150   4.488  19.697  0.00  0.00    +0.000 C 
BRANCH  10  12
ATOM     12  O   UNL     1       2.855   5.804  17.811  0.00  0.00    +0.000 OA
ATOM     13  H   UNL     1       2.373   6.408  18.424  0.00  0.00    +0.000 HD
ENDBRANCH  10  12
ENDBRANCH   1   9
BRANCH   2  14
ATOM     14  C   UNL     1       5.510   4.628  14.904  0.00  0.00    +0.000 C 
BRANCH  14  15
ATOM     15  C   UNL     1       7.014   4.736  15.257  0.00  0.00    +0.000 C 
BRANCH  15  16
ATOM     16  C   UNL     1       7.341   5.437  16.562  0.00  0.00    +0.000 A 
ATOM     17  C   UNL     1       7.367   6.832  16.705  0.00  0.00    +0.000 A 
ATOM     18  C   UNL     1       7.703   7.419  17.927  0.00  0.00    +0.000 A 
ATOM     19  C   UNL     1       8.014   6.624  19.026  0.00  0.00    +0.000 A 
ATOM     20  C   UNL     1       7.981   5.237  18.909  0.00  0.00    +0.000 A 
ATOM     21  C   UNL     1       7.645   4.650  17.688  0.00  0.00    +0.000 A 
ENDBRANCH  15  16
BRANCH  15  22
ATOM     22  O   UNL     1       7.676   5.448  14.198  0.00  0.00    +0.000 OA
ATOM     23  H   UNL     1       7.700   4.852  13.429  0.00  0.00    +0.000 HD
ENDBRANCH  15  22
ENDBRANCH  14  15
ENDBRANCH   2  14
TORSDOF 6
ENDMDL
MODEL 7
REMARK VINA RESULT:      -7.3      0.977      2.049
REMARK  Name = 
REMARK  8 active torsions:
REMARK  status: ('A' for Active; 'I' for Inactive)
REMARK    1  A    between atoms: C_1  and  C_2
REMARK    2  A    between atoms: C_2  and  C_3
REMARK    3  A    between atoms: C_7  and  C_8
REMARK    4  A    between atoms: N_9  and  C_10
REMARK    5  A    between atoms: C_10  and  C_11
REMARK    6  A    between atoms: C_11  and  O_12
REMARK    7  A    between atoms: C_11  and  C_13
REMARK    8  A    between atoms: C_19  and  O_20
REMARK                            x       y       z     vdW  Elec       q    Type
REMARK                         _______ _______ _______ _____ _____    ______ ____
ROOT
ATOM      1  C   UNL     1       4.012   3.912  16.573  0.00  0.00    +0.000 C 
ATOM      2  N   UNL     1       4.592   5.043  16.319  0.00  0.00    +0.000 NA
ENDROOT
BRANCH   1   9
ATOM      3  C   UNL     1       1.273   2.955  21.664  0.00  0.00    +0.000 C 
ATOM      4  C   UNL     1       1.618   3.014  20.165  0.00  0.00    +0.000 C 
ATOM      5  C   UNL     1       0.404   2.494  19.368  0.00  0.00    +0.000 C 
ATOM      6  C   UNL     1       2.850   2.136  19.892  0.00  0.00    +0.000 C 
ATOM      7  C   UNL     1       3.390   2.308  18.487  0.00  0.00    +0.000 C 
ATOM      8  O   UNL     1       3.953   1.381  17.905  0.00  0.00    +0.000 OA
ATOM      9  C   UNL     1       3.294   3.647  17.843  0.00  0.00    +0.000 C 
ATOM     10  C   UNL     1       2.622   4.635  18.469  0.00  0.00    +0.000 C 
ATOM     11  C   UNL     1       1.927   4.475  19.789  0.00  0.00    +0.000 C 
BRANCH  10  12
ATOM     12  O   UNL     1       2.512   5.922  17.958  0.00  0.00    +0.000 OA
ATOM     13  H   UNL     1       1.719   6.344  18.367  0.00  0.00    +0.000 HD
ENDBRANCH  10  12
ENDBRANCH   1   9
BRANCH   2  14
ATOM     14  C   UNL     1       5.377   5.027  15.067  0.00  0.00    +0.000 C 
BRANCH  14  15
ATOM     15  C   UNL     1       6.887   4.892  15.381  0.00  0.00    +0.000 C 
BRANCH  15  16
ATOM     16  C   UNL     1       7.344   5.475  16.706  0.00  0.00    +0.000 A 
ATOM     17  C   UNL     1       7.662   4.693  17.826  0.00  0.00    +0.000 A 
ATOM     18  C   UNL     1       8.051   5.289  19.027  0.00  0.00    +0.000 A 
ATOM     19  C   UNL     1       8.130   6.675  19.129  0.00  0.00    +0.000 A 
ATOM     20  C   UNL     1       7.831   7.469  18.025  0.00  0.00    +0.000 A 
ATOM     21  C   UNL     1       7.444   6.874  16.824  0.00  0.00    +0.000 A 
ENDBRANCH  15  16
BRANCH  15  22
ATOM     22  O   UNL     1       7.627   5.544  14.335  0.00  0.00    +0.000 OA
ATOM     23  H   UNL     1       8.356   6.026  14.764  0.00  0.00    +0.000 HD
ENDBRANCH  15  22
ENDBRANCH  14  15
ENDBRANCH   2  14
TORSDOF 6
ENDMDL
MODEL 8
REMARK VINA RESULT:      -7.3      1.852      3.329
REMARK  Name = 
REMARK  8 active torsions:
REMARK  status: ('A' for Active; 'I' for Inactive)
REMARK    1  A    between atoms: C_1  and  C_2
REMARK    2  A    between atoms: C_2  and  C_3
REMARK    3  A    between atoms: C_7  and  C_8
REMARK    4  A    between atoms: N_9  and  C_10
REMARK    5  A    between atoms: C_10  and  C_11
REMARK    6  A    between atoms: C_11  and  O_12
REMARK    7  A    between atoms: C_11  and  C_13
REMARK    8  A    between atoms: C_19  and  O_20
REMARK                            x       y       z     vdW  Elec       q    Type
REMARK                         _______ _______ _______ _____ _____    ______ ____
ROOT
ATOM      1  C   UNL     1       4.024   4.830  17.015  0.00  0.00    +0.000 C 
ATOM      2  N   UNL     1       4.894   5.784  17.124  0.00  0.00    +0.000 NA
ENDROOT
BRANCH   1   9
ATOM      3  C   UNL     1       1.597   2.128  21.613  0.00  0.00    +0.000 C 
ATOM      4  C   UNL     1       2.139   3.202  20.653  0.00  0.00    +0.000 C 
ATOM      5  C   UNL     1       2.021   4.575  21.347  0.00  0.00    +0.000 C 
ATOM      6  C   UNL     1       1.315   3.188  19.356  0.00  0.00    +0.000 C 
ATOM      7  C   UNL     1       1.915   4.061  18.273  0.00  0.00    +0.000 C 
ATOM      8  O   UNL     1       1.203   4.613  17.436  0.00  0.00    +0.000 OA
ATOM      9  C   UNL     1       3.397   4.180  18.191  0.00  0.00    +0.000 C 
ATOM     10  C   UNL     1       4.160   3.617  19.150  0.00  0.00    +0.000 C 
ATOM     11  C   UNL     1       3.612   2.879  20.337  0.00  0.00    +0.000 C 
BRANCH  10  12
ATOM     12  O   UNL     1       5.548   3.651  19.135  0.00  0.00    +0.000 OA
ATOM     13  H   UNL     1       5.876   2.742  19.337  0.00  0.00    +0.000 HD
ENDBRANCH  10  12
ENDBRANCH   1   9
BRANCH   2  14
ATOM     14  C   UNL     1       5.501   6.170  15.832  0.00  0.00    +0.000 C 
BRANCH  14  15
ATOM     15  C   UNL     1       6.712   5.260  15.514  0.00  0.00    +0.000 C 
BRANCH  15  16
ATOM     16  C   UNL     1       6.762   4.688  14.109  0.00  0.00    +0.000 A 
ATOM     17  C   UNL     1       7.684   5.103  13.138  0.00  0.00    +0.000 A 
ATOM     18  C   UNL     1       7.662   4.558  11.852  0.00  0.00    +0.000 A 
ATOM     19  C   UNL     1       6.721   3.588  11.517  0.00  0.00    +0.000 A 
ATOM     20  C   UNL     1       5.805   3.153  12.470  0.00  0.00    +0.000 A 
ATOM     21  C   UNL     1       5.828   3.697  13.756  0.00  0.00    +0.000 A 
ENDBRANCH  15  16
BRANCH  15  22
ATOM     22  O   UNL     1       6.706   4.159  16.437  0.00  0.00    +0.000 OA
ATOM     23  H   UNL     1       7.129   4.473  17.255  0.00  0.00    +0.000 HD
ENDBRANCH  15  22
ENDBRANCH  14  15
ENDBRANCH   2  14
TORSDOF 6
ENDMDL
MODEL 9
REMARK VINA RESULT:      -7.3      2.024      3.366
REMARK  Name = 
REMARK  8 active torsions:
REMARK  status: ('A' for Active; 'I' for Inactive)
REMARK    1  A    between atoms: C_1  and  C_2
REMARK    2  A    between atoms: C_2  and  C_3
REMARK    3  A    between atoms: C_7  and  C_8
REMARK    4  A    between atoms: N_9  and  C_10
REMARK    5  A    between atoms: C_10  and  C_11
REMARK    6  A    between atoms: C_11  and  O_12
REMARK    7  A    between atoms: C_11  and  C_13
REMARK    8  A    between atoms: C_19  and  O_20
REMARK                            x       y       z     vdW  Elec       q    Type
REMARK                         _______ _______ _______ _____ _____    ______ ____
ROOT
ATOM      1  C   UNL     1       5.244   4.517  17.850  0.00  0.00    +0.000 C 
ATOM      2  N   UNL     1       6.413   4.062  18.177  0.00  0.00    +0.000 NA
ENDROOT
BRANCH   1   9
ATOM      3  C   UNL     1       0.259   2.791  20.400  0.00  0.00    +0.000 C 
ATOM      4  C   UNL     1       1.723   3.191  20.150  0.00  0.00    +0.000 C 
ATOM      5  C   UNL     1       2.512   2.981  21.459  0.00  0.00    +0.000 C 
ATOM      6  C   UNL     1       1.782   4.667  19.724  0.00  0.00    +0.000 C 
ATOM      7  C   UNL     1       3.159   5.083  19.248  0.00  0.00    +0.000 C 
ATOM      8  O   UNL     1       3.558   6.238  19.393  0.00  0.00    +0.000 OA
ATOM      9  C   UNL     1       3.998   4.085  18.530  0.00  0.00    +0.000 C 
ATOM     10  C   UNL     1       3.572   2.809  18.432  0.00  0.00    +0.000 C 
ATOM     11  C   UNL     1       2.290   2.302  19.028  0.00  0.00    +0.000 C 
BRANCH  10  12
ATOM     12  O   UNL     1       4.274   1.822  17.753  0.00  0.00    +0.000 OA
ATOM     13  H   UNL     1       3.698   1.486  17.025  0.00  0.00    +0.000 HD
ENDBRANCH  10  12
ENDBRANCH   1   9
BRANCH   2  14
ATOM     14  C   UNL     1       7.487   4.509  17.265  0.00  0.00    +0.000 C 
BRANCH  14  15
ATOM     15  C   UNL     1       6.921   5.482  16.203  0.00  0.00    +0.000 C 
BRANCH  15  16
ATOM     16  C   UNL     1       6.943   4.985  14.769  0.00  0.00    +0.000 A 
ATOM     17  C   UNL     1       7.809   5.491  13.789  0.00  0.00    +0.000 A 
ATOM     18  C   UNL     1       7.762   5.012  12.478  0.00  0.00    +0.000 A 
ATOM     19  C   UNL     1       6.853   4.019  12.125  0.00  0.00    +0.000 A 
ATOM     20  C   UNL     1       5.994   3.494  13.086  0.00  0.00    +0.000 A 
ATOM     21  C   UNL     1       6.040   3.971  14.397  0.00  0.00    +0.000 A 
ENDBRANCH  15  16
BRANCH  15  22
ATOM     22  O   UNL     1       7.679   6.702  16.256  0.00  0.00    +0.000 OA
ATOM     23  H   UNL     1       7.149   7.342  16.762  0.00  0.00    +0.000 HD
ENDBRANCH  15  22
ENDBRANCH  14  15
ENDBRANCH   2  14
TORSDOF 6
ENDMDL
