MODEL 1
REMARK VINA RESULT:      -7.6      0.000      0.000
REMARK  Name = 
REMARK  9 active torsions:
REMARK  status: ('A' for Active; 'I' for Inactive)
REMARK    1  A    between atoms: C_1  and  C_2
REMARK    2  A    between atoms: C_7  and  C_8
REMARK    3  A    between atoms: C_8  and  C_10
REMARK    4  A    between atoms: C_13  and  C_14
REMARK    5  A    between atoms: C_14  and  O_16
REMARK    6  A    between atoms: C_20  and  C_21
REMARK    7  A    between atoms: C_20  and  C_22
REMARK    8  A    between atoms: C_25  and  C_26
REMARK    9  A    between atoms: C_25  and  C_27
REMARK                            x       y       z     vdW  Elec       q    Type
REMARK                         _______ _______ _______ _____ _____    ______ ____
ROOT
ATOM      1  C   UNL     1      -1.803   9.987  16.744  0.00  0.00    +0.000 C 
ATOM      2  C   UNL     1      -2.271  10.858  17.879  0.00  0.00    +0.000 A 
ATOM      3  C   UNL     1      -3.647  11.128  17.974  0.00  0.00    +0.000 A 
ATOM      4  C   UNL     1      -4.211  11.920  19.002  0.00  0.00    +0.000 A 
ATOM      5  C   UNL     1      -3.351  12.457  19.974  0.00  0.00    +0.000 A 
ATOM      6  C   UNL     1      -1.961  12.274  19.805  0.00  0.00    +0.000 A 
ATOM      7  C   UNL     1      -1.409  11.442  18.815  0.00  0.00    +0.000 A 
ATOM      8  C   UNL     1      -3.855  13.229  21.200  0.00  0.00    +0.000 C 
ATOM      9  C   UNL     1      -3.476  14.717  21.048  0.00  0.00    +0.000 C 
ATOM     10  C   UNL     1      -3.217  12.693  22.506  0.00  0.00    +0.000 C 
ATOM     11  C   UNL     1      -5.383  13.081  21.380  0.00  0.00    +0.000 C 
ATOM     12  C   UNL     1      -6.134  13.217  20.067  0.00  0.00    +0.000 C 
ATOM     13  C   UNL     1      -5.728  12.133  19.040  0.00  0.00    +0.000 C 
ATOM     14  C   UNL     1      -6.261  12.617  17.671  0.00  0.00    +0.000 C 
ATOM     15  C   UNL     1      -6.406  10.791  19.389  0.00  0.00    +0.000 C 
ENDROOT
BRANCH   7  16
ATOM     16  C   UNL     1       0.080  11.224  18.784  0.00  0.00    +0.000 C 
ATOM     17  O   UNL     1       0.851  12.170  18.651  0.00  0.00    +0.000 OA
BRANCH  16  18
ATOM     18  C   UNL     1       0.673   9.875  19.000  0.00  0.00    +0.000 A 
ATOM     19  C   UNL     1       1.356   9.267  17.939  0.00  0.00    +0.000 A 
ATOM     20  C   UNL     1       2.072   8.083  18.155  0.00  0.00    +0.000 A 
ATOM     21  C   UNL     1       2.113   7.494  19.427  0.00  0.00    +0.000 A 
ATOM     22  C   UNL     1       1.378   8.068  20.470  0.00  0.00    +0.000 A 
ATOM     23  C   UNL     1       0.637   9.225  20.236  0.00  0.00    +0.000 A 
ATOM     24  F   UNL     1      -0.072   9.725  21.259  0.00  0.00    +0.000 F 
BRANCH  21  25
ATOM     25  C   UNL     1       3.016   6.332  19.632  0.00  0.00    +0.000 C 
ATOM     26  O   UNL     1       3.929   6.076  18.866  0.00  0.00    +0.000 OA
BRANCH  25  27
ATOM     27  O   UNL     1       2.749   5.589  20.725  0.00  0.00    +0.000 OA
ATOM     28  H   UNL     1       2.864   4.625  20.634  0.00  0.00    +0.000 HD
ENDBRANCH  25  27
ENDBRANCH  21  25
ENDBRANCH  16  18
ENDBRANCH   7  16
TORSDOF 4
ENDMDL
MODEL 2
REMARK VINA RESULT:      -7.6      1.027      1.498
REMARK  Name = 
REMARK  9 active torsions:
REMARK  status: ('A' for Active; 'I' for Inactive)
REMARK    1  A    between atoms: C_1  and  C_2
REMARK    2  A    between atoms: C_7  and  C_8
REMARK    3  A    between atoms: C_8  and  C_10
REMARK    4  A    between atoms: C_13  and  C_14
REMARK    5  A    between atoms: C_14  and  O_16
REMARK    6  A    between atoms: C_20  and  C_21
REMARK    7  A    between atoms: C_20  and  C_22
REMARK    8  A    between atoms: C_25  and  C_26
REMARK    9  A    between atoms: C_25  and  C_27
REMARK                            x       y       z     vdW  Elec       q    Type
REMARK                         _______ _______ _______ _____ _____    ______ ____
ROOT
ATOM      1  C   UNL     1      -1.719   9.951  16.879  0.00  0.00    +0.000 C 
ATOM      2  C   UNL     1      -2.307  10.816  17.961  0.00  0.00    +0.000 A 
ATOM      3  C   UNL     1      -3.704  10.969  17.992  0.00  0.00    +0.000 A 
ATOM      4  C   UNL     1      -4.376  11.744  18.966  0.00  0.00    +0.000 A 
ATOM      5  C   UNL     1      -3.607  12.387  19.950  0.00  0.00    +0.000 A 
ATOM      6  C   UNL     1      -2.201  12.320  19.842  0.00  0.00    +0.000 A 
ATOM      7  C   UNL     1      -1.538  11.505  18.907  0.00  0.00    +0.000 A 
ATOM      8  C   UNL     1      -4.227  13.154  21.125  0.00  0.00    +0.000 C 
ATOM      9  C   UNL     1      -3.970  14.664  20.932  0.00  0.00    +0.000 C 
ATOM     10  C   UNL     1      -3.601  12.721  22.475  0.00  0.00    +0.000 C 
ATOM     11  C   UNL     1      -5.742  12.880  21.251  0.00  0.00    +0.000 C 
ATOM     12  C   UNL     1      -6.446  12.905  19.905  0.00  0.00    +0.000 C 
ATOM     13  C   UNL     1      -5.906  11.826  18.936  0.00  0.00    +0.000 C 
ATOM     14  C   UNL     1      -6.420  12.214  17.530  0.00  0.00    +0.000 C 
ATOM     15  C   UNL     1      -6.481  10.443  19.309  0.00  0.00    +0.000 C 
ENDROOT
BRANCH   7  16
ATOM     16  C   UNL     1      -0.036  11.416  18.943  0.00  0.00    +0.000 C 
ATOM     17  O   UNL     1       0.657  12.401  18.706  0.00  0.00    +0.000 OA
BRANCH  16  18
ATOM     18  C   UNL     1       0.659  10.163  19.349  0.00  0.00    +0.000 A 
ATOM     19  C   UNL     1       0.351   9.599  20.594  0.00  0.00    +0.000 A 
ATOM     20  C   UNL     1       0.852   8.337  20.934  0.00  0.00    +0.000 A 
ATOM     21  C   UNL     1       1.664   7.626  20.039  0.00  0.00    +0.000 A 
ATOM     22  C   UNL     1       2.023   8.217  18.823  0.00  0.00    +0.000 A 
ATOM     23  C   UNL     1       1.552   9.491  18.510  0.00  0.00    +0.000 A 
ATOM     24  F   UNL     1       1.942  10.028  17.345  0.00  0.00    +0.000 F 
BRANCH  21  25
ATOM     25  C   UNL     1       2.033   6.229  20.386  0.00  0.00    +0.000 C 
ATOM     26  O   UNL     1       1.231   5.445  20.863  0.00  0.00    +0.000 OA
BRANCH  25  27
ATOM     27  O   UNL     1       3.315   5.898  20.133  0.00  0.00    +0.000 OA
ATOM     28  H   UNL     1       3.998   6.421  20.593  0.00  0.00    +0.000 HD
ENDBRANCH  25  27
ENDBRANCH  21  25
ENDBRANCH  16  18
ENDBRANCH   7  16
TORSDOF 4
ENDMDL
MODEL 3
REMARK VINA RESULT:      -7.3      1.001      1.160
REMARK  Name = 
REMARK  9 active torsions:
REMARK  status: ('A' for Active; 'I' for Inactive)
REMARK    1  A    between atoms: C_1  and  C_2
REMARK    2  A    between atoms: C_7  and  C_8
REMARK    3  A    between atoms: C_8  and  C_10
REMARK    4  A    between atoms: C_13  and  C_14
REMARK    5  A    between atoms: C_14  and  O_16
REMARK    6  A    between atoms: C_20  and  C_21
REMARK    7  A    between atoms: C_20  and  C_22
REMARK    8  A    between atoms: C_25  and  C_26
REMARK    9  A    between atoms: C_25  and  C_27
REMARK                            x       y       z     vdW  Elec       q    Type
REMARK                         _______ _______ _______ _____ _____    ______ ____
ROOT
ATOM      1  C   UNL     1      -2.814  11.115  17.001  0.00  0.00    +0.000 C 
ATOM      2  C   UNL     1      -3.080  11.684  18.369  0.00  0.00    +0.000 A 
ATOM      3  C   UNL     1      -4.418  11.904  18.739  0.00  0.00    +0.000 A 
ATOM      4  C   UNL     1      -4.797  12.421  20.000  0.00  0.00    +0.000 A 
ATOM      5  C   UNL     1      -3.784  12.724  20.925  0.00  0.00    +0.000 A 
ATOM      6  C   UNL     1      -2.442  12.607  20.503  0.00  0.00    +0.000 A 
ATOM      7  C   UNL     1      -2.070  12.042  19.270  0.00  0.00    +0.000 A 
ATOM      8  C   UNL     1      -4.075  13.176  22.362  0.00  0.00    +0.000 C 
ATOM      9  C   UNL     1      -3.689  14.663  22.510  0.00  0.00    +0.000 C 
ATOM     10  C   UNL     1      -3.254  12.355  23.388  0.00  0.00    +0.000 C 
ATOM     11  C   UNL     1      -5.559  12.967  22.738  0.00  0.00    +0.000 C 
ATOM     12  C   UNL     1      -6.501  13.400  21.629  0.00  0.00    +0.000 C 
ATOM     13  C   UNL     1      -6.284  12.597  20.324  0.00  0.00    +0.000 C 
ATOM     14  C   UNL     1      -7.012  13.384  19.208  0.00  0.00    +0.000 C 
ATOM     15  C   UNL     1      -6.931  11.200  20.447  0.00  0.00    +0.000 C 
ENDROOT
BRANCH   7  16
ATOM     16  C   UNL     1      -0.609  11.859  18.957  0.00  0.00    +0.000 C 
ATOM     17  O   UNL     1       0.092  12.818  18.648  0.00  0.00    +0.000 OA
BRANCH  16  18
ATOM     18  C   UNL     1       0.056  10.533  19.093  0.00  0.00    +0.000 A 
ATOM     19  C   UNL     1       0.610   9.942  17.950  0.00  0.00    +0.000 A 
ATOM     20  C   UNL     1       1.391   8.786  18.069  0.00  0.00    +0.000 A 
ATOM     21  C   UNL     1       1.624   8.207  19.325  0.00  0.00    +0.000 A 
ATOM     22  C   UNL     1       1.017   8.762  20.457  0.00  0.00    +0.000 A 
ATOM     23  C   UNL     1       0.210   9.891  20.323  0.00  0.00    +0.000 A 
ATOM     24  F   UNL     1      -0.371  10.372  21.432  0.00  0.00    +0.000 F 
BRANCH  21  25
ATOM     25  C   UNL     1       2.587   7.078  19.408  0.00  0.00    +0.000 C 
ATOM     26  O   UNL     1       3.317   6.778  18.479  0.00  0.00    +0.000 OA
BRANCH  25  27
ATOM     27  O   UNL     1       2.592   6.419  20.584  0.00  0.00    +0.000 OA
ATOM     28  H   UNL     1       2.887   5.490  20.560  0.00  0.00    +0.000 HD
ENDBRANCH  25  27
ENDBRANCH  21  25
ENDBRANCH  16  18
ENDBRANCH   7  16
TORSDOF 4
ENDMDL
MODEL 4
REMARK VINA RESULT:      -7.1      3.487      9.754
REMARK  Name = 
REMARK  9 active torsions:
REMARK  status: ('A' for Active; 'I' for Inactive)
REMARK    1  A    between atoms: C_1  and  C_2
REMARK    2  A    between atoms: C_7  and  C_8
REMARK    3  A    between atoms: C_8  and  C_10
REMARK    4  A    between atoms: C_13  and  C_14
REMARK    5  A    between atoms: C_14  and  O_16
REMARK    6  A    between atoms: C_20  and  C_21
REMARK    7  A    between atoms: C_20  and  C_22
REMARK    8  A    between atoms: C_25  and  C_26
REMARK    9  A    between atoms: C_25  and  C_27
REMARK                            x       y       z     vdW  Elec       q    Type
REMARK                         _______ _______ _______ _____ _____    ______ ____
ROOT
ATOM      1  C   UNL     1       1.225   4.499  17.821  0.00  0.00    +0.000 C 
ATOM      2  C   UNL     1       2.658   4.958  17.825  0.00  0.00    +0.000 A 
ATOM      3  C   UNL     1       3.536   4.378  16.893  0.00  0.00    +0.000 A 
ATOM      4  C   UNL     1       4.902   4.734  16.789  0.00  0.00    +0.000 A 
ATOM      5  C   UNL     1       5.398   5.718  17.658  0.00  0.00    +0.000 A 
ATOM      6  C   UNL     1       4.539   6.212  18.664  0.00  0.00    +0.000 A 
ATOM      7  C   UNL     1       3.171   5.897  18.729  0.00  0.00    +0.000 A 
ATOM      8  C   UNL     1       6.825   6.273  17.562  0.00  0.00    +0.000 C 
ATOM      9  C   UNL     1       7.640   5.781  18.778  0.00  0.00    +0.000 C 
ATOM     10  C   UNL     1       6.830   7.823  17.566  0.00  0.00    +0.000 C 
ATOM     11  C   UNL     1       7.517   5.848  16.247  0.00  0.00    +0.000 C 
ATOM     12  C   UNL     1       7.274   4.386  15.914  0.00  0.00    +0.000 C 
ATOM     13  C   UNL     1       5.772   4.067  15.719  0.00  0.00    +0.000 C 
ATOM     14  C   UNL     1       5.649   2.526  15.775  0.00  0.00    +0.000 C 
ATOM     15  C   UNL     1       5.304   4.551  14.330  0.00  0.00    +0.000 C 
ENDROOT
BRANCH   7  16
ATOM     16  C   UNL     1       2.312   6.560  19.774  0.00  0.00    +0.000 C 
ATOM     17  O   UNL     1       2.076   6.000  20.840  0.00  0.00    +0.000 OA
BRANCH  16  18
ATOM     18  C   UNL     1       1.794   7.944  19.590  0.00  0.00    +0.000 A 
ATOM     19  C   UNL     1       1.803   8.496  18.302  0.00  0.00    +0.000 A 
ATOM     20  C   UNL     1       1.168   9.721  18.063  0.00  0.00    +0.000 A 
ATOM     21  C   UNL     1       0.521  10.406  19.101  0.00  0.00    +0.000 A 
ATOM     22  C   UNL     1       0.568   9.884  20.398  0.00  0.00    +0.000 A 
ATOM     23  C   UNL     1       1.236   8.684  20.635  0.00  0.00    +0.000 A 
ATOM     24  F   UNL     1       1.276   8.235  21.898  0.00  0.00    +0.000 F 
BRANCH  21  25
ATOM     25  C   UNL     1      -0.270  11.616  18.756  0.00  0.00    +0.000 C 
ATOM     26  O   UNL     1      -0.236  12.629  19.434  0.00  0.00    +0.000 OA
BRANCH  25  27
ATOM     27  O   UNL     1      -1.021  11.507  17.642  0.00  0.00    +0.000 OA
ATOM     28  H   UNL     1      -0.940  12.229  16.991  0.00  0.00    +0.000 HD
ENDBRANCH  25  27
ENDBRANCH  21  25
ENDBRANCH  16  18
ENDBRANCH   7  16
TORSDOF 4
ENDMDL
MODEL 5
REMARK VINA RESULT:      -7.1      1.111      2.874
REMARK  Name = 
REMARK  9 active torsions:
REMARK  status: ('A' for Active; 'I' for Inactive)
REMARK    1  A    between atoms: C_1  and  C_2
REMARK    2  A    between atoms: C_7  and  C_8
REMARK    3  A    between atoms: C_8  and  C_10
REMARK    4  A    between atoms: C_13  and  C_14
REMARK    5  A    between atoms: C_14  and  O_16
REMARK    6  A    between atoms: C_20  and  C_21
REMARK    7  A    between atoms: C_20  and  C_22
REMARK    8  A    between atoms: C_25  and  C_26
REMARK    9  A    between atoms: C_25  and  C_27
REMARK                            x       y       z     vdW  Elec       q    Type
REMARK                         _______ _______ _______ _____ _____    ______ ____
ROOT
ATOM      1  C   UNL     1      -0.407  13.106  21.825  0.00  0.00    +0.000 C 
ATOM      2  C   UNL     1      -1.268  12.536  20.731  0.00  0.00    +0.000 A 
ATOM      3  C   UNL     1      -2.648  12.799  20.778  0.00  0.00    +0.000 A 
ATOM      4  C   UNL     1      -3.560  12.330  19.802  0.00  0.00    +0.000 A 
ATOM      5  C   UNL     1      -3.055  11.569  18.735  0.00  0.00    +0.000 A 
ATOM      6  C   UNL     1      -1.689  11.215  18.758  0.00  0.00    +0.000 A 
ATOM      7  C   UNL     1      -0.777  11.728  19.698  0.00  0.00    +0.000 A 
ATOM      8  C   UNL     1      -3.923  11.108  17.557  0.00  0.00    +0.000 C 
ATOM      9  C   UNL     1      -4.114   9.578  17.640  0.00  0.00    +0.000 C 
ATOM     10  C   UNL     1      -3.254  11.443  16.199  0.00  0.00    +0.000 C 
ATOM     11  C   UNL     1      -5.294  11.820  17.543  0.00  0.00    +0.000 C 
ATOM     12  C   UNL     1      -5.917  11.897  18.926  0.00  0.00    +0.000 C 
ATOM     13  C   UNL     1      -5.043  12.694  19.923  0.00  0.00    +0.000 C 
ATOM     14  C   UNL     1      -5.589  12.366  21.332  0.00  0.00    +0.000 C 
ATOM     15  C   UNL     1      -5.200  14.210  19.672  0.00  0.00    +0.000 C 
ENDROOT
BRANCH   7  16
ATOM     16  C   UNL     1       0.682  11.379  19.573  0.00  0.00    +0.000 C 
ATOM     17  O   UNL     1       1.547  12.240  19.702  0.00  0.00    +0.000 OA
BRANCH  16  18
ATOM     18  C   UNL     1       1.131   9.972  19.377  0.00  0.00    +0.000 A 
ATOM     19  C   UNL     1       1.663   9.606  18.134  0.00  0.00    +0.000 A 
ATOM     20  C   UNL     1       2.253   8.347  17.969  0.00  0.00    +0.000 A 
ATOM     21  C   UNL     1       2.316   7.442  19.038  0.00  0.00    +0.000 A 
ATOM     22  C   UNL     1       1.726   7.784  20.259  0.00  0.00    +0.000 A 
ATOM     23  C   UNL     1       1.108   9.024  20.403  0.00  0.00    +0.000 A 
ATOM     24  F   UNL     1       0.535   9.298  21.584  0.00  0.00    +0.000 F 
BRANCH  21  25
ATOM     25  C   UNL     1       3.092   6.188  18.849  0.00  0.00    +0.000 C 
ATOM     26  O   UNL     1       3.148   5.615  17.774  0.00  0.00    +0.000 OA
BRANCH  25  27
ATOM     27  O   UNL     1       3.727   5.740  19.950  0.00  0.00    +0.000 OA
ATOM     28  H   UNL     1       4.122   4.850  19.893  0.00  0.00    +0.000 HD
ENDBRANCH  25  27
ENDBRANCH  21  25
ENDBRANCH  16  18
ENDBRANCH   7  16
TORSDOF 4
ENDMDL
MODEL 6
REMARK VINA RESULT:      -7.0      4.453      6.866
REMARK  Name = 
REMARK  9 active torsions:
REMARK  status: ('A' for Active; 'I' for Inactive)
REMARK    1  A    between atoms: C_1  and  C_2
REMARK    2  A    between atoms: C_7  and  C_8
REMARK    3  A    between atoms: C_8  and  C_10
REMARK    4  A    between atoms: C_13  and  C_14
REMARK    5  A    between atoms: C_14  and  O_16
REMARK    6  A    between atoms: C_20  and  C_21
REMARK    7  A    between atoms: C_20  and  C_22
REMARK    8  A    between atoms: C_25  and  C_26
REMARK    9  A    between atoms: C_25  and  C_27
REMARK                            x       y       z     vdW  Elec       q    Type
REMARK                         _______ _______ _______ _____ _____    ______ ____
ROOT
ATOM      1  C   UNL     1       1.875   4.515  21.049  0.00  0.00    +0.000 C 
ATOM      2  C   UNL     1       1.644   5.865  20.425  0.00  0.00    +0.000 A 
ATOM      3  C   UNL     1       1.336   6.939  21.278  0.00  0.00    +0.000 A 
ATOM      4  C   UNL     1       1.111   8.256  20.814  0.00  0.00    +0.000 A 
ATOM      5  C   UNL     1       1.203   8.498  19.433  0.00  0.00    +0.000 A 
ATOM      6  C   UNL     1       1.400   7.394  18.577  0.00  0.00    +0.000 A 
ATOM      7  C   UNL     1       1.678   6.097  19.044  0.00  0.00    +0.000 A 
ATOM      8  C   UNL     1       1.099   9.902  18.824  0.00  0.00    +0.000 C 
ATOM      9  C   UNL     1      -0.229  10.016  18.046  0.00  0.00    +0.000 C 
ATOM     10  C   UNL     1       2.265  10.180  17.842  0.00  0.00    +0.000 C 
ATOM     11  C   UNL     1       1.182  11.003  19.905  0.00  0.00    +0.000 C 
ATOM     12  C   UNL     1       0.348  10.671  21.131  0.00  0.00    +0.000 C 
ATOM     13  C   UNL     1       0.812   9.368  21.824  0.00  0.00    +0.000 C 
ATOM     14  C   UNL     1      -0.331   8.962  22.785  0.00  0.00    +0.000 C 
ATOM     15  C   UNL     1       2.086   9.634  22.656  0.00  0.00    +0.000 C 
ENDROOT
BRANCH   7  16
ATOM     16  C   UNL     1       1.982   5.007  18.052  0.00  0.00    +0.000 C 
ATOM     17  O   UNL     1       1.117   4.202  17.718  0.00  0.00    +0.000 OA
BRANCH  16  18
ATOM     18  C   UNL     1       3.307   4.917  17.377  0.00  0.00    +0.000 A 
ATOM     19  C   UNL     1       4.018   6.101  17.138  0.00  0.00    +0.000 A 
ATOM     20  C   UNL     1       5.335   6.042  16.667  0.00  0.00    +0.000 A 
ATOM     21  C   UNL     1       5.954   4.807  16.426  0.00  0.00    +0.000 A 
ATOM     22  C   UNL     1       5.221   3.629  16.604  0.00  0.00    +0.000 A 
ATOM     23  C   UNL     1       3.898   3.698  17.037  0.00  0.00    +0.000 A 
ATOM     24  F   UNL     1       3.227   2.545  17.168  0.00  0.00    +0.000 F 
BRANCH  21  25
ATOM     25  C   UNL     1       7.399   4.803  16.081  0.00  0.00    +0.000 C 
ATOM     26  O   UNL     1       7.826   5.333  15.069  0.00  0.00    +0.000 OA
BRANCH  25  27
ATOM     27  O   UNL     1       8.196   4.175  16.969  0.00  0.00    +0.000 OA
ATOM     28  H   UNL     1       9.116   4.014  16.689  0.00  0.00    +0.000 HD
ENDBRANCH  25  27
ENDBRANCH  21  25
ENDBRANCH  16  18
ENDBRANCH   7  16
TORSDOF 4
ENDMDL
MODEL 7
REMARK VINA RESULT:      -7.0      9.612     11.695
REMARK  Name = 
REMARK  9 active torsions:
REMARK  status: ('A' for Active; 'I' for Inactive)
REMARK    1  A    between atoms: C_1  and  C_2
REMARK    2  A    between atoms: C_7  and  C_8
REMARK    3  A    between atoms: C_8  and  C_10
REMARK    4  A    between atoms: C_13  and  C_14
REMARK    5  A    between atoms: C_14  and  O_16
REMARK    6  A    between atoms: C_20  and  C_21
REMARK    7  A    between atoms: C_20  and  C_22
REMARK    8  A    between atoms: C_25  and  C_26
REMARK    9  A    between atoms: C_25  and  C_27
REMARK                            x       y       z     vdW  Elec       q    Type
REMARK                         _______ _______ _______ _____ _____    ______ ____
ROOT
ATOM      1  C   UNL     1       6.706  15.713  22.874  0.00  0.00    +0.000 C 
ATOM      2  C   UNL     1       7.542  14.719  22.115  0.00  0.00    +0.000 A 
ATOM      3  C   UNL     1       7.541  14.796  20.712  0.00  0.00    +0.000 A 
ATOM      4  C   UNL     1       8.295  13.927  19.888  0.00  0.00    +0.000 A 
ATOM      5  C   UNL     1       9.085  12.944  20.507  0.00  0.00    +0.000 A 
ATOM      6  C   UNL     1       8.991  12.803  21.909  0.00  0.00    +0.000 A 
ATOM      7  C   UNL     1       8.285  13.701  22.728  0.00  0.00    +0.000 A 
ATOM      8  C   UNL     1      10.035  12.026  19.729  0.00  0.00    +0.000 C 
ATOM      9  C   UNL     1       9.473  10.588  19.746  0.00  0.00    +0.000 C 
ATOM     10  C   UNL     1      11.448  12.005  20.367  0.00  0.00    +0.000 C 
ATOM     11  C   UNL     1      10.232  12.507  18.274  0.00  0.00    +0.000 C 
ATOM     12  C   UNL     1       8.926  12.930  17.625  0.00  0.00    +0.000 C 
ATOM     13  C   UNL     1       8.253  14.108  18.367  0.00  0.00    +0.000 C 
ATOM     14  C   UNL     1       6.796  14.168  17.849  0.00  0.00    +0.000 C 
ATOM     15  C   UNL     1       8.960  15.433  18.009  0.00  0.00    +0.000 C 
ENDROOT
BRANCH   7  16
ATOM     16  C   UNL     1       8.335  13.529  24.222  0.00  0.00    +0.000 C 
ATOM     17  O   UNL     1       9.119  14.183  24.904  0.00  0.00    +0.000 OA
BRANCH  16  18
ATOM     18  C   UNL     1       7.383  12.632  24.934  0.00  0.00    +0.000 A 
ATOM     19  C   UNL     1       7.294  12.722  26.330  0.00  0.00    +0.000 A 
ATOM     20  C   UNL     1       6.293  12.022  27.013  0.00  0.00    +0.000 A 
ATOM     21  C   UNL     1       5.374  11.226  26.315  0.00  0.00    +0.000 A 
ATOM     22  C   UNL     1       5.504  11.086  24.930  0.00  0.00    +0.000 A 
ATOM     23  C   UNL     1       6.528  11.756  24.262  0.00  0.00    +0.000 A 
ATOM     24  F   UNL     1       6.628  11.572  22.938  0.00  0.00    +0.000 F 
BRANCH  21  25
ATOM     25  C   UNL     1       4.240  10.636  27.074  0.00  0.00    +0.000 C 
ATOM     26  O   UNL     1       3.945   9.456  26.989  0.00  0.00    +0.000 OA
BRANCH  25  27
ATOM     27  O   UNL     1       3.569  11.502  27.860  0.00  0.00    +0.000 OA
ATOM     28  H   UNL     1       2.621  11.319  27.998  0.00  0.00    +0.000 HD
ENDBRANCH  25  27
ENDBRANCH  21  25
ENDBRANCH  16  18
ENDBRANCH   7  16
TORSDOF 4
ENDMDL
MODEL 8
REMARK VINA RESULT:      -7.0      4.135      9.789
REMARK  Name = 
REMARK  9 active torsions:
REMARK  status: ('A' for Active; 'I' for Inactive)
REMARK    1  A    between atoms: C_1  and  C_2
REMARK    2  A    between atoms: C_7  and  C_8
REMARK    3  A    between atoms: C_8  and  C_10
REMARK    4  A    between atoms: C_13  and  C_14
REMARK    5  A    between atoms: C_14  and  O_16
REMARK    6  A    between atoms: C_20  and  C_21
REMARK    7  A    between atoms: C_20  and  C_22
REMARK    8  A    between atoms: C_25  and  C_26
REMARK    9  A    between atoms: C_25  and  C_27
REMARK                            x       y       z     vdW  Elec       q    Type
REMARK                         _______ _______ _______ _____ _____    ______ ____
ROOT
ATOM      1  C   UNL     1       1.288   4.200  17.944  0.00  0.00    +0.000 C 
ATOM      2  C   UNL     1       2.690   4.748  17.937  0.00  0.00    +0.000 A 
ATOM      3  C   UNL     1       3.565   4.298  16.933  0.00  0.00    +0.000 A 
ATOM      4  C   UNL     1       4.902   4.747  16.813  0.00  0.00    +0.000 A 
ATOM      5  C   UNL     1       5.371   5.691  17.742  0.00  0.00    +0.000 A 
ATOM      6  C   UNL     1       4.522   6.050  18.811  0.00  0.00    +0.000 A 
ATOM      7  C   UNL     1       3.178   5.644  18.896  0.00  0.00    +0.000 A 
ATOM      8  C   UNL     1       6.757   6.340  17.643  0.00  0.00    +0.000 C 
ATOM      9  C   UNL     1       7.644   5.809  18.789  0.00  0.00    +0.000 C 
ATOM     10  C   UNL     1       6.668   7.882  17.770  0.00  0.00    +0.000 C 
ATOM     11  C   UNL     1       7.423   6.063  16.277  0.00  0.00    +0.000 C 
ATOM     12  C   UNL     1       7.257   4.618  15.837  0.00  0.00    +0.000 C 
ATOM     13  C   UNL     1       5.771   4.221  15.667  0.00  0.00    +0.000 C 
ATOM     14  C   UNL     1       5.743   2.676  15.603  0.00  0.00    +0.000 C 
ATOM     15  C   UNL     1       5.222   4.780  14.336  0.00  0.00    +0.000 C 
ENDROOT
BRANCH   7  16
ATOM     16  C   UNL     1       2.321   6.169  20.017  0.00  0.00    +0.000 C 
ATOM     17  O   UNL     1       2.132   5.501  21.029  0.00  0.00    +0.000 OA
BRANCH  16  18
ATOM     18  C   UNL     1       1.746   7.542  19.978  0.00  0.00    +0.000 A 
ATOM     19  C   UNL     1       1.227   8.084  21.162  0.00  0.00    +0.000 A 
ATOM     20  C   UNL     1       0.839   9.428  21.205  0.00  0.00    +0.000 A 
ATOM     21  C   UNL     1       0.962  10.244  20.070  0.00  0.00    +0.000 A 
ATOM     22  C   UNL     1       1.419   9.685  18.872  0.00  0.00    +0.000 A 
ATOM     23  C   UNL     1       1.767   8.336  18.829  0.00  0.00    +0.000 A 
ATOM     24  F   UNL     1       2.176   7.838  17.654  0.00  0.00    +0.000 F 
BRANCH  21  25
ATOM     25  C   UNL     1       0.685  11.697  20.219  0.00  0.00    +0.000 C 
ATOM     26  O   UNL     1      -0.161  12.268  19.553  0.00  0.00    +0.000 OA
BRANCH  25  27
ATOM     27  O   UNL     1       1.437  12.328  21.143  0.00  0.00    +0.000 OA
ATOM     28  H   UNL     1       2.350  12.005  21.256  0.00  0.00    +0.000 HD
ENDBRANCH  25  27
ENDBRANCH  21  25
ENDBRANCH  16  18
ENDBRANCH   7  16
TORSDOF 4
ENDMDL
MODEL 9
REMARK VINA RESULT:      -7.0      4.263      6.873
REMARK  Name = 
REMARK  9 active torsions:
REMARK  status: ('A' for Active; 'I' for Inactive)
REMARK    1  A    between atoms: C_1  and  C_2
REMARK    2  A    between atoms: C_7  and  C_8
REMARK    3  A    between atoms: C_8  and  C_10
REMARK    4  A    between atoms: C_13  and  C_14
REMARK    5  A    between atoms: C_14  and  O_16
REMARK    6  A    between atoms: C_20  and  C_21
REMARK    7  A    between atoms: C_20  and  C_22
REMARK    8  A    between atoms: C_25  and  C_26
REMARK    9  A    between atoms: C_25  and  C_27
REMARK                            x       y       z     vdW  Elec       q    Type
REMARK                         _______ _______ _______ _____ _____    ______ ____
ROOT
ATOM      1  C   UNL     1       2.101   4.554  20.979  0.00  0.00    +0.000 C 
ATOM      2  C   UNL     1       1.817   5.899  20.366  0.00  0.00    +0.000 A 
ATOM      3  C   UNL     1       1.463   6.952  21.228  0.00  0.00    +0.000 A 
ATOM      4  C   UNL     1       1.185   8.263  20.774  0.00  0.00    +0.000 A 
ATOM      5  C   UNL     1       1.273   8.521  19.397  0.00  0.00    +0.000 A 
ATOM      6  C   UNL     1       1.518   7.434  18.531  0.00  0.00    +0.000 A 
ATOM      7  C   UNL     1       1.847   6.145  18.988  0.00  0.00    +0.000 A 
ATOM      8  C   UNL     1       1.113   9.925  18.800  0.00  0.00    +0.000 C 
ATOM      9  C   UNL     1      -0.216   9.991  18.017  0.00  0.00    +0.000 C 
ATOM     10  C   UNL     1       2.271  10.259  17.825  0.00  0.00    +0.000 C 
ATOM     11  C   UNL     1       1.147  11.019  19.891  0.00  0.00    +0.000 C 
ATOM     12  C   UNL     1       0.323  10.642  21.110  0.00  0.00    +0.000 C 
ATOM     13  C   UNL     1       0.837   9.352  21.794  0.00  0.00    +0.000 C 
ATOM     14  C   UNL     1      -0.292   8.891  22.746  0.00  0.00    +0.000 C 
ATOM     15  C   UNL     1       2.096   9.663  22.633  0.00  0.00    +0.000 C 
ENDROOT
BRANCH   7  16
ATOM     16  C   UNL     1       2.199   5.078  17.987  0.00  0.00    +0.000 C 
ATOM     17  O   UNL     1       1.377   4.226  17.661  0.00  0.00    +0.000 OA
BRANCH  16  18
ATOM     18  C   UNL     1       3.517   5.066  17.293  0.00  0.00    +0.000 A 
ATOM     19  C   UNL     1       4.091   3.830  16.967  0.00  0.00    +0.000 A 
ATOM     20  C   UNL     1       5.238   3.782  16.165  0.00  0.00    +0.000 A 
ATOM     21  C   UNL     1       5.824   4.961  15.684  0.00  0.00    +0.000 A 
ATOM     22  C   UNL     1       5.287   6.196  16.064  0.00  0.00    +0.000 A 
ATOM     23  C   UNL     1       4.168   6.236  16.894  0.00  0.00    +0.000 A 
ATOM     24  F   UNL     1       3.704   7.441  17.252  0.00  0.00    +0.000 F 
BRANCH  21  25
ATOM     25  C   UNL     1       6.941   4.842  14.710  0.00  0.00    +0.000 C 
ATOM     26  O   UNL     1       7.881   5.618  14.703  0.00  0.00    +0.000 OA
BRANCH  25  27
ATOM     27  O   UNL     1       6.834   3.814  13.844  0.00  0.00    +0.000 OA
ATOM     28  H   UNL     1       6.310   3.047  14.142  0.00  0.00    +0.000 HD
ENDBRANCH  25  27
ENDBRANCH  21  25
ENDBRANCH  16  18
ENDBRANCH   7  16
TORSDOF 4
ENDMDL
