MODEL 1
REMARK VINA RESULT:      -8.6      0.000      0.000
REMARK  Name = 
REMARK  6 active torsions:
REMARK  status: ('A' for Active; 'I' for Inactive)
REMARK    1  A    between atoms: C_1  and  C_2
REMARK    2  A    between atoms: C_2  and  C_3
REMARK    3  A    between atoms: C_2  and  C_4
REMARK    4  A    between atoms: N_9  and  C_10
REMARK    5  A    between atoms: N_9  and  S_11
REMARK    6  A    between atoms: S_11  and  C_14
REMARK                            x       y       z     vdW  Elec       q    Type
REMARK                         _______ _______ _______ _____ _____    ______ ____
ROOT
ATOM      1  C   UNL     1       1.932   7.847  19.292  0.00  0.00    +0.000 A 
ATOM      2  N   UNL     1       2.345   8.693  18.360  0.00  0.00    +0.000 NA
ATOM      3  N   UNL     1       3.299   8.088  17.595  0.00  0.00    +0.000 NA
ATOM      4  C   UNL     1       3.454   6.868  18.056  0.00  0.00    +0.000 A 
ATOM      5  C   UNL     1       4.352   5.849  17.587  0.00  0.00    +0.000 A 
ATOM      6  N   UNL     1       5.173   6.101  16.457  0.00  0.00    +0.000 N 
ATOM      7  C   UNL     1       4.886   7.095  15.407  0.00  0.00    +0.000 C 
ATOM      8  N   UNL     1       4.400   4.701  18.182  0.00  0.00    +0.000 NA
ATOM      9  C   UNL     1       3.559   4.456  19.282  0.00  0.00    +0.000 A 
ATOM     10  C   UNL     1       3.640   3.189  19.867  0.00  0.00    +0.000 A 
ATOM     11  C   UNL     1       2.837   2.858  20.954  0.00  0.00    +0.000 A 
ATOM     12  C   UNL     1       1.950   3.799  21.471  0.00  0.00    +0.000 A 
ATOM     13  C   UNL     1       1.857   5.076  20.905  0.00  0.00    +0.000 A 
ATOM     14  C   UNL     1       2.652   5.406  19.806  0.00  0.00    +0.000 A 
ATOM     15  N   UNL     1       2.628   6.655  19.140  0.00  0.00    +0.000 N 
ENDROOT
BRANCH   1  17
ATOM     16  C   UNL     1       1.599   8.525  21.660  0.00  0.00    +0.000 C 
ATOM     17  C   UNL     1       0.912   8.214  20.330  0.00  0.00    +0.000 C 
ATOM     18  C   UNL     1       0.085   9.431  19.889  0.00  0.00    +0.000 C 
ENDBRANCH   1  17
BRANCH   6  19
ATOM     19  S   UNL     1       6.663   5.298  16.293  0.00  0.00    +0.000 S 
ATOM     20  O   UNL     1       7.743   6.257  16.432  0.00  0.00    +0.000 OA
ATOM     21  O   UNL     1       6.632   4.110  17.125  0.00  0.00    +0.000 OA
BRANCH  19  22
ATOM     22  C   UNL     1       6.674   4.780  14.588  0.00  0.00    +0.000 A 
ATOM     23  C   UNL     1       5.728   3.851  14.144  0.00  0.00    +0.000 A 
ATOM     24  C   UNL     1       5.766   3.416  12.818  0.00  0.00    +0.000 A 
ATOM     25  C   UNL     1       6.730   3.920  11.942  0.00  0.00    +0.000 A 
ATOM     26  C   UNL     1       7.649   4.873  12.382  0.00  0.00    +0.000 A 
ATOM     27  C   UNL     1       7.623   5.308  13.707  0.00  0.00    +0.000 A 
ENDBRANCH  19  22
ENDBRANCH   6  19
TORSDOF 3
ENDMDL
MODEL 2
REMARK VINA RESULT:      -7.7      7.799     10.544
REMARK  Name = 
REMARK  6 active torsions:
REMARK  status: ('A' for Active; 'I' for Inactive)
REMARK    1  A    between atoms: C_1  and  C_2
REMARK    2  A    between atoms: C_2  and  C_3
REMARK    3  A    between atoms: C_2  and  C_4
REMARK    4  A    between atoms: N_9  and  C_10
REMARK    5  A    between atoms: N_9  and  S_11
REMARK    6  A    between atoms: S_11  and  C_14
REMARK                            x       y       z     vdW  Elec       q    Type
REMARK                         _______ _______ _______ _____ _____    ______ ____
ROOT
ATOM      1  C   UNL     1      -5.662  12.310  19.934  0.00  0.00    +0.000 A 
ATOM      2  N   UNL     1      -5.517  12.921  21.100  0.00  0.00    +0.000 NA
ATOM      3  N   UNL     1      -4.197  13.205  21.298  0.00  0.00    +0.000 NA
ATOM      4  C   UNL     1      -3.544  12.777  20.242  0.00  0.00    +0.000 A 
ATOM      5  C   UNL     1      -2.131  12.840  19.987  0.00  0.00    +0.000 A 
ATOM      6  N   UNL     1      -1.274  13.472  20.926  0.00  0.00    +0.000 N 
ATOM      7  C   UNL     1      -1.694  14.494  21.901  0.00  0.00    +0.000 C 
ATOM      8  N   UNL     1      -1.644  12.338  18.899  0.00  0.00    +0.000 NA
ATOM      9  C   UNL     1      -2.509  11.743  17.964  0.00  0.00    +0.000 A 
ATOM     10  C   UNL     1      -1.926  11.240  16.797  0.00  0.00    +0.000 A 
ATOM     11  C   UNL     1      -2.709  10.642  15.814  0.00  0.00    +0.000 A 
ATOM     12  C   UNL     1      -4.085  10.535  15.997  0.00  0.00    +0.000 A 
ATOM     13  C   UNL     1      -4.690  11.025  17.161  0.00  0.00    +0.000 A 
ATOM     14  C   UNL     1      -3.908  11.637  18.142  0.00  0.00    +0.000 A 
ATOM     15  N   UNL     1      -4.410  12.188  19.346  0.00  0.00    +0.000 N 
ENDROOT
BRANCH   1  17
ATOM     16  C   UNL     1      -7.750  11.108  20.548  0.00  0.00    +0.000 C 
ATOM     17  C   UNL     1      -6.989  11.822  19.430  0.00  0.00    +0.000 C 
ATOM     18  C   UNL     1      -7.841  12.984  18.898  0.00  0.00    +0.000 C 
ENDBRANCH   1  17
BRANCH   6  19
ATOM     19  S   UNL     1       0.352  12.988  21.053  0.00  0.00    +0.000 S 
ATOM     20  O   UNL     1       0.982  13.078  19.750  0.00  0.00    +0.000 OA
ATOM     21  O   UNL     1       0.937  13.664  22.195  0.00  0.00    +0.000 OA
BRANCH  19  22
ATOM     22  C   UNL     1       0.242  11.251  21.434  0.00  0.00    +0.000 A 
ATOM     23  C   UNL     1       0.841  10.320  20.580  0.00  0.00    +0.000 A 
ATOM     24  C   UNL     1       0.717   8.957  20.859  0.00  0.00    +0.000 A 
ATOM     25  C   UNL     1       0.017   8.534  21.990  0.00  0.00    +0.000 A 
ATOM     26  C   UNL     1      -0.548   9.470  22.858  0.00  0.00    +0.000 A 
ATOM     27  C   UNL     1      -0.436  10.832  22.583  0.00  0.00    +0.000 A 
ENDBRANCH  19  22
ENDBRANCH   6  19
TORSDOF 3
ENDMDL
MODEL 3
REMARK VINA RESULT:      -7.3      7.341     12.082
REMARK  Name = 
REMARK  6 active torsions:
REMARK  status: ('A' for Active; 'I' for Inactive)
REMARK    1  A    between atoms: C_1  and  C_2
REMARK    2  A    between atoms: C_2  and  C_3
REMARK    3  A    between atoms: C_2  and  C_4
REMARK    4  A    between atoms: N_9  and  C_10
REMARK    5  A    between atoms: N_9  and  S_11
REMARK    6  A    between atoms: S_11  and  C_14
REMARK                            x       y       z     vdW  Elec       q    Type
REMARK                         _______ _______ _______ _____ _____    ______ ____
ROOT
ATOM      1  C   UNL     1       0.308  10.102  19.487  0.00  0.00    +0.000 A 
ATOM      2  N   UNL     1       0.711  10.414  20.709  0.00  0.00    +0.000 NA
ATOM      3  N   UNL     1      -0.249  11.166  21.321  0.00  0.00    +0.000 NA
ATOM      4  C   UNL     1      -1.241  11.298  20.472  0.00  0.00    +0.000 A 
ATOM      5  C   UNL     1      -2.475  12.013  20.652  0.00  0.00    +0.000 A 
ATOM      6  N   UNL     1      -2.748  12.642  21.895  0.00  0.00    +0.000 N 
ATOM      7  C   UNL     1      -2.150  12.259  23.187  0.00  0.00    +0.000 C 
ATOM      8  N   UNL     1      -3.340  12.069  19.692  0.00  0.00    +0.000 NA
ATOM      9  C   UNL     1      -3.069  11.416  18.477  0.00  0.00    +0.000 A 
ATOM     10  C   UNL     1      -4.053  11.493  17.487  0.00  0.00    +0.000 A 
ATOM     11  C   UNL     1      -3.871  10.867  16.257  0.00  0.00    +0.000 A 
ATOM     12  C   UNL     1      -2.695  10.165  16.006  0.00  0.00    +0.000 A 
ATOM     13  C   UNL     1      -1.693  10.081  16.980  0.00  0.00    +0.000 A 
ATOM     14  C   UNL     1      -1.879  10.696  18.219  0.00  0.00    +0.000 A 
ATOM     15  N   UNL     1      -0.948  10.660  19.286  0.00  0.00    +0.000 N 
ENDROOT
BRANCH   1  17
ATOM     16  C   UNL     1       2.149  10.230  17.822  0.00  0.00    +0.000 C 
ATOM     17  C   UNL     1       1.151   9.312  18.528  0.00  0.00    +0.000 C 
ATOM     18  C   UNL     1       1.914   8.193  19.252  0.00  0.00    +0.000 C 
ENDBRANCH   1  17
BRANCH   6  19
ATOM     19  S   UNL     1      -3.758  14.009  21.952  0.00  0.00    +0.000 S 
ATOM     20  O   UNL     1      -3.341  14.868  23.044  0.00  0.00    +0.000 OA
ATOM     21  O   UNL     1      -3.876  14.542  20.609  0.00  0.00    +0.000 OA
BRANCH  19  22
ATOM     22  C   UNL     1      -5.341  13.340  22.424  0.00  0.00    +0.000 A 
ATOM     23  C   UNL     1      -6.142  12.722  21.459  0.00  0.00    +0.000 A 
ATOM     24  C   UNL     1      -7.400  12.236  21.823  0.00  0.00    +0.000 A 
ATOM     25  C   UNL     1      -7.842  12.353  23.142  0.00  0.00    +0.000 A 
ATOM     26  C   UNL     1      -7.023  12.939  24.108  0.00  0.00    +0.000 A 
ATOM     27  C   UNL     1      -5.768  13.434  23.752  0.00  0.00    +0.000 A 
ENDBRANCH  19  22
ENDBRANCH   6  19
TORSDOF 3
ENDMDL
MODEL 4
REMARK VINA RESULT:      -7.0      8.702     10.569
REMARK  Name = 
REMARK  6 active torsions:
REMARK  status: ('A' for Active; 'I' for Inactive)
REMARK    1  A    between atoms: C_1  and  C_2
REMARK    2  A    between atoms: C_2  and  C_3
REMARK    3  A    between atoms: C_2  and  C_4
REMARK    4  A    between atoms: N_9  and  C_10
REMARK    5  A    between atoms: N_9  and  S_11
REMARK    6  A    between atoms: S_11  and  C_14
REMARK                            x       y       z     vdW  Elec       q    Type
REMARK                         _______ _______ _______ _____ _____    ______ ____
ROOT
ATOM      1  C   UNL     1      -5.414  12.533  20.030  0.00  0.00    +0.000 A 
ATOM      2  N   UNL     1      -5.412  13.435  20.999  0.00  0.00    +0.000 NA
ATOM      3  N   UNL     1      -4.127  13.813  21.260  0.00  0.00    +0.000 NA
ATOM      4  C   UNL     1      -3.350  13.147  20.437  0.00  0.00    +0.000 A 
ATOM      5  C   UNL     1      -1.917  13.195  20.334  0.00  0.00    +0.000 A 
ATOM      6  N   UNL     1      -1.182  14.085  21.160  0.00  0.00    +0.000 N 
ATOM      7  C   UNL     1      -1.723  15.312  21.775  0.00  0.00    +0.000 C 
ATOM      8  N   UNL     1      -1.302  12.443  19.480  0.00  0.00    +0.000 NA
ATOM      9  C   UNL     1      -2.046  11.589  18.648  0.00  0.00    +0.000 A 
ATOM     10  C   UNL     1      -1.325  10.819  17.730  0.00  0.00    +0.000 A 
ATOM     11  C   UNL     1      -1.982   9.953  16.861  0.00  0.00    +0.000 A 
ATOM     12  C   UNL     1      -3.369   9.845  16.910  0.00  0.00    +0.000 A 
ATOM     13  C   UNL     1      -4.111  10.601  17.826  0.00  0.00    +0.000 A 
ATOM     14  C   UNL     1      -3.455  11.480  18.690  0.00  0.00    +0.000 A 
ATOM     15  N   UNL     1      -4.100  12.309  19.640  0.00  0.00    +0.000 N 
ENDROOT
BRANCH   1  17
ATOM     16  C   UNL     1      -7.548  11.452  20.704  0.00  0.00    +0.000 C 
ATOM     17  C   UNL     1      -6.668  11.879  19.528  0.00  0.00    +0.000 C 
ATOM     18  C   UNL     1      -7.462  12.827  18.618  0.00  0.00    +0.000 C 
ENDBRANCH   1  17
BRANCH   6  19
ATOM     19  S   UNL     1       0.420  13.715  21.593  0.00  0.00    +0.000 S 
ATOM     20  O   UNL     1       0.853  14.617  22.644  0.00  0.00    +0.000 OA
ATOM     21  O   UNL     1       0.520  12.280  21.776  0.00  0.00    +0.000 OA
BRANCH  19  22
ATOM     22  C   UNL     1       1.358  14.156  20.143  0.00  0.00    +0.000 A 
ATOM     23  C   UNL     1       2.161  13.194  19.524  0.00  0.00    +0.000 A 
ATOM     24  C   UNL     1       2.927  13.553  18.413  0.00  0.00    +0.000 A 
ATOM     25  C   UNL     1       2.873  14.858  17.917  0.00  0.00    +0.000 A 
ATOM     26  C   UNL     1       2.042  15.804  18.519  0.00  0.00    +0.000 A 
ATOM     27  C   UNL     1       1.280  15.455  19.634  0.00  0.00    +0.000 A 
ENDBRANCH  19  22
ENDBRANCH   6  19
TORSDOF 3
ENDMDL
MODEL 5
REMARK VINA RESULT:      -7.0      3.712      5.754
REMARK  Name = 
REMARK  6 active torsions:
REMARK  status: ('A' for Active; 'I' for Inactive)
REMARK    1  A    between atoms: C_1  and  C_2
REMARK    2  A    between atoms: C_2  and  C_3
REMARK    3  A    between atoms: C_2  and  C_4
REMARK    4  A    between atoms: N_9  and  C_10
REMARK    5  A    between atoms: N_9  and  S_11
REMARK    6  A    between atoms: S_11  and  C_14
REMARK                            x       y       z     vdW  Elec       q    Type
REMARK                         _______ _______ _______ _____ _____    ______ ____
ROOT
ATOM      1  C   UNL     1       1.397  11.327  18.641  0.00  0.00    +0.000 A 
ATOM      2  N   UNL     1       2.087  10.826  17.628  0.00  0.00    +0.000 NA
ATOM      3  N   UNL     1       2.338   9.506  17.864  0.00  0.00    +0.000 NA
ATOM      4  C   UNL     1       1.787   9.204  19.017  0.00  0.00    +0.000 A 
ATOM      5  C   UNL     1       1.790   7.938  19.698  0.00  0.00    +0.000 A 
ATOM      6  N   UNL     1       2.403   6.812  19.088  0.00  0.00    +0.000 N 
ATOM      7  C   UNL     1       2.622   6.649  17.639  0.00  0.00    +0.000 C 
ATOM      8  N   UNL     1       1.220   7.821  20.853  0.00  0.00    +0.000 NA
ATOM      9  C   UNL     1       0.590   8.937  21.431  0.00  0.00    +0.000 A 
ATOM     10  C   UNL     1      -0.028   8.741  22.670  0.00  0.00    +0.000 A 
ATOM     11  C   UNL     1      -0.683   9.789  23.309  0.00  0.00    +0.000 A 
ATOM     12  C   UNL     1      -0.717  11.048  22.715  0.00  0.00    +0.000 A 
ATOM     13  C   UNL     1      -0.099  11.269  21.478  0.00  0.00    +0.000 A 
ATOM     14  C   UNL     1       0.548  10.216  20.829  0.00  0.00    +0.000 A 
ATOM     15  N   UNL     1       1.187  10.315  19.569  0.00  0.00    +0.000 N 
ENDROOT
BRANCH   1  17
ATOM     16  C   UNL     1       2.005  13.644  17.975  0.00  0.00    +0.000 C 
ATOM     17  C   UNL     1       0.991  12.770  18.716  0.00  0.00    +0.000 C 
ATOM     18  C   UNL     1      -0.403  12.986  18.110  0.00  0.00    +0.000 C 
ENDBRANCH   1  17
BRANCH   6  19
ATOM     19  S   UNL     1       3.045   5.568  20.053  0.00  0.00    +0.000 S 
ATOM     20  O   UNL     1       4.489   5.549  19.913  0.00  0.00    +0.000 OA
ATOM     21  O   UNL     1       2.440   5.656  21.368  0.00  0.00    +0.000 OA
BRANCH  19  22
ATOM     22  C   UNL     1       2.451   4.082  19.268  0.00  0.00    +0.000 A 
ATOM     23  C   UNL     1       1.124   3.685  19.461  0.00  0.00    +0.000 A 
ATOM     24  C   UNL     1       0.674   2.498  18.880  0.00  0.00    +0.000 A 
ATOM     25  C   UNL     1       1.538   1.728  18.098  0.00  0.00    +0.000 A 
ATOM     26  C   UNL     1       2.851   2.149  17.880  0.00  0.00    +0.000 A 
ATOM     27  C   UNL     1       3.311   3.329  18.464  0.00  0.00    +0.000 A 
ENDBRANCH  19  22
ENDBRANCH   6  19
TORSDOF 3
ENDMDL
MODEL 6
REMARK VINA RESULT:      -6.9      9.498     13.174
REMARK  Name = 
REMARK  6 active torsions:
REMARK  status: ('A' for Active; 'I' for Inactive)
REMARK    1  A    between atoms: C_1  and  C_2
REMARK    2  A    between atoms: C_2  and  C_3
REMARK    3  A    between atoms: C_2  and  C_4
REMARK    4  A    between atoms: N_9  and  C_10
REMARK    5  A    between atoms: N_9  and  S_11
REMARK    6  A    between atoms: S_11  and  C_14
REMARK                            x       y       z     vdW  Elec       q    Type
REMARK                         _______ _______ _______ _____ _____    ______ ____
ROOT
ATOM      1  C   UNL     1      -3.479  11.552  17.877  0.00  0.00    +0.000 A 
ATOM      2  N   UNL     1      -4.801  11.601  17.933  0.00  0.00    +0.000 NA
ATOM      3  N   UNL     1      -5.183  12.058  19.160  0.00  0.00    +0.000 NA
ATOM      4  C   UNL     1      -4.088  12.299  19.844  0.00  0.00    +0.000 A 
ATOM      5  C   UNL     1      -3.973  12.784  21.193  0.00  0.00    +0.000 A 
ATOM      6  N   UNL     1      -5.144  13.112  21.925  0.00  0.00    +0.000 N 
ATOM      7  C   UNL     1      -6.442  13.475  21.328  0.00  0.00    +0.000 C 
ATOM      8  N   UNL     1      -2.806  12.937  21.730  0.00  0.00    +0.000 NA
ATOM      9  C   UNL     1      -1.654  12.638  20.981  0.00  0.00    +0.000 A 
ATOM     10  C   UNL     1      -0.423  12.847  21.609  0.00  0.00    +0.000 A 
ATOM     11  C   UNL     1       0.768  12.585  20.939  0.00  0.00    +0.000 A 
ATOM     12  C   UNL     1       0.735  12.102  19.633  0.00  0.00    +0.000 A 
ATOM     13  C   UNL     1      -0.487  11.878  18.987  0.00  0.00    +0.000 A 
ATOM     14  C   UNL     1      -1.683  12.153  19.653  0.00  0.00    +0.000 A 
ATOM     15  N   UNL     1      -2.974  11.987  19.095  0.00  0.00    +0.000 N 
ENDROOT
BRANCH   1  17
ATOM     16  C   UNL     1      -2.146   9.667  16.954  0.00  0.00    +0.000 C 
ATOM     17  C   UNL     1      -2.733  11.052  16.674  0.00  0.00    +0.000 C 
ATOM     18  C   UNL     1      -3.649  10.976  15.445  0.00  0.00    +0.000 C 
ENDBRANCH   1  17
BRANCH   6  19
ATOM     19  S   UNL     1      -5.143  13.001  23.622  0.00  0.00    +0.000 S 
ATOM     20  O   UNL     1      -6.510  12.894  24.096  0.00  0.00    +0.000 OA
ATOM     21  O   UNL     1      -4.157  12.011  24.011  0.00  0.00    +0.000 OA
BRANCH  19  22
ATOM     22  C   UNL     1      -4.559  14.601  24.146  0.00  0.00    +0.000 A 
ATOM     23  C   UNL     1      -3.316  14.707  24.778  0.00  0.00    +0.000 A 
ATOM     24  C   UNL     1      -2.880  15.956  25.224  0.00  0.00    +0.000 A 
ATOM     25  C   UNL     1      -3.673  17.088  25.023  0.00  0.00    +0.000 A 
ATOM     26  C   UNL     1      -4.896  16.981  24.360  0.00  0.00    +0.000 A 
ATOM     27  C   UNL     1      -5.343  15.736  23.918  0.00  0.00    +0.000 A 
ENDBRANCH  19  22
ENDBRANCH   6  19
TORSDOF 3
ENDMDL
MODEL 7
REMARK VINA RESULT:      -6.9      8.059     11.129
REMARK  Name = 
REMARK  6 active torsions:
REMARK  status: ('A' for Active; 'I' for Inactive)
REMARK    1  A    between atoms: C_1  and  C_2
REMARK    2  A    between atoms: C_2  and  C_3
REMARK    3  A    between atoms: C_2  and  C_4
REMARK    4  A    between atoms: N_9  and  C_10
REMARK    5  A    between atoms: N_9  and  S_11
REMARK    6  A    between atoms: S_11  and  C_14
REMARK                            x       y       z     vdW  Elec       q    Type
REMARK                         _______ _______ _______ _____ _____    ______ ____
ROOT
ATOM      1  C   UNL     1      -5.372  13.946  22.560  0.00  0.00    +0.000 A 
ATOM      2  N   UNL     1      -4.387  14.530  23.225  0.00  0.00    +0.000 NA
ATOM      3  N   UNL     1      -3.212  14.322  22.564  0.00  0.00    +0.000 NA
ATOM      4  C   UNL     1      -3.489  13.621  21.489  0.00  0.00    +0.000 A 
ATOM      5  C   UNL     1      -2.580  13.144  20.482  0.00  0.00    +0.000 A 
ATOM      6  N   UNL     1      -1.201  13.474  20.566  0.00  0.00    +0.000 N 
ATOM      7  C   UNL     1      -0.651  14.637  21.286  0.00  0.00    +0.000 C 
ATOM      8  N   UNL     1      -3.019  12.433  19.495  0.00  0.00    +0.000 NA
ATOM      9  C   UNL     1      -4.391  12.141  19.410  0.00  0.00    +0.000 A 
ATOM     10  C   UNL     1      -4.807  11.388  18.307  0.00  0.00    +0.000 A 
ATOM     11  C   UNL     1      -6.149  11.061  18.138  0.00  0.00    +0.000 A 
ATOM     12  C   UNL     1      -7.087  11.478  19.080  0.00  0.00    +0.000 A 
ATOM     13  C   UNL     1      -6.692  12.226  20.196  0.00  0.00    +0.000 A 
ATOM     14  C   UNL     1      -5.348  12.567  20.360  0.00  0.00    +0.000 A 
ATOM     15  N   UNL     1      -4.836  13.336  21.433  0.00  0.00    +0.000 N 
ENDROOT
BRANCH   1  17
ATOM     16  C   UNL     1      -7.050  12.744  23.947  0.00  0.00    +0.000 C 
ATOM     17  C   UNL     1      -6.794  13.949  23.040  0.00  0.00    +0.000 C 
ATOM     18  C   UNL     1      -7.117  15.239  23.808  0.00  0.00    +0.000 C 
ENDBRANCH   1  17
BRANCH   6  19
ATOM     19  S   UNL     1      -0.037  12.436  19.889  0.00  0.00    +0.000 S 
ATOM     20  O   UNL     1      -0.498  11.979  18.592  0.00  0.00    +0.000 OA
ATOM     21  O   UNL     1       1.263  13.066  20.021  0.00  0.00    +0.000 OA
BRANCH  19  22
ATOM     22  C   UNL     1      -0.073  11.012  20.960  0.00  0.00    +0.000 A 
ATOM     23  C   UNL     1       0.379   9.779  20.480  0.00  0.00    +0.000 A 
ATOM     24  C   UNL     1       0.310   8.656  21.308  0.00  0.00    +0.000 A 
ATOM     25  C   UNL     1      -0.191   8.772  22.607  0.00  0.00    +0.000 A 
ATOM     26  C   UNL     1      -0.607  10.013  23.091  0.00  0.00    +0.000 A 
ATOM     27  C   UNL     1      -0.548  11.138  22.268  0.00  0.00    +0.000 A 
ENDBRANCH  19  22
ENDBRANCH   6  19
TORSDOF 3
ENDMDL
MODEL 8
REMARK VINA RESULT:      -6.9      7.388     12.231
REMARK  Name = 
REMARK  6 active torsions:
REMARK  status: ('A' for Active; 'I' for Inactive)
REMARK    1  A    between atoms: C_1  and  C_2
REMARK    2  A    between atoms: C_2  and  C_3
REMARK    3  A    between atoms: C_2  and  C_4
REMARK    4  A    between atoms: N_9  and  C_10
REMARK    5  A    between atoms: N_9  and  S_11
REMARK    6  A    between atoms: S_11  and  C_14
REMARK                            x       y       z     vdW  Elec       q    Type
REMARK                         _______ _______ _______ _____ _____    ______ ____
ROOT
ATOM      1  C   UNL     1       0.396  10.211  19.882  0.00  0.00    +0.000 A 
ATOM      2  N   UNL     1       0.951  10.656  20.999  0.00  0.00    +0.000 NA
ATOM      3  N   UNL     1       0.138  11.597  21.560  0.00  0.00    +0.000 NA
ATOM      4  C   UNL     1      -0.918  11.711  20.789  0.00  0.00    +0.000 A 
ATOM      5  C   UNL     1      -2.049  12.582  20.955  0.00  0.00    +0.000 A 
ATOM      6  N   UNL     1      -2.131  13.419  22.099  0.00  0.00    +0.000 N 
ATOM      7  C   UNL     1      -1.444  13.170  23.380  0.00  0.00    +0.000 C 
ATOM      8  N   UNL     1      -2.998  12.590  20.076  0.00  0.00    +0.000 NA
ATOM      9  C   UNL     1      -2.918  11.734  18.964  0.00  0.00    +0.000 A 
ATOM     10  C   UNL     1      -3.986  11.772  18.062  0.00  0.00    +0.000 A 
ATOM     11  C   UNL     1      -3.993  10.951  16.938  0.00  0.00    +0.000 A 
ATOM     12  C   UNL     1      -2.925  10.089  16.704  0.00  0.00    +0.000 A 
ATOM     13  C   UNL     1      -1.842  10.039  17.590  0.00  0.00    +0.000 A 
ATOM     14  C   UNL     1      -1.838  10.852  18.725  0.00  0.00    +0.000 A 
ATOM     15  N   UNL     1      -0.812  10.872  19.700  0.00  0.00    +0.000 N 
ENDROOT
BRANCH   1  17
ATOM     16  C   UNL     1       1.976   9.886  17.990  0.00  0.00    +0.000 C 
ATOM     17  C   UNL     1       1.054   9.194  18.995  0.00  0.00    +0.000 C 
ATOM     18  C   UNL     1       1.866   8.183  19.817  0.00  0.00    +0.000 C 
ENDBRANCH   1  17
BRANCH   6  19
ATOM     19  S   UNL     1      -2.988  14.885  22.020  0.00  0.00    +0.000 S 
ATOM     20  O   UNL     1      -2.344  15.864  22.876  0.00  0.00    +0.000 OA
ATOM     21  O   UNL     1      -3.239  15.189  20.625  0.00  0.00    +0.000 OA
BRANCH  19  22
ATOM     22  C   UNL     1      -4.548  14.499  22.792  0.00  0.00    +0.000 A 
ATOM     23  C   UNL     1      -4.919  13.163  22.964  0.00  0.00    +0.000 A 
ATOM     24  C   UNL     1      -6.160  12.864  23.531  0.00  0.00    +0.000 A 
ATOM     25  C   UNL     1      -7.011  13.894  23.937  0.00  0.00    +0.000 A 
ATOM     26  C   UNL     1      -6.619  15.226  23.795  0.00  0.00    +0.000 A 
ATOM     27  C   UNL     1      -5.384  15.533  23.223  0.00  0.00    +0.000 A 
ENDBRANCH  19  22
ENDBRANCH   6  19
TORSDOF 3
ENDMDL
MODEL 9
REMARK VINA RESULT:      -6.8      7.597     11.977
REMARK  Name = 
REMARK  6 active torsions:
REMARK  status: ('A' for Active; 'I' for Inactive)
REMARK    1  A    between atoms: C_1  and  C_2
REMARK    2  A    between atoms: C_2  and  C_3
REMARK    3  A    between atoms: C_2  and  C_4
REMARK    4  A    between atoms: N_9  and  C_10
REMARK    5  A    between atoms: N_9  and  S_11
REMARK    6  A    between atoms: S_11  and  C_14
REMARK                            x       y       z     vdW  Elec       q    Type
REMARK                         _______ _______ _______ _____ _____    ______ ____
ROOT
ATOM      1  C   UNL     1      -0.287  10.320  18.697  0.00  0.00    +0.000 A 
ATOM      2  N   UNL     1      -0.900   9.724  17.685  0.00  0.00    +0.000 NA
ATOM      3  N   UNL     1      -2.170  10.211  17.580  0.00  0.00    +0.000 NA
ATOM      4  C   UNL     1      -2.322  11.113  18.522  0.00  0.00    +0.000 A 
ATOM      5  C   UNL     1      -3.490  11.895  18.823  0.00  0.00    +0.000 A 
ATOM      6  N   UNL     1      -4.649  11.768  18.014  0.00  0.00    +0.000 N 
ATOM      7  C   UNL     1      -4.659  11.293  16.618  0.00  0.00    +0.000 C 
ATOM      8  N   UNL     1      -3.478  12.725  19.815  0.00  0.00    +0.000 NA
ATOM      9  C   UNL     1      -2.312  12.862  20.589  0.00  0.00    +0.000 A 
ATOM     10  C   UNL     1      -2.354  13.792  21.633  0.00  0.00    +0.000 A 
ATOM     11  C   UNL     1      -1.242  13.998  22.443  0.00  0.00    +0.000 A 
ATOM     12  C   UNL     1      -0.078  13.268  22.219  0.00  0.00    +0.000 A 
ATOM     13  C   UNL     1      -0.015  12.326  21.184  0.00  0.00    +0.000 A 
ATOM     14  C   UNL     1      -1.125  12.127  20.362  0.00  0.00    +0.000 A 
ATOM     15  N   UNL     1      -1.171  11.221  19.274  0.00  0.00    +0.000 N 
ENDROOT
BRANCH   1  17
ATOM     16  C   UNL     1       1.100   8.989  20.273  0.00  0.00    +0.000 C 
ATOM     17  C   UNL     1       1.116   9.983  19.111  0.00  0.00    +0.000 C 
ATOM     18  C   UNL     1       1.911   9.384  17.941  0.00  0.00    +0.000 C 
ENDBRANCH   1  17
BRANCH   6  19
ATOM     19  S   UNL     1      -6.185  12.078  18.675  0.00  0.00    +0.000 S 
ATOM     20  O   UNL     1      -7.177  11.286  17.973  0.00  0.00    +0.000 OA
ATOM     21  O   UNL     1      -6.080  12.001  20.119  0.00  0.00    +0.000 OA
BRANCH  19  22
ATOM     22  C   UNL     1      -6.497  13.775  18.231  0.00  0.00    +0.000 A 
ATOM     23  C   UNL     1      -6.399  14.771  19.207  0.00  0.00    +0.000 A 
ATOM     24  C   UNL     1      -6.685  16.095  18.866  0.00  0.00    +0.000 A 
ATOM     25  C   UNL     1      -7.048  16.418  17.557  0.00  0.00    +0.000 A 
ATOM     26  C   UNL     1      -7.110  15.424  16.579  0.00  0.00    +0.000 A 
ATOM     27  C   UNL     1      -6.833  14.098  16.913  0.00  0.00    +0.000 A 
ENDBRANCH  19  22
ENDBRANCH   6  19
TORSDOF 3
ENDMDL
