MODEL 1
REMARK VINA RESULT:      -8.2      0.000      0.000
REMARK  Name = 
REMARK  7 active torsions:
REMARK  status: ('A' for Active; 'I' for Inactive)
REMARK    1  A    between atoms: C_1  and  C_2
REMARK    2  A    between atoms: C_5  and  N_6
REMARK    3  A    between atoms: C_9  and  C_10
REMARK    4  A    between atoms: C_15  and  C_17
REMARK    5  A    between atoms: C_20  and  C_21
REMARK    6  A    between atoms: C_22  and  C_23
REMARK    7  A    between atoms: C_26  and  C_27
REMARK                            x       y       z     vdW  Elec       q    Type
REMARK                         _______ _______ _______ _____ _____    ______ ____
ROOT
ATOM      1  C   UNL     1       0.086  10.917  20.505  0.00  0.00    +0.000 A 
ATOM      2  N   UNL     1       0.498  11.599  19.432  0.00  0.00    +0.000 NA
ATOM      3  S   UNL     1       1.484  10.593  18.569  0.00  0.00    +0.000 S 
ATOM      4  C   UNL     1       1.247   9.279  19.632  0.00  0.00    +0.000 A 
ATOM      5  N   UNL     1       1.794   8.033  19.416  0.00  0.00    +0.000 N 
ATOM      6  C   UNL     1       2.378   7.650  18.225  0.00  0.00    +0.000 C 
ATOM      7  O   UNL     1       2.547   8.354  17.235  0.00  0.00    +0.000 OA
ATOM      8  N   UNL     1       0.496   9.588  20.667  0.00  0.00    +0.000 NA
ATOM      9  H   UNL     1       1.580   7.350  20.132  0.00  0.00    +0.000 HD
ENDROOT
BRANCH   6  10
ATOM     10  C   UNL     1       2.771   6.225  18.111  0.00  0.00    +0.000 A 
ATOM     11  C   UNL     1       3.971   5.808  17.542  0.00  0.00    +0.000 A 
ATOM     12  C   UNL     1       4.234   4.439  17.430  0.00  0.00    +0.000 A 
ATOM     13  C   UNL     1       3.314   3.477  17.893  0.00  0.00    +0.000 A 
ATOM     14  C   UNL     1       3.638   2.017  17.734  0.00  0.00    +0.000 C 
ATOM     15  C   UNL     1       2.110   3.901  18.484  0.00  0.00    +0.000 A 
ATOM     16  C   UNL     1       1.085   2.968  19.060  0.00  0.00    +0.000 C 
ATOM     17  C   UNL     1       1.847   5.276  18.569  0.00  0.00    +0.000 A 
ENDBRANCH   6  10
BRANCH   1  21
ATOM     18  N   UNL     1      -2.315  12.682  22.578  0.00  0.00    +0.000 N 
ATOM     19  N   UNL     1      -1.324  12.380  23.454  0.00  0.00    +0.000 NA
ATOM     20  N   UNL     1      -0.409  11.653  22.825  0.00  0.00    +0.000 NA
ATOM     21  C   UNL     1      -0.768  11.572  21.510  0.00  0.00    +0.000 A 
ATOM     22  C   UNL     1      -1.961  12.249  21.308  0.00  0.00    +0.000 A 
ATOM     23  C   UNL     1      -2.672  12.621  20.056  0.00  0.00    +0.000 C 
BRANCH  18  28
ATOM     24  C   UNL     1      -7.069  15.697  23.545  0.00  0.00    +0.000 C 
ATOM     25  C   UNL     1      -5.792  14.927  23.400  0.00  0.00    +0.000 A 
ATOM     26  C   UNL     1      -4.565  15.573  23.192  0.00  0.00    +0.000 A 
ATOM     27  C   UNL     1      -3.394  14.832  22.992  0.00  0.00    +0.000 A 
ATOM     28  C   UNL     1      -3.454  13.434  22.965  0.00  0.00    +0.000 A 
ATOM     29  C   UNL     1      -4.664  12.793  23.259  0.00  0.00    +0.000 A 
ATOM     30  C   UNL     1      -5.825  13.533  23.466  0.00  0.00    +0.000 A 
ENDBRANCH  18  28
ENDBRANCH   1  21
TORSDOF 3
ENDMDL
MODEL 2
REMARK VINA RESULT:      -8.1      2.189     10.592
REMARK  Name = 
REMARK  7 active torsions:
REMARK  status: ('A' for Active; 'I' for Inactive)
REMARK    1  A    between atoms: C_1  and  C_2
REMARK    2  A    between atoms: C_5  and  N_6
REMARK    3  A    between atoms: C_9  and  C_10
REMARK    4  A    between atoms: C_15  and  C_17
REMARK    5  A    between atoms: C_20  and  C_21
REMARK    6  A    between atoms: C_22  and  C_23
REMARK    7  A    between atoms: C_26  and  C_27
REMARK                            x       y       z     vdW  Elec       q    Type
REMARK                         _______ _______ _______ _____ _____    ______ ____
ROOT
ATOM      1  C   UNL     1       0.818  10.631  19.296  0.00  0.00    +0.000 A 
ATOM      2  N   UNL     1       1.474  11.794  19.350  0.00  0.00    +0.000 NA
ATOM      3  S   UNL     1       0.424  12.912  19.965  0.00  0.00    +0.000 S 
ATOM      4  C   UNL     1      -0.822  11.768  20.196  0.00  0.00    +0.000 A 
ATOM      5  N   UNL     1      -2.031  12.085  20.776  0.00  0.00    +0.000 N 
ATOM      6  C   UNL     1      -2.274  13.272  21.438  0.00  0.00    +0.000 C 
ATOM      7  O   UNL     1      -1.499  14.215  21.555  0.00  0.00    +0.000 OA
ATOM      8  N   UNL     1      -0.502  10.569  19.760  0.00  0.00    +0.000 NA
ATOM      9  H   UNL     1      -2.681  11.312  20.841  0.00  0.00    +0.000 HD
ENDROOT
BRANCH   6  10
ATOM     10  C   UNL     1      -3.576  13.382  22.140  0.00  0.00    +0.000 A 
ATOM     11  C   UNL     1      -3.726  14.004  23.375  0.00  0.00    +0.000 A 
ATOM     12  C   UNL     1      -4.984  14.015  23.986  0.00  0.00    +0.000 A 
ATOM     13  C   UNL     1      -6.102  13.419  23.368  0.00  0.00    +0.000 A 
ATOM     14  C   UNL     1      -7.430  13.443  24.076  0.00  0.00    +0.000 C 
ATOM     15  C   UNL     1      -5.951  12.806  22.111  0.00  0.00    +0.000 A 
ATOM     16  C   UNL     1      -7.082  12.192  21.338  0.00  0.00    +0.000 C 
ATOM     17  C   UNL     1      -4.681  12.782  21.520  0.00  0.00    +0.000 A 
ENDBRANCH   6  10
BRANCH   1  21
ATOM     18  N   UNL     1       2.375   7.485  18.374  0.00  0.00    +0.000 N 
ATOM     19  N   UNL     1       2.631   8.274  17.300  0.00  0.00    +0.000 NA
ATOM     20  N   UNL     1       2.035   9.446  17.484  0.00  0.00    +0.000 NA
ATOM     21  C   UNL     1       1.476   9.442  18.730  0.00  0.00    +0.000 A 
ATOM     22  C   UNL     1       1.704   8.218  19.341  0.00  0.00    +0.000 A 
ATOM     23  C   UNL     1       1.480   7.770  20.741  0.00  0.00    +0.000 C 
BRANCH  18  28
ATOM     24  C   UNL     1       4.046   2.094  19.258  0.00  0.00    +0.000 C 
ATOM     25  C   UNL     1       3.676   3.510  18.934  0.00  0.00    +0.000 A 
ATOM     26  C   UNL     1       4.514   4.583  19.268  0.00  0.00    +0.000 A 
ATOM     27  C   UNL     1       4.119   5.902  19.017  0.00  0.00    +0.000 A 
ATOM     28  C   UNL     1       2.860   6.154  18.458  0.00  0.00    +0.000 A 
ATOM     29  C   UNL     1       2.064   5.079  18.046  0.00  0.00    +0.000 A 
ATOM     30  C   UNL     1       2.465   3.767  18.289  0.00  0.00    +0.000 A 
ENDBRANCH  18  28
ENDBRANCH   1  21
TORSDOF 3
ENDMDL
MODEL 3
REMARK VINA RESULT:      -8.1      0.484      1.009
REMARK  Name = 
REMARK  7 active torsions:
REMARK  status: ('A' for Active; 'I' for Inactive)
REMARK    1  A    between atoms: C_1  and  C_2
REMARK    2  A    between atoms: C_5  and  N_6
REMARK    3  A    between atoms: C_9  and  C_10
REMARK    4  A    between atoms: C_15  and  C_17
REMARK    5  A    between atoms: C_20  and  C_21
REMARK    6  A    between atoms: C_22  and  C_23
REMARK    7  A    between atoms: C_26  and  C_27
REMARK                            x       y       z     vdW  Elec       q    Type
REMARK                         _______ _______ _______ _____ _____    ______ ____
ROOT
ATOM      1  C   UNL     1       0.302  11.013  20.129  0.00  0.00    +0.000 A 
ATOM      2  N   UNL     1       0.845  11.624  19.072  0.00  0.00    +0.000 NA
ATOM      3  S   UNL     1       1.823  10.522  18.327  0.00  0.00    +0.000 S 
ATOM      4  C   UNL     1       1.410   9.268  19.409  0.00  0.00    +0.000 A 
ATOM      5  N   UNL     1       1.885   7.981  19.279  0.00  0.00    +0.000 N 
ATOM      6  C   UNL     1       2.533   7.514  18.153  0.00  0.00    +0.000 C 
ATOM      7  O   UNL     1       2.829   8.167  17.158  0.00  0.00    +0.000 OA
ATOM      8  N   UNL     1       0.603   9.666  20.368  0.00  0.00    +0.000 NA
ATOM      9  H   UNL     1       1.567   7.342  19.997  0.00  0.00    +0.000 HD
ENDROOT
BRANCH   6  10
ATOM     10  C   UNL     1       2.833   6.062  18.118  0.00  0.00    +0.000 A 
ATOM     11  C   UNL     1       3.927   5.526  17.446  0.00  0.00    +0.000 A 
ATOM     12  C   UNL     1       4.101   4.139  17.424  0.00  0.00    +0.000 A 
ATOM     13  C   UNL     1       3.199   3.277  18.080  0.00  0.00    +0.000 A 
ATOM     14  C   UNL     1       3.423   1.791  18.012  0.00  0.00    +0.000 C 
ATOM     15  C   UNL     1       2.104   3.823  18.774  0.00  0.00    +0.000 A 
ATOM     16  C   UNL     1       1.114   3.007  19.553  0.00  0.00    +0.000 C 
ATOM     17  C   UNL     1       1.927   5.214  18.769  0.00  0.00    +0.000 A 
ENDBRANCH   6  10
BRANCH   1  21
ATOM     18  N   UNL     1      -2.207  12.883  21.969  0.00  0.00    +0.000 N 
ATOM     19  N   UNL     1      -1.144  12.896  22.811  0.00  0.00    +0.000 NA
ATOM     20  N   UNL     1      -0.172  12.164  22.278  0.00  0.00    +0.000 NA
ATOM     21  C   UNL     1      -0.581  11.762  21.039  0.00  0.00    +0.000 A 
ATOM     22  C   UNL     1      -1.862  12.232  20.793  0.00  0.00    +0.000 A 
ATOM     23  C   UNL     1      -2.676  12.241  19.549  0.00  0.00    +0.000 C 
BRANCH  18  28
ATOM     24  C   UNL     1      -6.827  15.722  23.764  0.00  0.00    +0.000 C 
ATOM     25  C   UNL     1      -5.675  14.947  23.200  0.00  0.00    +0.000 A 
ATOM     26  C   UNL     1      -5.608  13.551  23.305  0.00  0.00    +0.000 A 
ATOM     27  C   UNL     1      -4.491  12.853  22.830  0.00  0.00    +0.000 A 
ATOM     28  C   UNL     1      -3.416  13.559  22.277  0.00  0.00    +0.000 A 
ATOM     29  C   UNL     1      -3.524  14.943  22.096  0.00  0.00    +0.000 A 
ATOM     30  C   UNL     1      -4.641  15.633  22.561  0.00  0.00    +0.000 A 
ENDBRANCH  18  28
ENDBRANCH   1  21
TORSDOF 3
ENDMDL
MODEL 4
REMARK VINA RESULT:      -8.0      2.758     10.709
REMARK  Name = 
REMARK  7 active torsions:
REMARK  status: ('A' for Active; 'I' for Inactive)
REMARK    1  A    between atoms: C_1  and  C_2
REMARK    2  A    between atoms: C_5  and  N_6
REMARK    3  A    between atoms: C_9  and  C_10
REMARK    4  A    between atoms: C_15  and  C_17
REMARK    5  A    between atoms: C_20  and  C_21
REMARK    6  A    between atoms: C_22  and  C_23
REMARK    7  A    between atoms: C_26  and  C_27
REMARK                            x       y       z     vdW  Elec       q    Type
REMARK                         _______ _______ _______ _____ _____    ______ ____
ROOT
ATOM      1  C   UNL     1       0.643   9.590  20.521  0.00  0.00    +0.000 A 
ATOM      2  N   UNL     1       1.030  10.274  21.602  0.00  0.00    +0.000 NA
ATOM      3  S   UNL     1      -0.007  11.550  21.763  0.00  0.00    +0.000 S 
ATOM      4  C   UNL     1      -0.960  11.078  20.428  0.00  0.00    +0.000 A 
ATOM      5  N   UNL     1      -2.102  11.751  20.049  0.00  0.00    +0.000 N 
ATOM      6  C   UNL     1      -2.721  12.708  20.828  0.00  0.00    +0.000 C 
ATOM      7  O   UNL     1      -2.330  13.133  21.909  0.00  0.00    +0.000 OA
ATOM      8  N   UNL     1      -0.486  10.018  19.811  0.00  0.00    +0.000 NA
ATOM      9  H   UNL     1      -2.563  11.367  19.234  0.00  0.00    +0.000 HD
ENDROOT
BRANCH   6  10
ATOM     10  C   UNL     1      -4.026  13.214  20.339  0.00  0.00    +0.000 A 
ATOM     11  C   UNL     1      -4.564  14.436  20.729  0.00  0.00    +0.000 A 
ATOM     12  C   UNL     1      -5.827  14.808  20.256  0.00  0.00    +0.000 A 
ATOM     13  C   UNL     1      -6.555  13.975  19.383  0.00  0.00    +0.000 A 
ATOM     14  C   UNL     1      -7.917  14.415  18.917  0.00  0.00    +0.000 C 
ATOM     15  C   UNL     1      -6.001  12.749  18.975  0.00  0.00    +0.000 A 
ATOM     16  C   UNL     1      -6.661  11.811  18.007  0.00  0.00    +0.000 C 
ATOM     17  C   UNL     1      -4.745  12.376  19.475  0.00  0.00    +0.000 A 
ENDBRANCH   6  10
BRANCH   1  21
ATOM     18  N   UNL     1       2.586   6.950  18.963  0.00  0.00    +0.000 N 
ATOM     19  N   UNL     1       2.207   6.390  20.139  0.00  0.00    +0.000 NA
ATOM     20  N   UNL     1       1.546   7.300  20.847  0.00  0.00    +0.000 NA
ATOM     21  C   UNL     1       1.416   8.419  20.076  0.00  0.00    +0.000 A 
ATOM     22  C   UNL     1       2.037   8.219  18.852  0.00  0.00    +0.000 A 
ATOM     23  C   UNL     1       2.022   9.031  17.607  0.00  0.00    +0.000 C 
BRANCH  18  28
ATOM     24  C   UNL     1       5.973   3.874  15.543  0.00  0.00    +0.000 C 
ATOM     25  C   UNL     1       5.032   4.720  16.346  0.00  0.00    +0.000 A 
ATOM     26  C   UNL     1       5.235   6.098  16.503  0.00  0.00    +0.000 A 
ATOM     27  C   UNL     1       4.382   6.857  17.312  0.00  0.00    +0.000 A 
ATOM     28  C   UNL     1       3.336   6.228  17.999  0.00  0.00    +0.000 A 
ATOM     29  C   UNL     1       3.085   4.870  17.772  0.00  0.00    +0.000 A 
ATOM     30  C   UNL     1       3.931   4.120  16.959  0.00  0.00    +0.000 A 
ENDBRANCH  18  28
ENDBRANCH   1  21
TORSDOF 3
ENDMDL
MODEL 5
REMARK VINA RESULT:      -8.0      1.118      1.118
REMARK  Name = 
REMARK  7 active torsions:
REMARK  status: ('A' for Active; 'I' for Inactive)
REMARK    1  A    between atoms: C_1  and  C_2
REMARK    2  A    between atoms: C_5  and  N_6
REMARK    3  A    between atoms: C_9  and  C_10
REMARK    4  A    between atoms: C_15  and  C_17
REMARK    5  A    between atoms: C_20  and  C_21
REMARK    6  A    between atoms: C_22  and  C_23
REMARK    7  A    between atoms: C_26  and  C_27
REMARK                            x       y       z     vdW  Elec       q    Type
REMARK                         _______ _______ _______ _____ _____    ______ ____
ROOT
ATOM      1  C   UNL     1      -0.122  10.782  20.800  0.00  0.00    +0.000 A 
ATOM      2  N   UNL     1       0.074  11.176  19.539  0.00  0.00    +0.000 NA
ATOM      3  S   UNL     1       1.103  10.085  18.846  0.00  0.00    +0.000 S 
ATOM      4  C   UNL     1       1.171   9.106  20.242  0.00  0.00    +0.000 A 
ATOM      5  N   UNL     1       1.871   7.920  20.291  0.00  0.00    +0.000 N 
ATOM      6  C   UNL     1       2.380   7.285  19.176  0.00  0.00    +0.000 C 
ATOM      7  O   UNL     1       2.342   7.696  18.021  0.00  0.00    +0.000 OA
ATOM      8  N   UNL     1       0.493   9.607  21.252  0.00  0.00    +0.000 NA
ATOM      9  H   UNL     1       1.833   7.447  21.185  0.00  0.00    +0.000 HD
ENDROOT
BRANCH   6  10
ATOM     10  C   UNL     1       2.964   5.939  19.391  0.00  0.00    +0.000 A 
ATOM     11  C   UNL     1       4.144   5.515  18.787  0.00  0.00    +0.000 A 
ATOM     12  C   UNL     1       4.592   4.209  19.008  0.00  0.00    +0.000 A 
ATOM     13  C   UNL     1       3.880   3.322  19.839  0.00  0.00    +0.000 A 
ATOM     14  C   UNL     1       4.397   1.922  20.031  0.00  0.00    +0.000 C 
ATOM     15  C   UNL     1       2.697   3.759  20.463  0.00  0.00    +0.000 A 
ATOM     16  C   UNL     1       1.890   2.920  21.411  0.00  0.00    +0.000 C 
ATOM     17  C   UNL     1       2.245   5.063  20.215  0.00  0.00    +0.000 A 
ENDBRANCH   6  10
BRANCH   1  21
ATOM     18  N   UNL     1      -2.461  12.894  22.601  0.00  0.00    +0.000 N 
ATOM     19  N   UNL     1      -1.496  12.657  23.525  0.00  0.00    +0.000 NA
ATOM     20  N   UNL     1      -0.608  11.817  23.005  0.00  0.00    +0.000 NA
ATOM     21  C   UNL     1      -0.956  11.593  21.703  0.00  0.00    +0.000 A 
ATOM     22  C   UNL     1      -2.114  12.292  21.400  0.00  0.00    +0.000 A 
ATOM     23  C   UNL     1      -2.792  12.540  20.101  0.00  0.00    +0.000 C 
BRANCH  18  28
ATOM     24  C   UNL     1      -7.099  16.187  23.123  0.00  0.00    +0.000 C 
ATOM     25  C   UNL     1      -5.849  15.361  23.090  0.00  0.00    +0.000 A 
ATOM     26  C   UNL     1      -4.608  15.921  22.757  0.00  0.00    +0.000 A 
ATOM     27  C   UNL     1      -3.465  15.118  22.666  0.00  0.00    +0.000 A 
ATOM     28  C   UNL     1      -3.568  13.738  22.875  0.00  0.00    +0.000 A 
ATOM     29  C   UNL     1      -4.790  13.196  23.291  0.00  0.00    +0.000 A 
ATOM     30  C   UNL     1      -5.924  14.000  23.390  0.00  0.00    +0.000 A 
ENDBRANCH  18  28
ENDBRANCH   1  21
TORSDOF 3
ENDMDL
MODEL 6
REMARK VINA RESULT:      -7.9      0.361      1.331
REMARK  Name = 
REMARK  7 active torsions:
REMARK  status: ('A' for Active; 'I' for Inactive)
REMARK    1  A    between atoms: C_1  and  C_2
REMARK    2  A    between atoms: C_5  and  N_6
REMARK    3  A    between atoms: C_9  and  C_10
REMARK    4  A    between atoms: C_15  and  C_17
REMARK    5  A    between atoms: C_20  and  C_21
REMARK    6  A    between atoms: C_22  and  C_23
REMARK    7  A    between atoms: C_26  and  C_27
REMARK                            x       y       z     vdW  Elec       q    Type
REMARK                         _______ _______ _______ _____ _____    ______ ____
ROOT
ATOM      1  C   UNL     1       0.176  11.055  20.472  0.00  0.00    +0.000 A 
ATOM      2  N   UNL     1       0.682  11.715  19.427  0.00  0.00    +0.000 NA
ATOM      3  S   UNL     1       1.631  10.649  18.594  0.00  0.00    +0.000 S 
ATOM      4  C   UNL     1       1.254   9.345  19.630  0.00  0.00    +0.000 A 
ATOM      5  N   UNL     1       1.720   8.065  19.422  0.00  0.00    +0.000 N 
ATOM      6  C   UNL     1       2.326   7.652  18.253  0.00  0.00    +0.000 C 
ATOM      7  O   UNL     1       2.588   8.351  17.279  0.00  0.00    +0.000 OA
ATOM      8  N   UNL     1       0.483   9.698  20.636  0.00  0.00    +0.000 NA
ATOM      9  H   UNL     1       1.426   7.393  20.119  0.00  0.00    +0.000 HD
ENDROOT
BRANCH   6  10
ATOM     10  C   UNL     1       2.621   6.203  18.137  0.00  0.00    +0.000 A 
ATOM     11  C   UNL     1       1.861   5.219  18.762  0.00  0.00    +0.000 A 
ATOM     12  C   UNL     1       2.245   3.880  18.639  0.00  0.00    +0.000 A 
ATOM     13  C   UNL     1       3.377   3.510  17.885  0.00  0.00    +0.000 A 
ATOM     14  C   UNL     1       3.757   2.056  17.798  0.00  0.00    +0.000 C 
ATOM     15  C   UNL     1       4.132   4.505  17.240  0.00  0.00    +0.000 A 
ATOM     16  C   UNL     1       5.321   4.222  16.367  0.00  0.00    +0.000 C 
ATOM     17  C   UNL     1       3.751   5.846  17.390  0.00  0.00    +0.000 A 
ENDBRANCH   6  10
BRANCH   1  21
ATOM     18  N   UNL     1      -2.248  12.863  22.480  0.00  0.00    +0.000 N 
ATOM     19  N   UNL     1      -1.180  12.767  23.311  0.00  0.00    +0.000 NA
ATOM     20  N   UNL     1      -0.240  12.045  22.711  0.00  0.00    +0.000 NA
ATOM     21  C   UNL     1      -0.671  11.761  21.447  0.00  0.00    +0.000 A 
ATOM     22  C   UNL     1      -1.935  12.298  21.252  0.00  0.00    +0.000 A 
ATOM     23  C   UNL     1      -2.755  12.438  20.020  0.00  0.00    +0.000 C 
BRANCH  18  28
ATOM     24  C   UNL     1      -7.214  15.523  23.425  0.00  0.00    +0.000 C 
ATOM     25  C   UNL     1      -5.874  14.869  23.276  0.00  0.00    +0.000 A 
ATOM     26  C   UNL     1      -4.754  15.582  22.829  0.00  0.00    +0.000 A 
ATOM     27  C   UNL     1      -3.527  14.936  22.633  0.00  0.00    +0.000 A 
ATOM     28  C   UNL     1      -3.427  13.557  22.853  0.00  0.00    +0.000 A 
ATOM     29  C   UNL     1      -4.523  12.865  23.382  0.00  0.00    +0.000 A 
ATOM     30  C   UNL     1      -5.739  13.514  23.584  0.00  0.00    +0.000 A 
ENDBRANCH  18  28
ENDBRANCH   1  21
TORSDOF 3
ENDMDL
MODEL 7
REMARK VINA RESULT:      -7.9      2.223     10.609
REMARK  Name = 
REMARK  7 active torsions:
REMARK  status: ('A' for Active; 'I' for Inactive)
REMARK    1  A    between atoms: C_1  and  C_2
REMARK    2  A    between atoms: C_5  and  N_6
REMARK    3  A    between atoms: C_9  and  C_10
REMARK    4  A    between atoms: C_15  and  C_17
REMARK    5  A    between atoms: C_20  and  C_21
REMARK    6  A    between atoms: C_22  and  C_23
REMARK    7  A    between atoms: C_26  and  C_27
REMARK                            x       y       z     vdW  Elec       q    Type
REMARK                         _______ _______ _______ _____ _____    ______ ____
ROOT
ATOM      1  C   UNL     1       0.885  10.612  19.051  0.00  0.00    +0.000 A 
ATOM      2  N   UNL     1       1.525  11.784  19.026  0.00  0.00    +0.000 NA
ATOM      3  S   UNL     1       0.457  12.929  19.553  0.00  0.00    +0.000 S 
ATOM      4  C   UNL     1      -0.776  11.788  19.858  0.00  0.00    +0.000 A 
ATOM      5  N   UNL     1      -1.993  12.129  20.407  0.00  0.00    +0.000 N 
ATOM      6  C   UNL     1      -2.256  13.357  20.982  0.00  0.00    +0.000 C 
ATOM      7  O   UNL     1      -1.494  14.317  21.034  0.00  0.00    +0.000 OA
ATOM      8  N   UNL     1      -0.437  10.565  19.511  0.00  0.00    +0.000 NA
ATOM      9  H   UNL     1      -2.633  11.354  20.524  0.00  0.00    +0.000 HD
ENDROOT
BRANCH   6  10
ATOM     10  C   UNL     1      -3.563  13.499  21.666  0.00  0.00    +0.000 A 
ATOM     11  C   UNL     1      -4.637  14.195  21.121  0.00  0.00    +0.000 A 
ATOM     12  C   UNL     1      -5.816  14.321  21.863  0.00  0.00    +0.000 A 
ATOM     13  C   UNL     1      -5.940  13.745  23.144  0.00  0.00    +0.000 A 
ATOM     14  C   UNL     1      -7.224  13.924  23.907  0.00  0.00    +0.000 C 
ATOM     15  C   UNL     1      -4.859  13.026  23.685  0.00  0.00    +0.000 A 
ATOM     16  C   UNL     1      -4.898  12.326  25.012  0.00  0.00    +0.000 C 
ATOM     17  C   UNL     1      -3.674  12.927  22.941  0.00  0.00    +0.000 A 
ENDBRANCH   6  10
BRANCH   1  21
ATOM     18  N   UNL     1       2.483   7.426  18.363  0.00  0.00    +0.000 N 
ATOM     19  N   UNL     1       2.753   8.146  17.246  0.00  0.00    +0.000 NA
ATOM     20  N   UNL     1       2.144   9.322  17.342  0.00  0.00    +0.000 NA
ATOM     21  C   UNL     1       1.562   9.394  18.575  0.00  0.00    +0.000 A 
ATOM     22  C   UNL     1       1.788   8.215  19.269  0.00  0.00    +0.000 A 
ATOM     23  C   UNL     1       1.542   7.857  20.691  0.00  0.00    +0.000 C 
BRANCH  18  28
ATOM     24  C   UNL     1       4.227   2.141  19.649  0.00  0.00    +0.000 C 
ATOM     25  C   UNL     1       3.831   3.519  19.215  0.00  0.00    +0.000 A 
ATOM     26  C   UNL     1       4.687   4.616  19.385  0.00  0.00    +0.000 A 
ATOM     27  C   UNL     1       4.272   5.907  19.034  0.00  0.00    +0.000 A 
ATOM     28  C   UNL     1       2.976   6.108  18.542  0.00  0.00    +0.000 A 
ATOM     29  C   UNL     1       2.156   5.001  18.294  0.00  0.00    +0.000 A 
ATOM     30  C   UNL     1       2.577   3.718  18.636  0.00  0.00    +0.000 A 
ENDBRANCH  18  28
ENDBRANCH   1  21
TORSDOF 3
ENDMDL
MODEL 8
REMARK VINA RESULT:      -7.8      2.797      4.435
REMARK  Name = 
REMARK  7 active torsions:
REMARK  status: ('A' for Active; 'I' for Inactive)
REMARK    1  A    between atoms: C_1  and  C_2
REMARK    2  A    between atoms: C_5  and  N_6
REMARK    3  A    between atoms: C_9  and  C_10
REMARK    4  A    between atoms: C_15  and  C_17
REMARK    5  A    between atoms: C_20  and  C_21
REMARK    6  A    between atoms: C_22  and  C_23
REMARK    7  A    between atoms: C_26  and  C_27
REMARK                            x       y       z     vdW  Elec       q    Type
REMARK                         _______ _______ _______ _____ _____    ______ ____
ROOT
ATOM      1  C   UNL     1       1.710   7.411  20.452  0.00  0.00    +0.000 A 
ATOM      2  N   UNL     1       1.423   6.164  20.835  0.00  0.00    +0.000 NA
ATOM      3  S   UNL     1       2.133   5.148  19.743  0.00  0.00    +0.000 S 
ATOM      4  C   UNL     1       2.847   6.424  18.863  0.00  0.00    +0.000 A 
ATOM      5  N   UNL     1       3.679   6.215  17.784  0.00  0.00    +0.000 N 
ATOM      6  C   UNL     1       4.209   4.984  17.453  0.00  0.00    +0.000 C 
ATOM      7  O   UNL     1       3.980   3.917  18.012  0.00  0.00    +0.000 OA
ATOM      8  N   UNL     1       2.515   7.610  19.323  0.00  0.00    +0.000 NA
ATOM      9  H   UNL     1       4.024   7.062  17.351  0.00  0.00    +0.000 HD
ENDROOT
BRANCH   6  10
ATOM     10  C   UNL     1       5.211   4.969  16.360  0.00  0.00    +0.000 A 
ATOM     11  C   UNL     1       6.465   5.560  16.467  0.00  0.00    +0.000 A 
ATOM     12  C   UNL     1       7.326   5.540  15.365  0.00  0.00    +0.000 A 
ATOM     13  C   UNL     1       6.951   4.923  14.155  0.00  0.00    +0.000 A 
ATOM     14  C   UNL     1       7.908   4.944  12.994  0.00  0.00    +0.000 C 
ATOM     15  C   UNL     1       5.689   4.309  14.055  0.00  0.00    +0.000 A 
ATOM     16  C   UNL     1       5.208   3.575  12.837  0.00  0.00    +0.000 C 
ATOM     17  C   UNL     1       4.826   4.356  15.159  0.00  0.00    +0.000 A 
ENDBRANCH   6  10
BRANCH   1  21
ATOM     18  N   UNL     1       0.162  10.389  21.835  0.00  0.00    +0.000 N 
ATOM     19  N   UNL     1       0.914   9.933  22.868  0.00  0.00    +0.000 NA
ATOM     20  N   UNL     1       1.477   8.785  22.508  0.00  0.00    +0.000 NA
ATOM     21  C   UNL     1       1.162   8.555  21.199  0.00  0.00    +0.000 A 
ATOM     22  C   UNL     1       0.353   9.577  20.726  0.00  0.00    +0.000 A 
ATOM     23  C   UNL     1      -0.102   9.902  19.348  0.00  0.00    +0.000 C 
BRANCH  18  28
ATOM     24  C   UNL     1      -2.497  15.372  22.684  0.00  0.00    +0.000 C 
ATOM     25  C   UNL     1      -1.881  14.040  22.384  0.00  0.00    +0.000 A 
ATOM     26  C   UNL     1      -2.386  12.856  22.939  0.00  0.00    +0.000 A 
ATOM     27  C   UNL     1      -1.754  11.629  22.700  0.00  0.00    +0.000 A 
ATOM     28  C   UNL     1      -0.588  11.590  21.927  0.00  0.00    +0.000 A 
ATOM     29  C   UNL     1      -0.137  12.760  21.304  0.00  0.00    +0.000 A 
ATOM     30  C   UNL     1      -0.773  13.976  21.538  0.00  0.00    +0.000 A 
ENDBRANCH  18  28
ENDBRANCH   1  21
TORSDOF 3
ENDMDL
MODEL 9
REMARK VINA RESULT:      -7.8      2.172     10.708
REMARK  Name = 
REMARK  7 active torsions:
REMARK  status: ('A' for Active; 'I' for Inactive)
REMARK    1  A    between atoms: C_1  and  C_2
REMARK    2  A    between atoms: C_5  and  N_6
REMARK    3  A    between atoms: C_9  and  C_10
REMARK    4  A    between atoms: C_15  and  C_17
REMARK    5  A    between atoms: C_20  and  C_21
REMARK    6  A    between atoms: C_22  and  C_23
REMARK    7  A    between atoms: C_26  and  C_27
REMARK                            x       y       z     vdW  Elec       q    Type
REMARK                         _______ _______ _______ _____ _____    ______ ____
ROOT
ATOM      1  C   UNL     1       0.734  10.785  19.630  0.00  0.00    +0.000 A 
ATOM      2  N   UNL     1       1.488  11.834  19.971  0.00  0.00    +0.000 NA
ATOM      3  S   UNL     1       0.478  12.959  20.639  0.00  0.00    +0.000 S 
ATOM      4  C   UNL     1      -0.896  11.956  20.505  0.00  0.00    +0.000 A 
ATOM      5  N   UNL     1      -2.139  12.322  20.976  0.00  0.00    +0.000 N 
ATOM      6  C   UNL     1      -2.354  13.406  21.804  0.00  0.00    +0.000 C 
ATOM      7  O   UNL     1      -1.513  14.215  22.182  0.00  0.00    +0.000 OA
ATOM      8  N   UNL     1      -0.639  10.813  19.907  0.00  0.00    +0.000 NA
ATOM      9  H   UNL     1      -2.865  11.635  20.822  0.00  0.00    +0.000 HD
ENDROOT
BRANCH   6  10
ATOM     10  C   UNL     1      -3.726  13.561  22.345  0.00  0.00    +0.000 A 
ATOM     11  C   UNL     1      -4.026  14.363  23.441  0.00  0.00    +0.000 A 
ATOM     12  C   UNL     1      -5.341  14.408  23.915  0.00  0.00    +0.000 A 
ATOM     13  C   UNL     1      -6.367  13.667  23.295  0.00  0.00    +0.000 A 
ATOM     14  C   UNL     1      -7.763  13.737  23.853  0.00  0.00    +0.000 C 
ATOM     15  C   UNL     1      -6.064  12.871  22.175  0.00  0.00    +0.000 A 
ATOM     16  C   UNL     1      -7.085  12.086  21.404  0.00  0.00    +0.000 C 
ATOM     17  C   UNL     1      -4.738  12.816  21.725  0.00  0.00    +0.000 A 
ENDBRANCH   6  10
BRANCH   1  21
ATOM     18  N   UNL     1       2.181   7.690  18.406  0.00  0.00    +0.000 N 
ATOM     19  N   UNL     1       2.425   8.558  17.392  0.00  0.00    +0.000 NA
ATOM     20  N   UNL     1       1.865   9.725  17.690  0.00  0.00    +0.000 NA
ATOM     21  C   UNL     1       1.343   9.631  18.948  0.00  0.00    +0.000 A 
ATOM     22  C   UNL     1       1.558   8.357  19.450  0.00  0.00    +0.000 A 
ATOM     23  C   UNL     1       1.364   7.801  20.816  0.00  0.00    +0.000 C 
BRANCH  18  28
ATOM     24  C   UNL     1       4.129   2.374  17.649  0.00  0.00    +0.000 C 
ATOM     25  C   UNL     1       3.583   3.736  17.952  0.00  0.00    +0.000 A 
ATOM     26  C   UNL     1       2.213   4.016  17.858  0.00  0.00    +0.000 A 
ATOM     27  C   UNL     1       1.733   5.312  18.080  0.00  0.00    +0.000 A 
ATOM     28  C   UNL     1       2.633   6.346  18.366  0.00  0.00    +0.000 A 
ATOM     29  C   UNL     1       3.989   6.046  18.544  0.00  0.00    +0.000 A 
ATOM     30  C   UNL     1       4.462   4.753  18.331  0.00  0.00    +0.000 A 
ENDBRANCH  18  28
ENDBRANCH   1  21
TORSDOF 3
ENDMDL
