MODEL 1
REMARK VINA RESULT:      -8.5      0.000      0.000
REMARK  Name = 
REMARK  7 active torsions:
REMARK  status: ('A' for Active; 'I' for Inactive)
REMARK    1  A    between atoms: C_1  and  O_2
REMARK    2  A    between atoms: O_2  and  C_3
REMARK    3  A    between atoms: C_6  and  C_7
REMARK    4  A    between atoms: C_8  and  C_9
REMARK    5  A    between atoms: C_9  and  C_11
REMARK    6  A    between atoms: C_16  and  C_17
REMARK    7  A    between atoms: C_25  and  O_26
REMARK                            x       y       z     vdW  Elec       q    Type
REMARK                         _______ _______ _______ _____ _____    ______ ____
ROOT
ATOM      1  C   UNL     1       7.339   6.332  17.999  0.00  0.00    +0.000 C 
ATOM      2  O   UNL     1       7.624   5.745  19.034  0.00  0.00    +0.000 OA
ENDROOT
BRANCH   1   3
ATOM      3  C   UNL     1       6.668   5.635  16.857  0.00  0.00    +0.000 A 
ATOM      4  C   UNL     1       7.519   5.238  15.800  0.00  0.00    +0.000 A 
ATOM      5  C   UNL     1       7.012   4.656  14.644  0.00  0.00    +0.000 A 
ATOM      6  C   UNL     1       5.645   4.471  14.523  0.00  0.00    +0.000 A 
ATOM      7  C   UNL     1       4.793   4.853  15.566  0.00  0.00    +0.000 A 
ATOM      8  C   UNL     1       5.265   5.450  16.762  0.00  0.00    +0.000 A 
BRANCH   8   9
ATOM      9  C   UNL     1       4.267   5.824  17.808  0.00  0.00    +0.000 A 
ATOM     10  C   UNL     1       3.545   7.033  17.767  0.00  0.00    +0.000 A 
ATOM     11  C   UNL     1       2.585   7.348  18.737  0.00  0.00    +0.000 A 
ATOM     12  C   UNL     1       2.366   6.482  19.797  0.00  0.00    +0.000 A 
ATOM     13  F   UNL     1       1.447   6.785  20.722  0.00  0.00    +0.000 F 
ATOM     14  C   UNL     1       3.091   5.308  19.906  0.00  0.00    +0.000 A 
ATOM     15  C   UNL     1       4.022   4.978  18.915  0.00  0.00    +0.000 A 
ENDBRANCH   8   9
ENDBRANCH   1   3
BRANCH   1  17
ATOM     16  C   UNL     1       8.512   8.425  18.586  0.00  0.00    +0.000 C 
ATOM     17  C   UNL     1       7.609   7.791  17.819  0.00  0.00    +0.000 C 
BRANCH  16  21
ATOM     18  C   UNL     1       9.349  12.645  18.365  0.00  0.00    +0.000 A 
ATOM     19  C   UNL     1      10.070  11.801  19.218  0.00  0.00    +0.000 A 
ATOM     20  C   UNL     1       9.794  10.429  19.286  0.00  0.00    +0.000 A 
ATOM     21  C   UNL     1       8.779   9.869  18.507  0.00  0.00    +0.000 A 
ATOM     22  C   UNL     1       8.068  10.706  17.640  0.00  0.00    +0.000 A 
ATOM     23  C   UNL     1       8.342  12.083  17.574  0.00  0.00    +0.000 A 
BRANCH  18  25
ATOM     24  C   UNL     1      10.840  14.356  17.608  0.00  0.00    +0.000 C 
ATOM     25  O   UNL     1       9.753  13.951  18.429  0.00  0.00    +0.000 OA
ENDBRANCH  18  25
BRANCH  23  26
ATOM     26  O   UNL     1       7.596  12.845  16.716  0.00  0.00    +0.000 OA
ATOM     27  H   UNL     1       7.138  13.540  17.216  0.00  0.00    +0.000 HD
ENDBRANCH  23  26
ENDBRANCH  16  21
ENDBRANCH   1  17
TORSDOF 6
ENDMDL
MODEL 2
REMARK VINA RESULT:      -8.2      0.591      1.359
REMARK  Name = 
REMARK  7 active torsions:
REMARK  status: ('A' for Active; 'I' for Inactive)
REMARK    1  A    between atoms: C_1  and  O_2
REMARK    2  A    between atoms: O_2  and  C_3
REMARK    3  A    between atoms: C_6  and  C_7
REMARK    4  A    between atoms: C_8  and  C_9
REMARK    5  A    between atoms: C_9  and  C_11
REMARK    6  A    between atoms: C_16  and  C_17
REMARK    7  A    between atoms: C_25  and  O_26
REMARK                            x       y       z     vdW  Elec       q    Type
REMARK                         _______ _______ _______ _____ _____    ______ ____
ROOT
ATOM      1  C   UNL     1       7.406   6.241  18.004  0.00  0.00    +0.000 C 
ATOM      2  O   UNL     1       7.689   5.617  19.018  0.00  0.00    +0.000 OA
ENDROOT
BRANCH   1   3
ATOM      3  C   UNL     1       6.716   5.592  16.846  0.00  0.00    +0.000 A 
ATOM      4  C   UNL     1       7.559   5.170  15.792  0.00  0.00    +0.000 A 
ATOM      5  C   UNL     1       7.037   4.627  14.623  0.00  0.00    +0.000 A 
ATOM      6  C   UNL     1       5.664   4.508  14.486  0.00  0.00    +0.000 A 
ATOM      7  C   UNL     1       4.820   4.916  15.525  0.00  0.00    +0.000 A 
ATOM      8  C   UNL     1       5.307   5.474  16.734  0.00  0.00    +0.000 A 
BRANCH   8   9
ATOM      9  C   UNL     1       4.316   5.881  17.775  0.00  0.00    +0.000 A 
ATOM     10  C   UNL     1       3.583   7.080  17.695  0.00  0.00    +0.000 A 
ATOM     11  C   UNL     1       2.630   7.425  18.661  0.00  0.00    +0.000 A 
ATOM     12  C   UNL     1       2.430   6.600  19.757  0.00  0.00    +0.000 A 
ATOM     13  F   UNL     1       1.517   6.931  20.678  0.00  0.00    +0.000 F 
ATOM     14  C   UNL     1       3.166   5.437  19.904  0.00  0.00    +0.000 A 
ATOM     15  C   UNL     1       4.090   5.077  18.917  0.00  0.00    +0.000 A 
ENDBRANCH   8   9
ENDBRANCH   1   3
BRANCH   1  17
ATOM     16  C   UNL     1       8.548   8.315  18.709  0.00  0.00    +0.000 C 
ATOM     17  C   UNL     1       7.698   7.700  17.869  0.00  0.00    +0.000 C 
BRANCH  16  21
ATOM     18  C   UNL     1       9.321  12.551  18.580  0.00  0.00    +0.000 A 
ATOM     19  C   UNL     1       8.525  11.924  17.614  0.00  0.00    +0.000 A 
ATOM     20  C   UNL     1       8.277  10.546  17.660  0.00  0.00    +0.000 A 
ATOM     21  C   UNL     1       8.830   9.758  18.673  0.00  0.00    +0.000 A 
ATOM     22  C   UNL     1       9.612  10.384  19.650  0.00  0.00    +0.000 A 
ATOM     23  C   UNL     1       9.863  11.766  19.601  0.00  0.00    +0.000 A 
BRANCH  18  25
ATOM     24  C   UNL     1      10.641  14.365  17.750  0.00  0.00    +0.000 C 
ATOM     25  O   UNL     1       9.455  13.897  18.377  0.00  0.00    +0.000 OA
ENDBRANCH  18  25
BRANCH  23  26
ATOM     26  O   UNL     1      10.651  12.308  20.581  0.00  0.00    +0.000 OA
ATOM     27  H   UNL     1      10.378  13.225  20.744  0.00  0.00    +0.000 HD
ENDBRANCH  23  26
ENDBRANCH  16  21
ENDBRANCH   1  17
TORSDOF 6
ENDMDL
MODEL 3
REMARK VINA RESULT:      -8.2      4.747      6.031
REMARK  Name = 
REMARK  7 active torsions:
REMARK  status: ('A' for Active; 'I' for Inactive)
REMARK    1  A    between atoms: C_1  and  O_2
REMARK    2  A    between atoms: O_2  and  C_3
REMARK    3  A    between atoms: C_6  and  C_7
REMARK    4  A    between atoms: C_8  and  C_9
REMARK    5  A    between atoms: C_9  and  C_11
REMARK    6  A    between atoms: C_16  and  C_17
REMARK    7  A    between atoms: C_25  and  O_26
REMARK                            x       y       z     vdW  Elec       q    Type
REMARK                         _______ _______ _______ _____ _____    ______ ____
ROOT
ATOM      1  C   UNL     1       5.667   5.462  18.490  0.00  0.00    +0.000 C 
ATOM      2  O   UNL     1       6.257   5.030  19.472  0.00  0.00    +0.000 OA
ENDROOT
BRANCH   1   3
ATOM      3  C   UNL     1       5.804   4.823  17.144  0.00  0.00    +0.000 A 
ATOM      4  C   UNL     1       6.930   5.225  16.389  0.00  0.00    +0.000 A 
ATOM      5  C   UNL     1       7.130   4.770  15.091  0.00  0.00    +0.000 A 
ATOM      6  C   UNL     1       6.200   3.915  14.524  0.00  0.00    +0.000 A 
ATOM      7  C   UNL     1       5.085   3.504  15.263  0.00  0.00    +0.000 A 
ATOM      8  C   UNL     1       4.841   3.941  16.589  0.00  0.00    +0.000 A 
BRANCH   8   9
ATOM      9  C   UNL     1       3.616   3.445  17.284  0.00  0.00    +0.000 A 
ATOM     10  C   UNL     1       3.602   2.258  18.041  0.00  0.00    +0.000 A 
ATOM     11  C   UNL     1       2.454   1.830  18.718  0.00  0.00    +0.000 A 
ATOM     12  C   UNL     1       1.278   2.557  18.606  0.00  0.00    +0.000 A 
ATOM     13  F   UNL     1       0.181   2.147  19.255  0.00  0.00    +0.000 F 
ATOM     14  C   UNL     1       1.230   3.702  17.830  0.00  0.00    +0.000 A 
ATOM     15  C   UNL     1       2.390   4.147  17.186  0.00  0.00    +0.000 A 
ENDBRANCH   8   9
ENDBRANCH   1   3
BRANCH   1  17
ATOM     16  C   UNL     1       3.497   6.497  19.059  0.00  0.00    +0.000 C 
ATOM     17  C   UNL     1       4.744   6.634  18.578  0.00  0.00    +0.000 C 
BRANCH  16  21
ATOM     18  C   UNL     1       0.618   9.699  19.159  0.00  0.00    +0.000 A 
ATOM     19  C   UNL     1       1.331   9.394  17.994  0.00  0.00    +0.000 A 
ATOM     20  C   UNL     1       2.266   8.352  17.966  0.00  0.00    +0.000 A 
ATOM     21  C   UNL     1       2.518   7.593  19.112  0.00  0.00    +0.000 A 
ATOM     22  C   UNL     1       1.795   7.883  20.274  0.00  0.00    +0.000 A 
ATOM     23  C   UNL     1       0.859   8.931  20.302  0.00  0.00    +0.000 A 
BRANCH  18  25
ATOM     24  C   UNL     1      -1.475  10.503  18.323  0.00  0.00    +0.000 C 
ATOM     25  O   UNL     1      -0.251  10.745  19.003  0.00  0.00    +0.000 OA
ENDBRANCH  18  25
BRANCH  23  26
ATOM     26  O   UNL     1       0.200   9.170  21.478  0.00  0.00    +0.000 OA
ATOM     27  H   UNL     1       0.501  10.013  21.853  0.00  0.00    +0.000 HD
ENDBRANCH  23  26
ENDBRANCH  16  21
ENDBRANCH   1  17
TORSDOF 6
ENDMDL
MODEL 4
REMARK VINA RESULT:      -8.1      4.126      6.328
REMARK  Name = 
REMARK  7 active torsions:
REMARK  status: ('A' for Active; 'I' for Inactive)
REMARK    1  A    between atoms: C_1  and  O_2
REMARK    2  A    between atoms: O_2  and  C_3
REMARK    3  A    between atoms: C_6  and  C_7
REMARK    4  A    between atoms: C_8  and  C_9
REMARK    5  A    between atoms: C_9  and  C_11
REMARK    6  A    between atoms: C_16  and  C_17
REMARK    7  A    between atoms: C_25  and  O_26
REMARK                            x       y       z     vdW  Elec       q    Type
REMARK                         _______ _______ _______ _____ _____    ______ ____
ROOT
ATOM      1  C   UNL     1       4.709   6.911  16.639  0.00  0.00    +0.000 C 
ATOM      2  O   UNL     1       4.747   6.576  15.463  0.00  0.00    +0.000 OA
ENDROOT
BRANCH   1   3
ATOM      3  C   UNL     1       5.723   6.430  17.628  0.00  0.00    +0.000 A 
ATOM      4  C   UNL     1       6.943   7.145  17.649  0.00  0.00    +0.000 A 
ATOM      5  C   UNL     1       7.998   6.750  18.463  0.00  0.00    +0.000 A 
ATOM      6  C   UNL     1       7.854   5.626  19.260  0.00  0.00    +0.000 A 
ATOM      7  C   UNL     1       6.650   4.915  19.253  0.00  0.00    +0.000 A 
ATOM      8  C   UNL     1       5.547   5.281  18.441  0.00  0.00    +0.000 A 
BRANCH   8   9
ATOM      9  C   UNL     1       4.311   4.446  18.508  0.00  0.00    +0.000 A 
ATOM     10  C   UNL     1       3.454   4.448  19.626  0.00  0.00    +0.000 A 
ATOM     11  C   UNL     1       2.279   3.688  19.654  0.00  0.00    +0.000 A 
ATOM     12  C   UNL     1       1.963   2.868  18.581  0.00  0.00    +0.000 A 
ATOM     13  F   UNL     1       0.838   2.143  18.608  0.00  0.00    +0.000 F 
ATOM     14  C   UNL     1       2.803   2.794  17.483  0.00  0.00    +0.000 A 
ATOM     15  C   UNL     1       3.957   3.583  17.443  0.00  0.00    +0.000 A 
ENDBRANCH   8   9
ENDBRANCH   1   3
BRANCH   1  17
ATOM     16  C   UNL     1       2.996   7.580  18.288  0.00  0.00    +0.000 C 
ATOM     17  C   UNL     1       3.670   7.851  17.158  0.00  0.00    +0.000 C 
BRANCH  16  21
ATOM     18  C   UNL     1      -0.137  10.065  19.891  0.00  0.00    +0.000 A 
ATOM     19  C   UNL     1       0.559   9.156  20.697  0.00  0.00    +0.000 A 
ATOM     20  C   UNL     1       1.577   8.350  20.171  0.00  0.00    +0.000 A 
ATOM     21  C   UNL     1       1.918   8.428  18.818  0.00  0.00    +0.000 A 
ATOM     22  C   UNL     1       1.236   9.348  18.014  0.00  0.00    +0.000 A 
ATOM     23  C   UNL     1       0.213  10.154  18.541  0.00  0.00    +0.000 A 
BRANCH  18  25
ATOM     24  C   UNL     1      -0.722  11.407  21.784  0.00  0.00    +0.000 C 
ATOM     25  O   UNL     1      -1.095  10.766  20.572  0.00  0.00    +0.000 OA
ENDBRANCH  18  25
BRANCH  23  26
ATOM     26  O   UNL     1      -0.423  11.020  17.692  0.00  0.00    +0.000 OA
ATOM     27  H   UNL     1      -0.851  10.519  16.979  0.00  0.00    +0.000 HD
ENDBRANCH  23  26
ENDBRANCH  16  21
ENDBRANCH   1  17
TORSDOF 6
ENDMDL
MODEL 5
REMARK VINA RESULT:      -8.0      4.794      5.771
REMARK  Name = 
REMARK  7 active torsions:
REMARK  status: ('A' for Active; 'I' for Inactive)
REMARK    1  A    between atoms: C_1  and  O_2
REMARK    2  A    between atoms: O_2  and  C_3
REMARK    3  A    between atoms: C_6  and  C_7
REMARK    4  A    between atoms: C_8  and  C_9
REMARK    5  A    between atoms: C_9  and  C_11
REMARK    6  A    between atoms: C_16  and  C_17
REMARK    7  A    between atoms: C_25  and  O_26
REMARK                            x       y       z     vdW  Elec       q    Type
REMARK                         _______ _______ _______ _____ _____    ______ ____
ROOT
ATOM      1  C   UNL     1       5.884   5.040  18.637  0.00  0.00    +0.000 C 
ATOM      2  O   UNL     1       6.812   4.737  19.375  0.00  0.00    +0.000 OA
ENDROOT
BRANCH   1   3
ATOM      3  C   UNL     1       5.857   4.635  17.198  0.00  0.00    +0.000 A 
ATOM      4  C   UNL     1       6.956   5.069  16.421  0.00  0.00    +0.000 A 
ATOM      5  C   UNL     1       7.013   4.831  15.053  0.00  0.00    +0.000 A 
ATOM      6  C   UNL     1       5.966   4.165  14.438  0.00  0.00    +0.000 A 
ATOM      7  C   UNL     1       4.877   3.723  15.197  0.00  0.00    +0.000 A 
ATOM      8  C   UNL     1       4.776   3.943  16.594  0.00  0.00    +0.000 A 
BRANCH   8   9
ATOM      9  C   UNL     1       3.565   3.434  17.305  0.00  0.00    +0.000 A 
ATOM     10  C   UNL     1       3.568   2.236  18.044  0.00  0.00    +0.000 A 
ATOM     11  C   UNL     1       2.434   1.795  18.737  0.00  0.00    +0.000 A 
ATOM     12  C   UNL     1       1.255   2.522  18.659  0.00  0.00    +0.000 A 
ATOM     13  F   UNL     1       0.172   2.100  19.323  0.00  0.00    +0.000 F 
ATOM     14  C   UNL     1       1.191   3.678  17.902  0.00  0.00    +0.000 A 
ATOM     15  C   UNL     1       2.337   4.135  17.242  0.00  0.00    +0.000 A 
ENDBRANCH   8   9
ENDBRANCH   1   3
BRANCH   1  17
ATOM     16  C   UNL     1       4.054   6.673  18.337  0.00  0.00    +0.000 C 
ATOM     17  C   UNL     1       4.699   5.804  19.134  0.00  0.00    +0.000 C 
BRANCH  16  21
ATOM     18  C   UNL     1       0.762   9.097  19.693  0.00  0.00    +0.000 A 
ATOM     19  C   UNL     1       1.247   8.030  20.459  0.00  0.00    +0.000 A 
ATOM     20  C   UNL     1       2.318   7.244  20.013  0.00  0.00    +0.000 A 
ATOM     21  C   UNL     1       2.925   7.503  18.782  0.00  0.00    +0.000 A 
ATOM     22  C   UNL     1       2.454   8.580  18.022  0.00  0.00    +0.000 A 
ATOM     23  C   UNL     1       1.378   9.366  18.468  0.00  0.00    +0.000 A 
BRANCH  18  25
ATOM     24  C   UNL     1      -0.001  10.904  21.064  0.00  0.00    +0.000 C 
ATOM     25  O   UNL     1      -0.286   9.751  20.283  0.00  0.00    +0.000 OA
ENDBRANCH  18  25
BRANCH  23  26
ATOM     26  O   UNL     1       0.959  10.393  17.666  0.00  0.00    +0.000 OA
ATOM     27  H   UNL     1       1.285  11.235  18.021  0.00  0.00    +0.000 HD
ENDBRANCH  23  26
ENDBRANCH  16  21
ENDBRANCH   1  17
TORSDOF 6
ENDMDL
MODEL 6
REMARK VINA RESULT:      -8.0      4.829      5.834
REMARK  Name = 
REMARK  7 active torsions:
REMARK  status: ('A' for Active; 'I' for Inactive)
REMARK    1  A    between atoms: C_1  and  O_2
REMARK    2  A    between atoms: O_2  and  C_3
REMARK    3  A    between atoms: C_6  and  C_7
REMARK    4  A    between atoms: C_8  and  C_9
REMARK    5  A    between atoms: C_9  and  C_11
REMARK    6  A    between atoms: C_16  and  C_17
REMARK    7  A    between atoms: C_25  and  O_26
REMARK                            x       y       z     vdW  Elec       q    Type
REMARK                         _______ _______ _______ _____ _____    ______ ____
ROOT
ATOM      1  C   UNL     1       5.734   5.223  18.859  0.00  0.00    +0.000 C 
ATOM      2  O   UNL     1       6.573   4.882  19.682  0.00  0.00    +0.000 OA
ENDROOT
BRANCH   1   3
ATOM      3  C   UNL     1       5.812   4.793  17.428  0.00  0.00    +0.000 A 
ATOM      4  C   UNL     1       6.940   5.257  16.712  0.00  0.00    +0.000 A 
ATOM      5  C   UNL     1       7.091   4.997  15.355  0.00  0.00    +0.000 A 
ATOM      6  C   UNL     1       6.111   4.280  14.690  0.00  0.00    +0.000 A 
ATOM      7  C   UNL     1       4.994   3.810  15.388  0.00  0.00    +0.000 A 
ATOM      8  C   UNL     1       4.798   4.049  16.772  0.00  0.00    +0.000 A 
BRANCH   8   9
ATOM      9  C   UNL     1       3.565   3.506  17.417  0.00  0.00    +0.000 A 
ATOM     10  C   UNL     1       2.325   4.171  17.361  0.00  0.00    +0.000 A 
ATOM     11  C   UNL     1       1.172   3.626  17.939  0.00  0.00    +0.000 A 
ATOM     12  C   UNL     1       1.249   2.427  18.631  0.00  0.00    +0.000 A 
ATOM     13  F   UNL     1       0.145   1.906  19.181  0.00  0.00    +0.000 F 
ATOM     14  C   UNL     1       2.458   1.764  18.757  0.00  0.00    +0.000 A 
ATOM     15  C   UNL     1       3.600   2.293  18.146  0.00  0.00    +0.000 A 
ENDBRANCH   8   9
ENDBRANCH   1   3
BRANCH   1  17
ATOM     16  C   UNL     1       3.928   6.822  18.323  0.00  0.00    +0.000 C 
ATOM     17  C   UNL     1       4.556   6.061  19.236  0.00  0.00    +0.000 C 
BRANCH  16  21
ATOM     18  C   UNL     1       0.627   9.448  19.197  0.00  0.00    +0.000 A 
ATOM     19  C   UNL     1       1.274   9.476  17.956  0.00  0.00    +0.000 A 
ATOM     20  C   UNL     1       2.348   8.620  17.677  0.00  0.00    +0.000 A 
ATOM     21  C   UNL     1       2.807   7.718  18.640  0.00  0.00    +0.000 A 
ATOM     22  C   UNL     1       2.151   7.675  19.875  0.00  0.00    +0.000 A 
ATOM     23  C   UNL     1       1.076   8.536  20.157  0.00  0.00    +0.000 A 
BRANCH  18  25
ATOM     24  C   UNL     1      -0.072  11.734  19.280  0.00  0.00    +0.000 C 
ATOM     25  O   UNL     1      -0.397  10.351  19.293  0.00  0.00    +0.000 OA
ENDBRANCH  18  25
BRANCH  23  26
ATOM     26  O   UNL     1       0.493   8.450  21.392  0.00  0.00    +0.000 OA
ATOM     27  H   UNL     1      -0.410   8.105  21.300  0.00  0.00    +0.000 HD
ENDBRANCH  23  26
ENDBRANCH  16  21
ENDBRANCH   1  17
TORSDOF 6
ENDMDL
MODEL 7
REMARK VINA RESULT:      -8.0      4.113      6.516
REMARK  Name = 
REMARK  7 active torsions:
REMARK  status: ('A' for Active; 'I' for Inactive)
REMARK    1  A    between atoms: C_1  and  O_2
REMARK    2  A    between atoms: O_2  and  C_3
REMARK    3  A    between atoms: C_6  and  C_7
REMARK    4  A    between atoms: C_8  and  C_9
REMARK    5  A    between atoms: C_9  and  C_11
REMARK    6  A    between atoms: C_16  and  C_17
REMARK    7  A    between atoms: C_25  and  O_26
REMARK                            x       y       z     vdW  Elec       q    Type
REMARK                         _______ _______ _______ _____ _____    ______ ____
ROOT
ATOM      1  C   UNL     1       4.677   7.081  16.723  0.00  0.00    +0.000 C 
ATOM      2  O   UNL     1       4.673   6.789  15.534  0.00  0.00    +0.000 OA
ENDROOT
BRANCH   1   3
ATOM      3  C   UNL     1       5.684   6.509  17.670  0.00  0.00    +0.000 A 
ATOM      4  C   UNL     1       6.931   7.174  17.711  0.00  0.00    +0.000 A 
ATOM      5  C   UNL     1       7.980   6.696  18.487  0.00  0.00    +0.000 A 
ATOM      6  C   UNL     1       7.802   5.538  19.226  0.00  0.00    +0.000 A 
ATOM      7  C   UNL     1       6.571   4.874  19.199  0.00  0.00    +0.000 A 
ATOM      8  C   UNL     1       5.473   5.325  18.424  0.00  0.00    +0.000 A 
BRANCH   8   9
ATOM      9  C   UNL     1       4.206   4.536  18.464  0.00  0.00    +0.000 A 
ATOM     10  C   UNL     1       3.757   3.767  17.373  0.00  0.00    +0.000 A 
ATOM     11  C   UNL     1       2.586   3.003  17.444  0.00  0.00    +0.000 A 
ATOM     12  C   UNL     1       1.811   3.035  18.594  0.00  0.00    +0.000 A 
ATOM     13  F   UNL     1       0.693   2.302  18.660  0.00  0.00    +0.000 F 
ATOM     14  C   UNL     1       2.186   3.818  19.672  0.00  0.00    +0.000 A 
ATOM     15  C   UNL     1       3.377   4.551  19.611  0.00  0.00    +0.000 A 
ENDBRANCH   8   9
ENDBRANCH   1   3
BRANCH   1  17
ATOM     16  C   UNL     1       2.772   7.658  18.186  0.00  0.00    +0.000 C 
ATOM     17  C   UNL     1       3.701   8.054  17.299  0.00  0.00    +0.000 C 
BRANCH  16  21
ATOM     18  C   UNL     1      -0.272  10.264  19.764  0.00  0.00    +0.000 A 
ATOM     19  C   UNL     1       0.047  10.255  18.401  0.00  0.00    +0.000 A 
ATOM     20  C   UNL     1       1.038   9.406  17.893  0.00  0.00    +0.000 A 
ATOM     21  C   UNL     1       1.743   8.548  18.742  0.00  0.00    +0.000 A 
ATOM     22  C   UNL     1       1.414   8.542  20.102  0.00  0.00    +0.000 A 
ATOM     23  C   UNL     1       0.422   9.396  20.612  0.00  0.00    +0.000 A 
BRANCH  18  25
ATOM     24  C   UNL     1      -2.018  11.721  19.020  0.00  0.00    +0.000 C 
ATOM     25  O   UNL     1      -1.262  11.154  20.082  0.00  0.00    +0.000 OA
ENDBRANCH  18  25
BRANCH  23  26
ATOM     26  O   UNL     1       0.164   9.348  21.956  0.00  0.00    +0.000 OA
ATOM     27  H   UNL     1      -0.549   8.712  22.126  0.00  0.00    +0.000 HD
ENDBRANCH  23  26
ENDBRANCH  16  21
ENDBRANCH   1  17
TORSDOF 6
ENDMDL
MODEL 8
REMARK VINA RESULT:      -8.0      5.237      7.653
REMARK  Name = 
REMARK  7 active torsions:
REMARK  status: ('A' for Active; 'I' for Inactive)
REMARK    1  A    between atoms: C_1  and  O_2
REMARK    2  A    between atoms: O_2  and  C_3
REMARK    3  A    between atoms: C_6  and  C_7
REMARK    4  A    between atoms: C_8  and  C_9
REMARK    5  A    between atoms: C_9  and  C_11
REMARK    6  A    between atoms: C_16  and  C_17
REMARK    7  A    between atoms: C_25  and  O_26
REMARK                            x       y       z     vdW  Elec       q    Type
REMARK                         _______ _______ _______ _____ _____    ______ ____
ROOT
ATOM      1  C   UNL     1       2.781   6.334  18.945  0.00  0.00    +0.000 C 
ATOM      2  O   UNL     1       3.537   6.811  18.109  0.00  0.00    +0.000 OA
ENDROOT
BRANCH   1   3
ATOM      3  C   UNL     1       2.517   4.864  19.021  0.00  0.00    +0.000 A 
ATOM      4  C   UNL     1       1.418   4.482  19.826  0.00  0.00    +0.000 A 
ATOM      5  C   UNL     1       1.115   3.143  20.046  0.00  0.00    +0.000 A 
ATOM      6  C   UNL     1       1.913   2.166  19.475  0.00  0.00    +0.000 A 
ATOM      7  C   UNL     1       2.998   2.531  18.671  0.00  0.00    +0.000 A 
ATOM      8  C   UNL     1       3.344   3.882  18.418  0.00  0.00    +0.000 A 
BRANCH   8   9
ATOM      9  C   UNL     1       4.527   4.159  17.549  0.00  0.00    +0.000 A 
ATOM     10  C   UNL     1       5.812   4.402  18.073  0.00  0.00    +0.000 A 
ATOM     11  C   UNL     1       6.916   4.621  17.241  0.00  0.00    +0.000 A 
ATOM     12  C   UNL     1       6.746   4.653  15.865  0.00  0.00    +0.000 A 
ATOM     13  F   UNL     1       7.804   4.861  15.071  0.00  0.00    +0.000 F 
ATOM     14  C   UNL     1       5.493   4.472  15.308  0.00  0.00    +0.000 A 
ATOM     15  C   UNL     1       4.398   4.216  16.141  0.00  0.00    +0.000 A 
ENDBRANCH   8   9
ENDBRANCH   1   3
BRANCH   1  17
ATOM     16  C   UNL     1       1.486   8.328  19.617  0.00  0.00    +0.000 C 
ATOM     17  C   UNL     1       2.100   7.185  19.968  0.00  0.00    +0.000 C 
BRANCH  16  21
ATOM     18  C   UNL     1      -0.398  11.028  22.395  0.00  0.00    +0.000 A 
ATOM     19  C   UNL     1      -0.258  11.353  21.040  0.00  0.00    +0.000 A 
ATOM     20  C   UNL     1       0.355  10.472  20.141  0.00  0.00    +0.000 A 
ATOM     21  C   UNL     1       0.854   9.242  20.579  0.00  0.00    +0.000 A 
ATOM     22  C   UNL     1       0.701   8.906  21.929  0.00  0.00    +0.000 A 
ATOM     23  C   UNL     1       0.089   9.792  22.832  0.00  0.00    +0.000 A 
BRANCH  18  25
ATOM     24  C   UNL     1      -0.889  13.351  22.688  0.00  0.00    +0.000 C 
ATOM     25  O   UNL     1      -1.019  12.005  23.124  0.00  0.00    +0.000 OA
ENDBRANCH  18  25
BRANCH  23  26
ATOM     26  O   UNL     1      -0.013   9.405  24.141  0.00  0.00    +0.000 OA
ATOM     27  H   UNL     1       0.785   8.915  24.396  0.00  0.00    +0.000 HD
ENDBRANCH  23  26
ENDBRANCH  16  21
ENDBRANCH   1  17
TORSDOF 6
ENDMDL
MODEL 9
REMARK VINA RESULT:      -7.9      5.236      7.673
REMARK  Name = 
REMARK  7 active torsions:
REMARK  status: ('A' for Active; 'I' for Inactive)
REMARK    1  A    between atoms: C_1  and  O_2
REMARK    2  A    between atoms: O_2  and  C_3
REMARK    3  A    between atoms: C_6  and  C_7
REMARK    4  A    between atoms: C_8  and  C_9
REMARK    5  A    between atoms: C_9  and  C_11
REMARK    6  A    between atoms: C_16  and  C_17
REMARK    7  A    between atoms: C_25  and  O_26
REMARK                            x       y       z     vdW  Elec       q    Type
REMARK                         _______ _______ _______ _____ _____    ______ ____
ROOT
ATOM      1  C   UNL     1       2.786   6.328  18.822  0.00  0.00    +0.000 C 
ATOM      2  O   UNL     1       3.451   6.768  17.893  0.00  0.00    +0.000 OA
ENDROOT
BRANCH   1   3
ATOM      3  C   UNL     1       2.551   4.861  18.997  0.00  0.00    +0.000 A 
ATOM      4  C   UNL     1       1.468   4.512  19.837  0.00  0.00    +0.000 A 
ATOM      5  C   UNL     1       1.194   3.186  20.148  0.00  0.00    +0.000 A 
ATOM      6  C   UNL     1       2.005   2.188  19.634  0.00  0.00    +0.000 A 
ATOM      7  C   UNL     1       3.075   2.520  18.796  0.00  0.00    +0.000 A 
ATOM      8  C   UNL     1       3.392   3.858  18.450  0.00  0.00    +0.000 A 
BRANCH   8   9
ATOM      9  C   UNL     1       4.561   4.099  17.553  0.00  0.00    +0.000 A 
ATOM     10  C   UNL     1       4.473   4.000  16.151  0.00  0.00    +0.000 A 
ATOM     11  C   UNL     1       5.571   4.269  15.324  0.00  0.00    +0.000 A 
ATOM     12  C   UNL     1       6.795   4.591  15.889  0.00  0.00    +0.000 A 
ATOM     13  F   UNL     1       7.843   4.849  15.096  0.00  0.00    +0.000 F 
ATOM     14  C   UNL     1       6.942   4.649  17.264  0.00  0.00    +0.000 A 
ATOM     15  C   UNL     1       5.833   4.417  18.086  0.00  0.00    +0.000 A 
ENDBRANCH   8   9
ENDBRANCH   1   3
BRANCH   1  17
ATOM     16  C   UNL     1       1.450   8.287  19.516  0.00  0.00    +0.000 C 
ATOM     17  C   UNL     1       2.195   7.224  19.862  0.00  0.00    +0.000 C 
BRANCH  16  21
ATOM     18  C   UNL     1      -0.206  11.116  22.309  0.00  0.00    +0.000 A 
ATOM     19  C   UNL     1       0.032  11.463  20.974  0.00  0.00    +0.000 A 
ATOM     20  C   UNL     1       0.571  10.539  20.069  0.00  0.00    +0.000 A 
ATOM     21  C   UNL     1       0.895   9.244  20.484  0.00  0.00    +0.000 A 
ATOM     22  C   UNL     1       0.642   8.889  21.813  0.00  0.00    +0.000 A 
ATOM     23  C   UNL     1       0.104   9.817  22.722  0.00  0.00    +0.000 A 
BRANCH  18  25
ATOM     24  C   UNL     1      -2.148  12.227  23.159  0.00  0.00    +0.000 C 
ATOM     25  O   UNL     1      -0.734  12.141  23.047  0.00  0.00    +0.000 OA
ENDBRANCH  18  25
BRANCH  23  26
ATOM     26  O   UNL     1      -0.102   9.406  24.011  0.00  0.00    +0.000 OA
ATOM     27  H   UNL     1      -0.720  10.013  24.449  0.00  0.00    +0.000 HD
ENDBRANCH  23  26
ENDBRANCH  16  21
ENDBRANCH   1  17
TORSDOF 6
ENDMDL
