MODEL 1
REMARK VINA RESULT:      -5.1      0.000      0.000
REMARK  Name = 
REMARK  0 active torsions:
REMARK  status: ('A' for Active; 'I' for Inactive)
REMARK                            x       y       z     vdW  Elec       q    Type
REMARK                         _______ _______ _______ _____ _____    ______ ____
ROOT
ATOM      1  C   UNL     1       7.374   7.185  17.462  0.00  0.00    +0.000 A 
ATOM      2  C   UNL     1       8.013   6.728  18.634  0.00  0.00    +0.000 A 
ATOM      3  C   UNL     1       7.316   5.623  19.076  0.00  0.00    +0.000 A 
ATOM      4  N   UNL     1       6.263   5.377  18.213  0.00  0.00    +0.000 N 
ATOM      5  C   UNL     1       5.316   4.357  18.304  0.00  0.00    +0.000 A 
ATOM      6  N   UNL     1       4.366   4.136  17.417  0.00  0.00    +0.000 NA
ATOM      7  C   UNL     1       3.678   3.046  17.888  0.00  0.00    +0.000 A 
ATOM      8  C   UNL     1       4.208   2.614  19.081  0.00  0.00    +0.000 A 
ATOM      9  N   UNL     1       5.254   3.456  19.334  0.00  0.00    +0.000 N 
ATOM     10  C   UNL     1       6.315   6.339  17.221  0.00  0.00    +0.000 A 
ATOM     11  H   UNL     1       5.862   3.431  20.141  0.00  0.00    +0.000 HD
ENDROOT
TORSDOF 0
ENDMDL
MODEL 2
REMARK VINA RESULT:      -5.0      2.139      4.674
REMARK  Name = 
REMARK  0 active torsions:
REMARK  status: ('A' for Active; 'I' for Inactive)
REMARK                            x       y       z     vdW  Elec       q    Type
REMARK                         _______ _______ _______ _____ _____    ______ ____
ROOT
ATOM      1  C   UNL     1       0.978   3.519  20.464  0.00  0.00    +0.000 A 
ATOM      2  C   UNL     1       1.834   2.641  21.162  0.00  0.00    +0.000 A 
ATOM      3  C   UNL     1       3.104   2.818  20.656  0.00  0.00    +0.000 A 
ATOM      4  N   UNL     1       3.066   3.781  19.664  0.00  0.00    +0.000 N 
ATOM      5  C   UNL     1       4.134   4.250  18.899  0.00  0.00    +0.000 A 
ATOM      6  N   UNL     1       4.049   5.214  18.004  0.00  0.00    +0.000 NA
ATOM      7  C   UNL     1       5.319   5.357  17.504  0.00  0.00    +0.000 A 
ATOM      8  C   UNL     1       6.178   4.458  18.091  0.00  0.00    +0.000 A 
ATOM      9  N   UNL     1       5.411   3.760  18.982  0.00  0.00    +0.000 N 
ATOM     10  C   UNL     1       1.756   4.210  19.561  0.00  0.00    +0.000 A 
ATOM     11  H   UNL     1       5.723   3.008  19.581  0.00  0.00    +0.000 HD
ENDROOT
TORSDOF 0
ENDMDL
MODEL 3
REMARK VINA RESULT:      -4.9      1.646      4.161
REMARK  Name = 
REMARK  0 active torsions:
REMARK  status: ('A' for Active; 'I' for Inactive)
REMARK                            x       y       z     vdW  Elec       q    Type
REMARK                         _______ _______ _______ _____ _____    ______ ____
ROOT
ATOM      1  C   UNL     1       1.876   3.287  18.129  0.00  0.00    +0.000 A 
ATOM      2  C   UNL     1       2.361   3.212  19.452  0.00  0.00    +0.000 A 
ATOM      3  C   UNL     1       3.703   3.528  19.415  0.00  0.00    +0.000 A 
ATOM      4  N   UNL     1       4.068   3.800  18.109  0.00  0.00    +0.000 N 
ATOM      5  C   UNL     1       5.333   4.156  17.642  0.00  0.00    +0.000 A 
ATOM      6  N   UNL     1       5.611   4.461  16.390  0.00  0.00    +0.000 NA
ATOM      7  C   UNL     1       6.952   4.753  16.378  0.00  0.00    +0.000 A 
ATOM      8  C   UNL     1       7.494   4.607  17.633  0.00  0.00    +0.000 A 
ATOM      9  N   UNL     1       6.451   4.229  18.432  0.00  0.00    +0.000 N 
ATOM     10  C   UNL     1       2.935   3.656  17.330  0.00  0.00    +0.000 A 
ATOM     11  H   UNL     1       6.496   4.024  19.420  0.00  0.00    +0.000 HD
ENDROOT
TORSDOF 0
ENDMDL
MODEL 4
REMARK VINA RESULT:      -4.9      0.132      1.659
REMARK  Name = 
REMARK  0 active torsions:
REMARK  status: ('A' for Active; 'I' for Inactive)
REMARK                            x       y       z     vdW  Elec       q    Type
REMARK                         _______ _______ _______ _____ _____    ______ ____
ROOT
ATOM      1  C   UNL     1       7.950   6.689  18.649  0.00  0.00    +0.000 A 
ATOM      2  C   UNL     1       7.392   7.054  17.405  0.00  0.00    +0.000 A 
ATOM      3  C   UNL     1       6.329   6.209  17.169  0.00  0.00    +0.000 A 
ATOM      4  N   UNL     1       6.207   5.329  18.229  0.00  0.00    +0.000 N 
ATOM      5  C   UNL     1       5.263   4.312  18.379  0.00  0.00    +0.000 A 
ATOM      6  N   UNL     1       5.158   3.539  19.441  0.00  0.00    +0.000 NA
ATOM      7  C   UNL     1       4.108   2.697  19.173  0.00  0.00    +0.000 A 
ATOM      8  C   UNL     1       3.582   2.954  17.928  0.00  0.00    +0.000 A 
ATOM      9  N   UNL     1       4.326   3.989  17.433  0.00  0.00    +0.000 N 
ATOM     10  C   UNL     1       7.203   5.640  19.135  0.00  0.00    +0.000 A 
ATOM     11  H   UNL     1       4.217   4.425  16.528  0.00  0.00    +0.000 HD
ENDROOT
TORSDOF 0
ENDMDL
MODEL 5
REMARK VINA RESULT:      -4.9      2.049      4.881
REMARK  Name = 
REMARK  0 active torsions:
REMARK  status: ('A' for Active; 'I' for Inactive)
REMARK                            x       y       z     vdW  Elec       q    Type
REMARK                         _______ _______ _______ _____ _____    ______ ____
ROOT
ATOM      1  C   UNL     1       0.904   3.289  19.796  0.00  0.00    +0.000 A 
ATOM      2  C   UNL     1       1.170   2.288  18.837  0.00  0.00    +0.000 A 
ATOM      3  C   UNL     1       2.446   2.506  18.361  0.00  0.00    +0.000 A 
ATOM      4  N   UNL     1       2.983   3.612  18.995  0.00  0.00    +0.000 N 
ATOM      5  C   UNL     1       4.247   4.168  18.797  0.00  0.00    +0.000 A 
ATOM      6  N   UNL     1       4.729   5.192  19.473  0.00  0.00    +0.000 NA
ATOM      7  C   UNL     1       5.988   5.398  18.968  0.00  0.00    +0.000 A 
ATOM      8  C   UNL     1       6.264   4.501  17.964  0.00  0.00    +0.000 A 
ATOM      9  N   UNL     1       5.147   3.719  17.866  0.00  0.00    +0.000 N 
ATOM     10  C   UNL     1       2.029   4.079  19.879  0.00  0.00    +0.000 A 
ATOM     11  H   UNL     1       5.002   2.959  17.216  0.00  0.00    +0.000 HD
ENDROOT
TORSDOF 0
ENDMDL
MODEL 6
REMARK VINA RESULT:      -4.9      1.000      1.086
REMARK  Name = 
REMARK  0 active torsions:
REMARK  status: ('A' for Active; 'I' for Inactive)
REMARK                            x       y       z     vdW  Elec       q    Type
REMARK                         _______ _______ _______ _____ _____    ______ ____
ROOT
ATOM      1  C   UNL     1       6.210   7.014  17.200  0.00  0.00    +0.000 A 
ATOM      2  C   UNL     1       7.378   6.371  17.663  0.00  0.00    +0.000 A 
ATOM      3  C   UNL     1       6.984   5.211  18.297  0.00  0.00    +0.000 A 
ATOM      4  N   UNL     1       5.606   5.112  18.242  0.00  0.00    +0.000 N 
ATOM      5  C   UNL     1       4.810   4.094  18.767  0.00  0.00    +0.000 A 
ATOM      6  N   UNL     1       3.501   4.022  18.633  0.00  0.00    +0.000 NA
ATOM      7  C   UNL     1       3.133   2.872  19.287  0.00  0.00    +0.000 A 
ATOM      8  C   UNL     1       4.230   2.251  19.836  0.00  0.00    +0.000 A 
ATOM      9  N   UNL     1       5.295   3.038  19.494  0.00  0.00    +0.000 N 
ATOM     10  C   UNL     1       5.143   6.221  17.559  0.00  0.00    +0.000 A 
ATOM     11  H   UNL     1       6.261   2.881  19.745  0.00  0.00    +0.000 HD
ENDROOT
TORSDOF 0
ENDMDL
MODEL 7
REMARK VINA RESULT:      -4.8      1.567      4.375
REMARK  Name = 
REMARK  0 active torsions:
REMARK  status: ('A' for Active; 'I' for Inactive)
REMARK                            x       y       z     vdW  Elec       q    Type
REMARK                         _______ _______ _______ _____ _____    ______ ____
ROOT
ATOM      1  C   UNL     1       2.084   3.829  19.430  0.00  0.00    +0.000 A 
ATOM      2  C   UNL     1       1.874   3.356  18.118  0.00  0.00    +0.000 A 
ATOM      3  C   UNL     1       3.071   3.471  17.444  0.00  0.00    +0.000 A 
ATOM      4  N   UNL     1       4.022   4.001  18.298  0.00  0.00    +0.000 N 
ATOM      5  C   UNL     1       5.357   4.279  18.007  0.00  0.00    +0.000 A 
ATOM      6  N   UNL     1       6.235   4.731  18.881  0.00  0.00    +0.000 NA
ATOM      7  C   UNL     1       7.410   4.854  18.182  0.00  0.00    +0.000 A 
ATOM      8  C   UNL     1       7.237   4.488  16.868  0.00  0.00    +0.000 A 
ATOM      9  N   UNL     1       5.923   4.120  16.770  0.00  0.00    +0.000 N 
ATOM     10  C   UNL     1       3.405   4.209  19.517  0.00  0.00    +0.000 A 
ATOM     11  H   UNL     1       5.451   3.804  15.934  0.00  0.00    +0.000 HD
ENDROOT
TORSDOF 0
ENDMDL
MODEL 8
REMARK VINA RESULT:      -4.8      1.830      4.650
REMARK  Name = 
REMARK  0 active torsions:
REMARK  status: ('A' for Active; 'I' for Inactive)
REMARK                            x       y       z     vdW  Elec       q    Type
REMARK                         _______ _______ _______ _____ _____    ______ ____
ROOT
ATOM      1  C   UNL     1       1.021   2.580  19.009  0.00  0.00    +0.000 A 
ATOM      2  C   UNL     1       1.671   2.502  20.259  0.00  0.00    +0.000 A 
ATOM      3  C   UNL     1       2.968   2.935  20.074  0.00  0.00    +0.000 A 
ATOM      4  N   UNL     1       3.144   3.281  18.747  0.00  0.00    +0.000 N 
ATOM      5  C   UNL     1       4.308   3.761  18.146  0.00  0.00    +0.000 A 
ATOM      6  N   UNL     1       4.401   4.130  16.884  0.00  0.00    +0.000 NA
ATOM      7  C   UNL     1       5.702   4.538  16.722  0.00  0.00    +0.000 A 
ATOM      8  C   UNL     1       6.407   4.398  17.895  0.00  0.00    +0.000 A 
ATOM      9  N   UNL     1       5.505   3.904  18.797  0.00  0.00    +0.000 N 
ATOM     10  C   UNL     1       1.939   3.066  18.105  0.00  0.00    +0.000 A 
ATOM     11  H   UNL     1       5.690   3.671  19.762  0.00  0.00    +0.000 HD
ENDROOT
TORSDOF 0
ENDMDL
MODEL 9
REMARK VINA RESULT:      -4.8      2.227      4.924
REMARK  Name = 
REMARK  0 active torsions:
REMARK  status: ('A' for Active; 'I' for Inactive)
REMARK                            x       y       z     vdW  Elec       q    Type
REMARK                         _______ _______ _______ _____ _____    ______ ____
ROOT
ATOM      1  C   UNL     1       1.804   2.692  21.091  0.00  0.00    +0.000 A 
ATOM      2  C   UNL     1       1.010   3.728  20.556  0.00  0.00    +0.000 A 
ATOM      3  C   UNL     1       1.835   4.520  19.786  0.00  0.00    +0.000 A 
ATOM      4  N   UNL     1       3.119   4.007  19.823  0.00  0.00    +0.000 N 
ATOM      5  C   UNL     1       4.250   4.513  19.184  0.00  0.00    +0.000 A 
ATOM      6  N   UNL     1       5.441   3.948  19.209  0.00  0.00    +0.000 NA
ATOM      7  C   UNL     1       6.244   4.764  18.452  0.00  0.00    +0.000 A 
ATOM      8  C   UNL     1       5.536   5.842  17.978  0.00  0.00    +0.000 A 
ATOM      9  N   UNL     1       4.264   5.670  18.449  0.00  0.00    +0.000 N 
ATOM     10  C   UNL     1       3.085   2.880  20.622  0.00  0.00    +0.000 A 
ATOM     11  H   UNL     1       3.480   6.289  18.297  0.00  0.00    +0.000 HD
ENDROOT
TORSDOF 0
ENDMDL
