MODEL 1
REMARK VINA RESULT:      -8.7      0.000      0.000
REMARK  Name = 
REMARK  8 active torsions:
REMARK  status: ('A' for Active; 'I' for Inactive)
REMARK    1  A    between atoms: C_1  and  C_2
REMARK    2  A    between atoms: N_4  and  C_5
REMARK    3  A    between atoms: C_5  and  C_6
REMARK    4  A    between atoms: C_5  and  C_7
REMARK    5  A    between atoms: C_10  and  O_11
REMARK    6  A    between atoms: O_11  and  C_12
REMARK    7  A    between atoms: N_15  and  C_16
REMARK    8  A    between atoms: C_20  and  C_21
REMARK                            x       y       z     vdW  Elec       q    Type
REMARK                         _______ _______ _______ _____ _____    ______ ____
ROOT
ATOM      1  C   UNL     1       2.063   6.462  19.293  0.00  0.00    +0.000 C 
ATOM      2  C   UNL     1       2.639   5.165  19.873  0.00  0.00    +0.000 C 
ATOM      3  C   UNL     1       4.128   5.182  19.524  0.00  0.00    +0.000 C 
ATOM      4  N   UNL     1       4.172   5.931  18.287  0.00  0.00    +0.000 N 
ATOM      5  C   UNL     1       3.012   6.799  18.132  0.00  0.00    +0.000 C 
ENDROOT
BRANCH   4   6
ATOM      6  C   UNL     1       5.259   5.946  17.444  0.00  0.00    +0.000 A 
ATOM      7  N   UNL     1       6.274   6.790  17.716  0.00  0.00    +0.000 NA
ATOM      8  C   UNL     1       7.346   6.760  16.901  0.00  0.00    +0.000 A 
ATOM      9  N   UNL     1       7.513   5.963  15.834  0.00  0.00    +0.000 NA
ATOM     10  C   UNL     1       6.493   5.120  15.566  0.00  0.00    +0.000 A 
ATOM     11  C   UNL     1       5.352   5.089  16.348  0.00  0.00    +0.000 A 
ATOM     12  F   UNL     1       4.369   4.226  16.037  0.00  0.00    +0.000 F 
BRANCH  10  13
ATOM     13  C   UNL     1       6.598   4.202  14.376  0.00  0.00    +0.000 C 
ATOM     14  C   UNL     1       5.275   4.022  13.636  0.00  0.00    +0.000 C 
ATOM     15  C   UNL     1       5.692   3.438  12.295  0.00  0.00    +0.000 C 
ATOM     16  C   UNL     1       7.092   3.983  12.014  0.00  0.00    +0.000 C 
ATOM     17  C   UNL     1       7.551   4.693  13.287  0.00  0.00    +0.000 C 
ENDBRANCH  10  13
ENDBRANCH   4   6
BRANCH   1  18
ATOM     18  O   UNL     1       2.039   7.472  20.312  0.00  0.00    +0.000 OA
BRANCH  18  22
ATOM     19  C   UNL     1      -0.168  10.856  19.155  0.00  0.00    +0.000 A 
ATOM     20  C   UNL     1       0.827  10.294  18.343  0.00  0.00    +0.000 A 
ATOM     21  C   UNL     1       1.558   9.177  18.774  0.00  0.00    +0.000 A 
ATOM     22  C   UNL     1       1.325   8.611  20.028  0.00  0.00    +0.000 A 
ATOM     23  C   UNL     1       0.362   9.187  20.856  0.00  0.00    +0.000 A 
ATOM     24  C   UNL     1      -0.376  10.298  20.424  0.00  0.00    +0.000 A 
BRANCH  19  25
ATOM     25  C   UNL     1      -1.043  11.986  18.631  0.00  0.00    +0.000 C 
ATOM     26  C   UNL     1      -0.933  13.254  19.480  0.00  0.00    +0.000 C 
BRANCH  25  30
ATOM     27  C   UNL     1      -4.475  10.766  17.571  0.00  0.00    +0.000 C 
ATOM     28  C   UNL     1      -3.037  11.177  17.387  0.00  0.00    +0.000 C 
ATOM     29  O   UNL     1      -2.484  11.179  16.295  0.00  0.00    +0.000 OA
ATOM     30  N   UNL     1      -2.425  11.530  18.565  0.00  0.00    +0.000 N 
ATOM     31  H   UNL     1      -2.977  11.556  19.410  0.00  0.00    +0.000 HD
ENDBRANCH  25  30
ENDBRANCH  19  25
ENDBRANCH  18  22
ENDBRANCH   1  18
TORSDOF 6
ENDMDL
MODEL 2
REMARK VINA RESULT:      -8.7      1.904      2.434
REMARK  Name = 
REMARK  8 active torsions:
REMARK  status: ('A' for Active; 'I' for Inactive)
REMARK    1  A    between atoms: C_1  and  C_2
REMARK    2  A    between atoms: N_4  and  C_5
REMARK    3  A    between atoms: C_5  and  C_6
REMARK    4  A    between atoms: C_5  and  C_7
REMARK    5  A    between atoms: C_10  and  O_11
REMARK    6  A    between atoms: O_11  and  C_12
REMARK    7  A    between atoms: N_15  and  C_16
REMARK    8  A    between atoms: C_20  and  C_21
REMARK                            x       y       z     vdW  Elec       q    Type
REMARK                         _______ _______ _______ _____ _____    ______ ____
ROOT
ATOM      1  C   UNL     1       2.182   6.696  19.372  0.00  0.00    +0.000 C 
ATOM      2  C   UNL     1       2.407   5.353  20.074  0.00  0.00    +0.000 C 
ATOM      3  C   UNL     1       3.884   5.015  19.859  0.00  0.00    +0.000 C 
ATOM      4  N   UNL     1       4.187   5.641  18.590  0.00  0.00    +0.000 N 
ATOM      5  C   UNL     1       3.266   6.728  18.283  0.00  0.00    +0.000 C 
ENDROOT
BRANCH   4   6
ATOM      6  C   UNL     1       5.309   5.354  17.847  0.00  0.00    +0.000 A 
ATOM      7  N   UNL     1       6.451   5.054  18.497  0.00  0.00    +0.000 NA
ATOM      8  C   UNL     1       7.527   4.736  17.751  0.00  0.00    +0.000 A 
ATOM      9  N   UNL     1       7.580   4.683  16.410  0.00  0.00    +0.000 NA
ATOM     10  C   UNL     1       6.433   4.986  15.767  0.00  0.00    +0.000 A 
ATOM     11  C   UNL     1       5.282   5.328  16.453  0.00  0.00    +0.000 A 
ATOM     12  F   UNL     1       4.167   5.616  15.760  0.00  0.00    +0.000 F 
BRANCH  10  13
ATOM     13  C   UNL     1       6.414   4.963  14.260  0.00  0.00    +0.000 C 
ATOM     14  C   UNL     1       7.788   5.187  13.636  0.00  0.00    +0.000 C 
ATOM     15  C   UNL     1       7.611   4.715  12.201  0.00  0.00    +0.000 C 
ATOM     16  C   UNL     1       6.541   3.624  12.245  0.00  0.00    +0.000 C 
ATOM     17  C   UNL     1       5.962   3.633  13.658  0.00  0.00    +0.000 C 
ENDBRANCH  10  13
ENDBRANCH   4   6
BRANCH   1  18
ATOM     18  O   UNL     1       2.310   7.760  20.326  0.00  0.00    +0.000 OA
BRANCH  18  22
ATOM     19  C   UNL     1      -0.556  10.831  20.482  0.00  0.00    +0.000 A 
ATOM     20  C   UNL     1      -0.300   9.985  21.570  0.00  0.00    +0.000 A 
ATOM     21  C   UNL     1       0.649   8.957  21.472  0.00  0.00    +0.000 A 
ATOM     22  C   UNL     1       1.347   8.740  20.283  0.00  0.00    +0.000 A 
ATOM     23  C   UNL     1       1.071   9.554  19.185  0.00  0.00    +0.000 A 
ATOM     24  C   UNL     1       0.131  10.588  19.283  0.00  0.00    +0.000 A 
BRANCH  19  25
ATOM     25  C   UNL     1      -1.491  12.021  20.633  0.00  0.00    +0.000 C 
ATOM     26  C   UNL     1      -0.835  13.340  20.217  0.00  0.00    +0.000 C 
BRANCH  25  30
ATOM     27  C   UNL     1      -3.479  12.456  23.836  0.00  0.00    +0.000 C 
ATOM     28  C   UNL     1      -3.247  12.423  22.347  0.00  0.00    +0.000 C 
ATOM     29  O   UNL     1      -4.132  12.656  21.533  0.00  0.00    +0.000 OA
ATOM     30  N   UNL     1      -1.956  12.092  22.013  0.00  0.00    +0.000 N 
ATOM     31  H   UNL     1      -1.278  11.975  22.751  0.00  0.00    +0.000 HD
ENDBRANCH  25  30
ENDBRANCH  19  25
ENDBRANCH  18  22
ENDBRANCH   1  18
TORSDOF 6
ENDMDL
MODEL 3
REMARK VINA RESULT:      -8.6      1.873      2.484
REMARK  Name = 
REMARK  8 active torsions:
REMARK  status: ('A' for Active; 'I' for Inactive)
REMARK    1  A    between atoms: C_1  and  C_2
REMARK    2  A    between atoms: N_4  and  C_5
REMARK    3  A    between atoms: C_5  and  C_6
REMARK    4  A    between atoms: C_5  and  C_7
REMARK    5  A    between atoms: C_10  and  O_11
REMARK    6  A    between atoms: O_11  and  C_12
REMARK    7  A    between atoms: N_15  and  C_16
REMARK    8  A    between atoms: C_20  and  C_21
REMARK                            x       y       z     vdW  Elec       q    Type
REMARK                         _______ _______ _______ _____ _____    ______ ____
ROOT
ATOM      1  C   UNL     1       2.247   6.155  19.548  0.00  0.00    +0.000 C 
ATOM      2  C   UNL     1       2.428   4.702  19.999  0.00  0.00    +0.000 C 
ATOM      3  C   UNL     1       3.900   4.370  19.746  0.00  0.00    +0.000 C 
ATOM      4  N   UNL     1       4.240   5.205  18.614  0.00  0.00    +0.000 N 
ATOM      5  C   UNL     1       3.351   6.354  18.496  0.00  0.00    +0.000 C 
ENDROOT
BRANCH   4   6
ATOM      6  C   UNL     1       5.368   5.026  17.847  0.00  0.00    +0.000 A 
ATOM      7  N   UNL     1       6.539   4.785  18.470  0.00  0.00    +0.000 NA
ATOM      8  C   UNL     1       7.622   4.573  17.699  0.00  0.00    +0.000 A 
ATOM      9  N   UNL     1       7.657   4.573  16.356  0.00  0.00    +0.000 NA
ATOM     10  C   UNL     1       6.482   4.815  15.740  0.00  0.00    +0.000 A 
ATOM     11  C   UNL     1       5.321   5.049  16.454  0.00  0.00    +0.000 A 
ATOM     12  F   UNL     1       4.177   5.281  15.787  0.00  0.00    +0.000 F 
BRANCH  10  13
ATOM     13  C   UNL     1       6.441   4.846  14.233  0.00  0.00    +0.000 C 
ATOM     14  C   UNL     1       7.790   5.174  13.600  0.00  0.00    +0.000 C 
ATOM     15  C   UNL     1       7.618   4.745  12.151  0.00  0.00    +0.000 C 
ATOM     16  C   UNL     1       6.615   3.592  12.168  0.00  0.00    +0.000 C 
ATOM     17  C   UNL     1       6.058   3.515  13.589  0.00  0.00    +0.000 C 
ENDBRANCH  10  13
ENDBRANCH   4   6
BRANCH   1  18
ATOM     18  O   UNL     1       2.384   7.027  20.679  0.00  0.00    +0.000 OA
BRANCH  18  22
ATOM     19  C   UNL     1      -0.257  10.292  20.512  0.00  0.00    +0.000 A 
ATOM     20  C   UNL     1       0.616   9.976  19.461  0.00  0.00    +0.000 A 
ATOM     21  C   UNL     1       1.498   8.891  19.564  0.00  0.00    +0.000 A 
ATOM     22  C   UNL     1       1.542   8.112  20.721  0.00  0.00    +0.000 A 
ATOM     23  C   UNL     1       0.703   8.443  21.784  0.00  0.00    +0.000 A 
ATOM     24  C   UNL     1      -0.187   9.521  21.682  0.00  0.00    +0.000 A 
BRANCH  19  25
ATOM     25  C   UNL     1      -1.299  11.389  20.346  0.00  0.00    +0.000 C 
ATOM     26  C   UNL     1      -1.396  11.891  18.903  0.00  0.00    +0.000 C 
BRANCH  25  30
ATOM     27  C   UNL     1      -1.185  13.910  23.178  0.00  0.00    +0.000 C 
ATOM     28  C   UNL     1      -1.671  12.698  22.426  0.00  0.00    +0.000 C 
ATOM     29  O   UNL     1      -2.573  11.981  22.838  0.00  0.00    +0.000 OA
ATOM     30  N   UNL     1      -0.988  12.486  21.253  0.00  0.00    +0.000 N 
ATOM     31  H   UNL     1      -0.298  13.164  20.963  0.00  0.00    +0.000 HD
ENDBRANCH  25  30
ENDBRANCH  19  25
ENDBRANCH  18  22
ENDBRANCH   1  18
TORSDOF 6
ENDMDL
MODEL 4
REMARK VINA RESULT:      -8.6      4.709     11.754
REMARK  Name = 
REMARK  8 active torsions:
REMARK  status: ('A' for Active; 'I' for Inactive)
REMARK    1  A    between atoms: C_1  and  C_2
REMARK    2  A    between atoms: N_4  and  C_5
REMARK    3  A    between atoms: C_5  and  C_6
REMARK    4  A    between atoms: C_5  and  C_7
REMARK    5  A    between atoms: C_10  and  O_11
REMARK    6  A    between atoms: O_11  and  C_12
REMARK    7  A    between atoms: N_15  and  C_16
REMARK    8  A    between atoms: C_20  and  C_21
REMARK                            x       y       z     vdW  Elec       q    Type
REMARK                         _______ _______ _______ _____ _____    ______ ____
ROOT
ATOM      1  C   UNL     1       0.730  10.746  21.311  0.00  0.00    +0.000 C 
ATOM      2  C   UNL     1       0.377   9.936  22.564  0.00  0.00    +0.000 C 
ATOM      3  C   UNL     1      -0.926  10.540  23.093  0.00  0.00    +0.000 C 
ATOM      4  N   UNL     1      -0.841  11.926  22.684  0.00  0.00    +0.000 N 
ATOM      5  C   UNL     1       0.057  12.107  21.552  0.00  0.00    +0.000 C 
ENDROOT
BRANCH   4   6
ATOM      6  C   UNL     1      -1.642  12.921  23.196  0.00  0.00    +0.000 A 
ATOM      7  N   UNL     1      -1.065  13.907  23.910  0.00  0.00    +0.000 NA
ATOM      8  C   UNL     1      -1.862  14.893  24.367  0.00  0.00    +0.000 A 
ATOM      9  N   UNL     1      -3.187  14.998  24.180  0.00  0.00    +0.000 NA
ATOM     10  C   UNL     1      -3.758  14.006  23.464  0.00  0.00    +0.000 A 
ATOM     11  C   UNL     1      -3.016  12.953  22.961  0.00  0.00    +0.000 A 
ATOM     12  F   UNL     1      -3.636  11.994  22.252  0.00  0.00    +0.000 F 
BRANCH  10  13
ATOM     13  C   UNL     1      -5.245  14.043  23.221  0.00  0.00    +0.000 C 
ATOM     14  C   UNL     1      -6.021  13.053  24.084  0.00  0.00    +0.000 C 
ATOM     15  C   UNL     1      -7.457  13.545  23.990  0.00  0.00    +0.000 C 
ATOM     16  C   UNL     1      -7.372  15.057  23.784  0.00  0.00    +0.000 C 
ATOM     17  C   UNL     1      -5.900  15.386  23.543  0.00  0.00    +0.000 C 
ENDBRANCH  10  13
ENDBRANCH   4   6
BRANCH   1  18
ATOM     18  O   UNL     1       0.232  10.069  20.149  0.00  0.00    +0.000 OA
BRANCH  18  22
ATOM     19  C   UNL     1       2.755   7.231  18.348  0.00  0.00    +0.000 A 
ATOM     20  C   UNL     1       2.326   7.119  19.678  0.00  0.00    +0.000 A 
ATOM     21  C   UNL     1       1.502   8.099  20.250  0.00  0.00    +0.000 A 
ATOM     22  C   UNL     1       1.104   9.218  19.516  0.00  0.00    +0.000 A 
ATOM     23  C   UNL     1       1.558   9.354  18.204  0.00  0.00    +0.000 A 
ATOM     24  C   UNL     1       2.374   8.372  17.626  0.00  0.00    +0.000 A 
BRANCH  19  25
ATOM     25  C   UNL     1       3.542   6.104  17.694  0.00  0.00    +0.000 C 
ATOM     26  C   UNL     1       3.128   4.724  18.211  0.00  0.00    +0.000 C 
BRANCH  25  30
ATOM     27  C   UNL     1       7.255   6.806  17.355  0.00  0.00    +0.000 C 
ATOM     28  C   UNL     1       5.829   6.652  16.891  0.00  0.00    +0.000 C 
ATOM     29  O   UNL     1       5.491   6.816  15.725  0.00  0.00    +0.000 OA
ATOM     30  N   UNL     1       4.966   6.328  17.908  0.00  0.00    +0.000 N 
ATOM     31  H   UNL     1       5.343   6.155  18.828  0.00  0.00    +0.000 HD
ENDBRANCH  25  30
ENDBRANCH  19  25
ENDBRANCH  18  22
ENDBRANCH   1  18
TORSDOF 6
ENDMDL
MODEL 5
REMARK VINA RESULT:      -8.5      1.630      1.944
REMARK  Name = 
REMARK  8 active torsions:
REMARK  status: ('A' for Active; 'I' for Inactive)
REMARK    1  A    between atoms: C_1  and  C_2
REMARK    2  A    between atoms: N_4  and  C_5
REMARK    3  A    between atoms: C_5  and  C_6
REMARK    4  A    between atoms: C_5  and  C_7
REMARK    5  A    between atoms: C_10  and  O_11
REMARK    6  A    between atoms: O_11  and  C_12
REMARK    7  A    between atoms: N_15  and  C_16
REMARK    8  A    between atoms: C_20  and  C_21
REMARK                            x       y       z     vdW  Elec       q    Type
REMARK                         _______ _______ _______ _____ _____    ______ ____
ROOT
ATOM      1  C   UNL     1       2.118   5.121  19.610  0.00  0.00    +0.000 C 
ATOM      2  C   UNL     1       2.582   3.733  20.067  0.00  0.00    +0.000 C 
ATOM      3  C   UNL     1       4.086   3.688  19.788  0.00  0.00    +0.000 C 
ATOM      4  N   UNL     1       4.239   4.562  18.645  0.00  0.00    +0.000 N 
ATOM      5  C   UNL     1       3.144   5.517  18.537  0.00  0.00    +0.000 C 
ENDROOT
BRANCH   4   6
ATOM      6  C   UNL     1       5.367   4.596  17.858  0.00  0.00    +0.000 A 
ATOM      7  N   UNL     1       6.572   4.510  18.455  0.00  0.00    +0.000 NA
ATOM      8  C   UNL     1       7.662   4.504  17.663  0.00  0.00    +0.000 A 
ATOM      9  N   UNL     1       7.672   4.572  16.322  0.00  0.00    +0.000 NA
ATOM     10  C   UNL     1       6.462   4.659  15.730  0.00  0.00    +0.000 A 
ATOM     11  C   UNL     1       5.292   4.677  16.468  0.00  0.00    +0.000 A 
ATOM     12  F   UNL     1       4.114   4.760  15.825  0.00  0.00    +0.000 F 
BRANCH  10  13
ATOM     13  C   UNL     1       6.389   4.754  14.228  0.00  0.00    +0.000 C 
ATOM     14  C   UNL     1       7.724   5.111  13.581  0.00  0.00    +0.000 C 
ATOM     15  C   UNL     1       7.522   4.743  12.119  0.00  0.00    +0.000 C 
ATOM     16  C   UNL     1       6.521   3.588  12.108  0.00  0.00    +0.000 C 
ATOM     17  C   UNL     1       5.994   3.450  13.536  0.00  0.00    +0.000 C 
ENDBRANCH  10  13
ENDBRANCH   4   6
BRANCH   1  18
ATOM     18  O   UNL     1       2.104   6.013  20.734  0.00  0.00    +0.000 OA
BRANCH  18  22
ATOM     19  C   UNL     1       0.617   9.814  19.731  0.00  0.00    +0.000 A 
ATOM     20  C   UNL     1       1.554   9.140  18.936  0.00  0.00    +0.000 A 
ATOM     21  C   UNL     1       2.043   7.881  19.316  0.00  0.00    +0.000 A 
ATOM     22  C   UNL     1       1.624   7.279  20.503  0.00  0.00    +0.000 A 
ATOM     23  C   UNL     1       0.720   7.961  21.318  0.00  0.00    +0.000 A 
ATOM     24  C   UNL     1       0.222   9.214  20.936  0.00  0.00    +0.000 A 
BRANCH  19  25
ATOM     25  C   UNL     1      -0.006  11.117  19.252  0.00  0.00    +0.000 C 
ATOM     26  C   UNL     1       1.038  12.107  18.727  0.00  0.00    +0.000 C 
BRANCH  25  30
ATOM     27  C   UNL     1      -2.631  12.766  21.438  0.00  0.00    +0.000 C 
ATOM     28  C   UNL     1      -2.056  12.174  20.177  0.00  0.00    +0.000 C 
ATOM     29  O   UNL     1      -2.686  12.110  19.129  0.00  0.00    +0.000 OA
ATOM     30  N   UNL     1      -0.774  11.710  20.339  0.00  0.00    +0.000 N 
ATOM     31  H   UNL     1      -0.312  11.859  21.224  0.00  0.00    +0.000 HD
ENDBRANCH  25  30
ENDBRANCH  19  25
ENDBRANCH  18  22
ENDBRANCH   1  18
TORSDOF 6
ENDMDL
MODEL 6
REMARK VINA RESULT:      -8.5      1.879      2.738
REMARK  Name = 
REMARK  8 active torsions:
REMARK  status: ('A' for Active; 'I' for Inactive)
REMARK    1  A    between atoms: C_1  and  C_2
REMARK    2  A    between atoms: N_4  and  C_5
REMARK    3  A    between atoms: C_5  and  C_6
REMARK    4  A    between atoms: C_5  and  C_7
REMARK    5  A    between atoms: C_10  and  O_11
REMARK    6  A    between atoms: O_11  and  C_12
REMARK    7  A    between atoms: N_15  and  C_16
REMARK    8  A    between atoms: C_20  and  C_21
REMARK                            x       y       z     vdW  Elec       q    Type
REMARK                         _______ _______ _______ _____ _____    ______ ____
ROOT
ATOM      1  C   UNL     1       2.303   6.103  19.539  0.00  0.00    +0.000 C 
ATOM      2  C   UNL     1       2.608   4.724  20.135  0.00  0.00    +0.000 C 
ATOM      3  C   UNL     1       4.091   4.470  19.855  0.00  0.00    +0.000 C 
ATOM      4  N   UNL     1       4.327   5.198  18.627  0.00  0.00    +0.000 N 
ATOM      5  C   UNL     1       3.351   6.261  18.425  0.00  0.00    +0.000 C 
ENDROOT
BRANCH   4   6
ATOM      6  C   UNL     1       5.437   5.016  17.834  0.00  0.00    +0.000 A 
ATOM      7  N   UNL     1       6.620   4.769  18.431  0.00  0.00    +0.000 NA
ATOM      8  C   UNL     1       7.686   4.553  17.636  0.00  0.00    +0.000 A 
ATOM      9  N   UNL     1       7.691   4.556  16.293  0.00  0.00    +0.000 NA
ATOM     10  C   UNL     1       6.504   4.804  15.702  0.00  0.00    +0.000 A 
ATOM     11  C   UNL     1       5.359   5.042  16.442  0.00  0.00    +0.000 A 
ATOM     12  F   UNL     1       4.202   5.280  15.801  0.00  0.00    +0.000 F 
BRANCH  10  13
ATOM     13  C   UNL     1       6.429   4.839  14.197  0.00  0.00    +0.000 C 
ATOM     14  C   UNL     1       7.771   5.136  13.534  0.00  0.00    +0.000 C 
ATOM     15  C   UNL     1       7.557   4.713  12.089  0.00  0.00    +0.000 C 
ATOM     16  C   UNL     1       6.528   3.583  12.128  0.00  0.00    +0.000 C 
ATOM     17  C   UNL     1       6.002   3.517  13.560  0.00  0.00    +0.000 C 
ENDBRANCH  10  13
ENDBRANCH   4   6
BRANCH   1  18
ATOM     18  O   UNL     1       2.415   7.101  20.564  0.00  0.00    +0.000 OA
BRANCH  18  22
ATOM     19  C   UNL     1      -0.247  10.352  20.661  0.00  0.00    +0.000 A 
ATOM     20  C   UNL     1      -0.143   9.433  21.716  0.00  0.00    +0.000 A 
ATOM     21  C   UNL     1       0.742   8.348  21.636  0.00  0.00    +0.000 A 
ATOM     22  C   UNL     1       1.525   8.146  20.499  0.00  0.00    +0.000 A 
ATOM     23  C   UNL     1       1.400   9.035  19.431  0.00  0.00    +0.000 A 
ATOM     24  C   UNL     1       0.524  10.125  19.511  0.00  0.00    +0.000 A 
BRANCH  19  25
ATOM     25  C   UNL     1      -1.113  11.595  20.805  0.00  0.00    +0.000 C 
ATOM     26  C   UNL     1      -1.946  11.877  19.552  0.00  0.00    +0.000 C 
BRANCH  25  30
ATOM     27  C   UNL     1       0.367  14.843  22.092  0.00  0.00    +0.000 C 
ATOM     28  C   UNL     1      -0.677  13.768  21.931  0.00  0.00    +0.000 C 
ATOM     29  O   UNL     1      -1.771  13.819  22.480  0.00  0.00    +0.000 OA
ATOM     30  N   UNL     1      -0.264  12.735  21.125  0.00  0.00    +0.000 N 
ATOM     31  H   UNL     1       0.633  12.806  20.667  0.00  0.00    +0.000 HD
ENDBRANCH  25  30
ENDBRANCH  19  25
ENDBRANCH  18  22
ENDBRANCH   1  18
TORSDOF 6
ENDMDL
MODEL 7
REMARK VINA RESULT:      -8.5      3.409     10.665
REMARK  Name = 
REMARK  8 active torsions:
REMARK  status: ('A' for Active; 'I' for Inactive)
REMARK    1  A    between atoms: C_1  and  C_2
REMARK    2  A    between atoms: N_4  and  C_5
REMARK    3  A    between atoms: C_5  and  C_6
REMARK    4  A    between atoms: C_5  and  C_7
REMARK    5  A    between atoms: C_10  and  O_11
REMARK    6  A    between atoms: O_11  and  C_12
REMARK    7  A    between atoms: N_15  and  C_16
REMARK    8  A    between atoms: C_20  and  C_21
REMARK                            x       y       z     vdW  Elec       q    Type
REMARK                         _______ _______ _______ _____ _____    ______ ____
ROOT
ATOM      1  C   UNL     1       2.239   7.869  19.526  0.00  0.00    +0.000 C 
ATOM      2  C   UNL     1       1.641   7.318  20.825  0.00  0.00    +0.000 C 
ATOM      3  C   UNL     1       0.276   7.994  20.971  0.00  0.00    +0.000 C 
ATOM      4  N   UNL     1       0.465   9.272  20.320  0.00  0.00    +0.000 N 
ATOM      5  C   UNL     1       1.563   9.240  19.362  0.00  0.00    +0.000 C 
ENDROOT
BRANCH   4   6
ATOM      6  C   UNL     1      -0.395  10.336  20.465  0.00  0.00    +0.000 A 
ATOM      7  N   UNL     1      -1.069  10.772  19.383  0.00  0.00    +0.000 NA
ATOM      8  C   UNL     1      -1.936  11.788  19.556  0.00  0.00    +0.000 A 
ATOM      9  N   UNL     1      -2.205  12.418  20.711  0.00  0.00    +0.000 NA
ATOM     10  C   UNL     1      -1.526  11.977  21.791  0.00  0.00    +0.000 A 
ATOM     11  C   UNL     1      -0.613  10.942  21.702  0.00  0.00    +0.000 A 
ATOM     12  F   UNL     1       0.032  10.540  22.812  0.00  0.00    +0.000 F 
BRANCH  10  13
ATOM     13  C   UNL     1      -1.761  12.641  23.123  0.00  0.00    +0.000 C 
ATOM     14  C   UNL     1      -1.260  14.081  23.175  0.00  0.00    +0.000 C 
ATOM     15  C   UNL     1      -1.956  14.659  24.398  0.00  0.00    +0.000 C 
ATOM     16  C   UNL     1      -3.280  13.906  24.525  0.00  0.00    +0.000 C 
ATOM     17  C   UNL     1      -3.234  12.762  23.512  0.00  0.00    +0.000 C 
ENDBRANCH  10  13
ENDBRANCH   4   6
BRANCH   1  18
ATOM     18  O   UNL     1       1.952   6.968  18.448  0.00  0.00    +0.000 OA
BRANCH  18  22
ATOM     19  C   UNL     1       5.403   5.050  17.005  0.00  0.00    +0.000 A 
ATOM     20  C   UNL     1       5.313   6.444  17.128  0.00  0.00    +0.000 A 
ATOM     21  C   UNL     1       4.136   7.048  17.594  0.00  0.00    +0.000 A 
ATOM     22  C   UNL     1       3.020   6.278  17.926  0.00  0.00    +0.000 A 
ATOM     23  C   UNL     1       3.090   4.894  17.770  0.00  0.00    +0.000 A 
ATOM     24  C   UNL     1       4.267   4.287  17.314  0.00  0.00    +0.000 A 
BRANCH  19  25
ATOM     25  C   UNL     1       6.721   4.394  16.622  0.00  0.00    +0.000 C 
ATOM     26  C   UNL     1       7.773   4.505  17.728  0.00  0.00    +0.000 C 
BRANCH  25  30
ATOM     27  C   UNL     1       7.508   5.284  13.019  0.00  0.00    +0.000 C 
ATOM     28  C   UNL     1       6.851   4.525  14.143  0.00  0.00    +0.000 C 
ATOM     29  O   UNL     1       6.069   3.603  13.951  0.00  0.00    +0.000 OA
ATOM     30  N   UNL     1       7.211   4.988  15.385  0.00  0.00    +0.000 N 
ATOM     31  H   UNL     1       7.908   5.715  15.448  0.00  0.00    +0.000 HD
ENDBRANCH  25  30
ENDBRANCH  19  25
ENDBRANCH  18  22
ENDBRANCH   1  18
TORSDOF 6
ENDMDL
MODEL 8
REMARK VINA RESULT:      -8.4      4.041      9.329
REMARK  Name = 
REMARK  8 active torsions:
REMARK  status: ('A' for Active; 'I' for Inactive)
REMARK    1  A    between atoms: C_1  and  C_2
REMARK    2  A    between atoms: N_4  and  C_5
REMARK    3  A    between atoms: C_5  and  C_6
REMARK    4  A    between atoms: C_5  and  C_7
REMARK    5  A    between atoms: C_10  and  O_11
REMARK    6  A    between atoms: O_11  and  C_12
REMARK    7  A    between atoms: N_15  and  C_16
REMARK    8  A    between atoms: C_20  and  C_21
REMARK                            x       y       z     vdW  Elec       q    Type
REMARK                         _______ _______ _______ _____ _____    ______ ____
ROOT
ATOM      1  C   UNL     1       7.367   6.358  16.606  0.00  0.00    +0.000 C 
ATOM      2  C   UNL     1       7.761   6.400  18.086  0.00  0.00    +0.000 C 
ATOM      3  C   UNL     1       6.509   5.981  18.860  0.00  0.00    +0.000 C 
ATOM      4  N   UNL     1       5.427   6.432  18.012  0.00  0.00    +0.000 N 
ATOM      5  C   UNL     1       5.846   6.580  16.624  0.00  0.00    +0.000 C 
ENDROOT
BRANCH   4   6
ATOM      6  C   UNL     1       4.123   6.543  18.435  0.00  0.00    +0.000 A 
ATOM      7  N   UNL     1       3.454   7.683  18.171  0.00  0.00    +0.000 NA
ATOM      8  C   UNL     1       2.166   7.755  18.558  0.00  0.00    +0.000 A 
ATOM      9  N   UNL     1       1.469   6.795  19.187  0.00  0.00    +0.000 NA
ATOM     10  C   UNL     1       2.144   5.656  19.449  0.00  0.00    +0.000 A 
ATOM     11  C   UNL     1       3.471   5.499  19.091  0.00  0.00    +0.000 A 
ATOM     12  F   UNL     1       4.093   4.342  19.374  0.00  0.00    +0.000 F 
BRANCH  10  13
ATOM     13  C   UNL     1       1.435   4.535  20.165  0.00  0.00    +0.000 C 
ATOM     14  C   UNL     1       1.288   3.276  19.316  0.00  0.00    +0.000 C 
ATOM     15  C   UNL     1       0.953   2.196  20.333  0.00  0.00    +0.000 C 
ATOM     16  C   UNL     1       1.627   2.621  21.638  0.00  0.00    +0.000 C 
ATOM     17  C   UNL     1       2.154   4.038  21.418  0.00  0.00    +0.000 C 
ENDBRANCH  10  13
ENDBRANCH   4   6
BRANCH   1  18
ATOM     18  O   UNL     1       7.744   5.091  16.048  0.00  0.00    +0.000 OA
BRANCH  18  22
ATOM     19  C   UNL     1       5.784   3.701  12.599  0.00  0.00    +0.000 A 
ATOM     20  C   UNL     1       6.960   4.462  12.540  0.00  0.00    +0.000 A 
ATOM     21  C   UNL     1       7.573   4.927  13.713  0.00  0.00    +0.000 A 
ATOM     22  C   UNL     1       7.016   4.659  14.965  0.00  0.00    +0.000 A 
ATOM     23  C   UNL     1       5.827   3.934  15.029  0.00  0.00    +0.000 A 
ATOM     24  C   UNL     1       5.217   3.460  13.859  0.00  0.00    +0.000 A 
BRANCH  19  25
ATOM     25  C   UNL     1       5.195   3.093  11.334  0.00  0.00    +0.000 C 
ATOM     26  C   UNL     1       3.762   3.561  11.072  0.00  0.00    +0.000 C 
BRANCH  25  30
ATOM     27  C   UNL     1       6.198  -0.565  11.316  0.00  0.00    +0.000 C 
ATOM     28  C   UNL     1       6.396   0.922  11.179  0.00  0.00    +0.000 C 
ATOM     29  O   UNL     1       7.474   1.423  10.887  0.00  0.00    +0.000 OA
ATOM     30  N   UNL     1       5.252   1.640  11.429  0.00  0.00    +0.000 N 
ATOM     31  H   UNL     1       4.393   1.140  11.605  0.00  0.00    +0.000 HD
ENDBRANCH  25  30
ENDBRANCH  19  25
ENDBRANCH  18  22
ENDBRANCH   1  18
TORSDOF 6
ENDMDL
MODEL 9
REMARK VINA RESULT:      -8.3      3.286     10.311
REMARK  Name = 
REMARK  8 active torsions:
REMARK  status: ('A' for Active; 'I' for Inactive)
REMARK    1  A    between atoms: C_1  and  C_2
REMARK    2  A    between atoms: N_4  and  C_5
REMARK    3  A    between atoms: C_5  and  C_6
REMARK    4  A    between atoms: C_5  and  C_7
REMARK    5  A    between atoms: C_10  and  O_11
REMARK    6  A    between atoms: O_11  and  C_12
REMARK    7  A    between atoms: N_15  and  C_16
REMARK    8  A    between atoms: C_20  and  C_21
REMARK                            x       y       z     vdW  Elec       q    Type
REMARK                         _______ _______ _______ _____ _____    ______ ____
ROOT
ATOM      1  C   UNL     1       1.450   9.585  19.696  0.00  0.00    +0.000 C 
ATOM      2  C   UNL     1       0.924  10.728  20.571  0.00  0.00    +0.000 C 
ATOM      3  C   UNL     1      -0.578  10.809  20.287  0.00  0.00    +0.000 C 
ATOM      4  N   UNL     1      -0.683  10.354  18.918  0.00  0.00    +0.000 N 
ATOM      5  C   UNL     1       0.452   9.526  18.528  0.00  0.00    +0.000 C 
ENDROOT
BRANCH   4   6
ATOM      6  C   UNL     1      -1.800  10.540  18.136  0.00  0.00    +0.000 A 
ATOM      7  N   UNL     1      -1.852   9.938  16.932  0.00  0.00    +0.000 NA
ATOM      8  C   UNL     1      -2.972  10.100  16.202  0.00  0.00    +0.000 A 
ATOM      9  N   UNL     1      -4.057  10.808  16.554  0.00  0.00    +0.000 NA
ATOM     10  C   UNL     1      -3.998  11.409  17.760  0.00  0.00    +0.000 A 
ATOM     11  C   UNL     1      -2.885  11.299  18.574  0.00  0.00    +0.000 A 
ATOM     12  F   UNL     1      -2.883  11.916  19.768  0.00  0.00    +0.000 F 
BRANCH  10  13
ATOM     13  C   UNL     1      -5.172  12.235  18.224  0.00  0.00    +0.000 C 
ATOM     14  C   UNL     1      -6.123  12.617  17.093  0.00  0.00    +0.000 C 
ATOM     15  C   UNL     1      -7.387  13.049  17.821  0.00  0.00    +0.000 C 
ATOM     16  C   UNL     1      -7.422  12.245  19.120  0.00  0.00    +0.000 C 
ATOM     17  C   UNL     1      -6.078  11.526  19.229  0.00  0.00    +0.000 C 
ENDBRANCH  10  13
ENDBRANCH   4   6
BRANCH   1  18
ATOM     18  O   UNL     1       1.488   8.374  20.465  0.00  0.00    +0.000 OA
BRANCH  18  22
ATOM     19  C   UNL     1       3.182   5.119  18.414  0.00  0.00    +0.000 A 
ATOM     20  C   UNL     1       3.228   6.429  17.915  0.00  0.00    +0.000 A 
ATOM     21  C   UNL     1       2.632   7.485  18.619  0.00  0.00    +0.000 A 
ATOM     22  C   UNL     1       1.962   7.256  19.821  0.00  0.00    +0.000 A 
ATOM     23  C   UNL     1       1.880   5.950  20.305  0.00  0.00    +0.000 A 
ATOM     24  C   UNL     1       2.483   4.894  19.609  0.00  0.00    +0.000 A 
BRANCH  19  25
ATOM     25  C   UNL     1       3.939   4.000  17.714  0.00  0.00    +0.000 C 
ATOM     26  C   UNL     1       3.405   2.613  18.080  0.00  0.00    +0.000 C 
BRANCH  25  30
ATOM     27  C   UNL     1       7.692   4.554  17.692  0.00  0.00    +0.000 C 
ATOM     28  C   UNL     1       6.291   4.562  17.137  0.00  0.00    +0.000 C 
ATOM     29  O   UNL     1       6.028   4.949  16.006  0.00  0.00    +0.000 OA
ATOM     30  N   UNL     1       5.356   4.106  18.035  0.00  0.00    +0.000 N 
ATOM     31  H   UNL     1       5.672   3.751  18.926  0.00  0.00    +0.000 HD
ENDBRANCH  25  30
ENDBRANCH  19  25
ENDBRANCH  18  22
ENDBRANCH   1  18
TORSDOF 6
ENDMDL
