MODEL 1
REMARK VINA RESULT:      -6.7      0.000      0.000
REMARK  Name = 
REMARK  5 active torsions:
REMARK  status: ('A' for Active; 'I' for Inactive)
REMARK    1  A    between atoms: C_1  and  C_2
REMARK    2  A    between atoms: C_2  and  C_3
REMARK    3  A    between atoms: N_7  and  C_8
REMARK    4  A    between atoms: C_8  and  C_9
REMARK    5  A    between atoms: C_13  and  C_14
REMARK                            x       y       z     vdW  Elec       q    Type
REMARK                         _______ _______ _______ _____ _____    ______ ____
ROOT
ATOM      1  C   UNL     1       2.971   4.231  18.358  0.00  0.00    +0.000 A 
ATOM      2  C   UNL     1       3.616   4.539  19.540  0.00  0.00    +0.000 A 
ATOM      3  S   UNL     1       5.286   4.758  19.255  0.00  0.00    +0.000 S 
ATOM      4  C   UNL     1       5.059   4.320  17.601  0.00  0.00    +0.000 A 
ATOM      5  N   UNL     1       6.131   4.307  16.777  0.00  0.00    +0.000 N 
ATOM      6  N   UNL     1       3.818   4.045  17.270  0.00  0.00    +0.000 NA
ATOM      7  H   UNL     1       6.615   5.198  16.720  0.00  0.00    +0.000 HD
ENDROOT
BRANCH   1   9
ATOM      8  C   UNL     1       0.939   2.789  18.682  0.00  0.00    +0.000 C 
ATOM      9  C   UNL     1       1.493   4.110  18.177  0.00  0.00    +0.000 C 
ENDBRANCH   1   9
BRANCH   5  10
ATOM     10  C   UNL     1       6.015   3.674  15.469  0.00  0.00    +0.000 C 
BRANCH  10  11
ATOM     11  C   UNL     1       6.757   4.393  14.371  0.00  0.00    +0.000 A 
ATOM     12  N   UNL     1       7.658   5.338  14.684  0.00  0.00    +0.000 NA
ATOM     13  O   UNL     1       8.195   5.760  13.485  0.00  0.00    +0.000 OA
ATOM     14  C   UNL     1       7.629   5.066  12.469  0.00  0.00    +0.000 A 
ATOM     15  C   UNL     1       6.705   4.175  12.965  0.00  0.00    +0.000 A 
ATOM     16  C   UNL     1       5.887   3.203  12.204  0.00  0.00    +0.000 C 
ENDBRANCH  10  11
ENDBRANCH   5  10
TORSDOF 3
ENDMDL
MODEL 2
REMARK VINA RESULT:      -6.5      3.361      6.395
REMARK  Name = 
REMARK  5 active torsions:
REMARK  status: ('A' for Active; 'I' for Inactive)
REMARK    1  A    between atoms: C_1  and  C_2
REMARK    2  A    between atoms: C_2  and  C_3
REMARK    3  A    between atoms: N_7  and  C_8
REMARK    4  A    between atoms: C_8  and  C_9
REMARK    5  A    between atoms: C_13  and  C_14
REMARK                            x       y       z     vdW  Elec       q    Type
REMARK                         _______ _______ _______ _____ _____    ______ ____
ROOT
ATOM      1  C   UNL     1       5.779   5.037  16.321  0.00  0.00    +0.000 A 
ATOM      2  C   UNL     1       6.548   5.956  17.008  0.00  0.00    +0.000 A 
ATOM      3  S   UNL     1       6.645   5.519  18.657  0.00  0.00    +0.000 S 
ATOM      4  C   UNL     1       5.569   4.202  18.370  0.00  0.00    +0.000 A 
ATOM      5  N   UNL     1       5.230   3.399  19.405  0.00  0.00    +0.000 N 
ATOM      6  N   UNL     1       5.172   4.077  17.124  0.00  0.00    +0.000 NA
ATOM      7  H   UNL     1       6.025   2.960  19.859  0.00  0.00    +0.000 HD
ENDROOT
BRANCH   1   9
ATOM      8  C   UNL     1       6.858   4.675  14.081  0.00  0.00    +0.000 C 
ATOM      9  C   UNL     1       5.583   4.998  14.840  0.00  0.00    +0.000 C 
ENDBRANCH   1   9
BRANCH   5  10
ATOM     10  C   UNL     1       4.118   2.470  19.249  0.00  0.00    +0.000 C 
BRANCH  10  11
ATOM     11  C   UNL     1       2.828   2.947  19.867  0.00  0.00    +0.000 A 
ATOM     12  N   UNL     1       2.584   2.708  21.165  0.00  0.00    +0.000 NA
ATOM     13  O   UNL     1       1.371   3.308  21.438  0.00  0.00    +0.000 OA
ATOM     14  C   UNL     1       0.905   3.910  20.318  0.00  0.00    +0.000 A 
ATOM     15  C   UNL     1       1.787   3.720  19.279  0.00  0.00    +0.000 A 
ATOM     16  C   UNL     1       1.679   4.237  17.896  0.00  0.00    +0.000 C 
ENDBRANCH  10  11
ENDBRANCH   5  10
TORSDOF 3
ENDMDL
MODEL 3
REMARK VINA RESULT:      -6.5      3.043      6.300
REMARK  Name = 
REMARK  5 active torsions:
REMARK  status: ('A' for Active; 'I' for Inactive)
REMARK    1  A    between atoms: C_1  and  C_2
REMARK    2  A    between atoms: C_2  and  C_3
REMARK    3  A    between atoms: N_7  and  C_8
REMARK    4  A    between atoms: C_8  and  C_9
REMARK    5  A    between atoms: C_13  and  C_14
REMARK                            x       y       z     vdW  Elec       q    Type
REMARK                         _______ _______ _______ _____ _____    ______ ____
ROOT
ATOM      1  C   UNL     1       5.714   5.124  16.589  0.00  0.00    +0.000 A 
ATOM      2  C   UNL     1       6.244   6.042  17.475  0.00  0.00    +0.000 A 
ATOM      3  S   UNL     1       6.205   5.412  19.062  0.00  0.00    +0.000 S 
ATOM      4  C   UNL     1       5.386   4.008  18.483  0.00  0.00    +0.000 A 
ATOM      5  N   UNL     1       5.049   3.039  19.364  0.00  0.00    +0.000 N 
ATOM      6  N   UNL     1       5.167   3.994  17.188  0.00  0.00    +0.000 NA
ATOM      7  H   UNL     1       5.840   2.656  19.874  0.00  0.00    +0.000 HD
ENDROOT
BRANCH   1   9
ATOM      8  C   UNL     1       6.022   3.946  14.391  0.00  0.00    +0.000 C 
ATOM      9  C   UNL     1       5.708   5.252  15.100  0.00  0.00    +0.000 C 
ENDBRANCH   1   9
BRANCH   5  10
ATOM     10  C   UNL     1       4.119   1.995  18.952  0.00  0.00    +0.000 C 
BRANCH  10  11
ATOM     11  C   UNL     1       2.669   2.408  19.008  0.00  0.00    +0.000 A 
ATOM     12  N   UNL     1       1.937   2.421  17.882  0.00  0.00    +0.000 NA
ATOM     13  O   UNL     1       0.661   2.783  18.266  0.00  0.00    +0.000 OA
ATOM     14  C   UNL     1       0.631   2.970  19.607  0.00  0.00    +0.000 A 
ATOM     15  C   UNL     1       1.879   2.746  20.142  0.00  0.00    +0.000 A 
ATOM     16  C   UNL     1       2.276   2.808  21.568  0.00  0.00    +0.000 C 
ENDBRANCH  10  11
ENDBRANCH   5  10
TORSDOF 3
ENDMDL
MODEL 4
REMARK VINA RESULT:      -6.4      3.952      6.921
REMARK  Name = 
REMARK  5 active torsions:
REMARK  status: ('A' for Active; 'I' for Inactive)
REMARK    1  A    between atoms: C_1  and  C_2
REMARK    2  A    between atoms: C_2  and  C_3
REMARK    3  A    between atoms: N_7  and  C_8
REMARK    4  A    between atoms: C_8  and  C_9
REMARK    5  A    between atoms: C_13  and  C_14
REMARK                            x       y       z     vdW  Elec       q    Type
REMARK                         _______ _______ _______ _____ _____    ______ ____
ROOT
ATOM      1  C   UNL     1       6.949   5.513  17.878  0.00  0.00    +0.000 A 
ATOM      2  C   UNL     1       6.821   5.274  16.524  0.00  0.00    +0.000 A 
ATOM      3  S   UNL     1       5.587   4.125  16.249  0.00  0.00    +0.000 S 
ATOM      4  C   UNL     1       5.382   3.939  17.951  0.00  0.00    +0.000 A 
ATOM      5  N   UNL     1       4.448   3.072  18.406  0.00  0.00    +0.000 N 
ATOM      6  N   UNL     1       6.166   4.695  18.686  0.00  0.00    +0.000 NA
ATOM      7  H   UNL     1       3.508   3.273  18.075  0.00  0.00    +0.000 HD
ENDROOT
BRANCH   1   9
ATOM      8  C   UNL     1       7.815   7.868  17.732  0.00  0.00    +0.000 C 
ATOM      9  C   UNL     1       7.819   6.557  18.500  0.00  0.00    +0.000 C 
ENDBRANCH   1   9
BRANCH   5  10
ATOM     10  C   UNL     1       4.454   2.693  19.814  0.00  0.00    +0.000 C 
BRANCH  10  11
ATOM     11  C   UNL     1       3.099   2.761  20.473  0.00  0.00    +0.000 A 
ATOM     12  N   UNL     1       2.965   2.390  21.756  0.00  0.00    +0.000 NA
ATOM     13  O   UNL     1       1.641   2.616  22.077  0.00  0.00    +0.000 OA
ATOM     14  C   UNL     1       0.998   3.128  21.001  0.00  0.00    +0.000 A 
ATOM     15  C   UNL     1       1.871   3.248  19.944  0.00  0.00    +0.000 A 
ATOM     16  C   UNL     1       1.589   3.793  18.595  0.00  0.00    +0.000 C 
ENDBRANCH  10  11
ENDBRANCH   5  10
TORSDOF 3
ENDMDL
MODEL 5
REMARK VINA RESULT:      -6.3      3.547      6.548
REMARK  Name = 
REMARK  5 active torsions:
REMARK  status: ('A' for Active; 'I' for Inactive)
REMARK    1  A    between atoms: C_1  and  C_2
REMARK    2  A    between atoms: C_2  and  C_3
REMARK    3  A    between atoms: N_7  and  C_8
REMARK    4  A    between atoms: C_8  and  C_9
REMARK    5  A    between atoms: C_13  and  C_14
REMARK                            x       y       z     vdW  Elec       q    Type
REMARK                         _______ _______ _______ _____ _____    ______ ____
ROOT
ATOM      1  C   UNL     1       6.916   5.518  17.541  0.00  0.00    +0.000 A 
ATOM      2  C   UNL     1       7.010   5.243  16.191  0.00  0.00    +0.000 A 
ATOM      3  S   UNL     1       5.809   4.114  15.740  0.00  0.00    +0.000 S 
ATOM      4  C   UNL     1       5.316   3.983  17.387  0.00  0.00    +0.000 A 
ATOM      5  N   UNL     1       4.295   3.152  17.699  0.00  0.00    +0.000 N 
ATOM      6  N   UNL     1       5.986   4.742  18.225  0.00  0.00    +0.000 NA
ATOM      7  H   UNL     1       3.431   3.364  17.210  0.00  0.00    +0.000 HD
ENDROOT
BRANCH   1   9
ATOM      8  C   UNL     1       7.709   7.902  17.565  0.00  0.00    +0.000 C 
ATOM      9  C   UNL     1       7.697   6.559  18.274  0.00  0.00    +0.000 C 
ENDBRANCH   1   9
BRANCH   5  10
ATOM     10  C   UNL     1       4.055   2.813  19.097  0.00  0.00    +0.000 C 
BRANCH  10  11
ATOM     11  C   UNL     1       2.895   3.553  19.716  0.00  0.00    +0.000 A 
ATOM     12  N   UNL     1       3.123   4.650  20.455  0.00  0.00    +0.000 NA
ATOM     13  O   UNL     1       1.880   5.120  20.827  0.00  0.00    +0.000 OA
ATOM     14  C   UNL     1       0.921   4.319  20.303  0.00  0.00    +0.000 A 
ATOM     15  C   UNL     1       1.500   3.301  19.581  0.00  0.00    +0.000 A 
ATOM     16  C   UNL     1       0.817   2.229  18.821  0.00  0.00    +0.000 C 
ENDBRANCH  10  11
ENDBRANCH   5  10
TORSDOF 3
ENDMDL
MODEL 6
REMARK VINA RESULT:      -6.3      3.693      4.342
REMARK  Name = 
REMARK  5 active torsions:
REMARK  status: ('A' for Active; 'I' for Inactive)
REMARK    1  A    between atoms: C_1  and  C_2
REMARK    2  A    between atoms: C_2  and  C_3
REMARK    3  A    between atoms: N_7  and  C_8
REMARK    4  A    between atoms: C_8  and  C_9
REMARK    5  A    between atoms: C_13  and  C_14
REMARK                            x       y       z     vdW  Elec       q    Type
REMARK                         _______ _______ _______ _____ _____    ______ ____
ROOT
ATOM      1  C   UNL     1       1.901   3.325  19.476  0.00  0.00    +0.000 A 
ATOM      2  C   UNL     1       1.660   2.240  18.656  0.00  0.00    +0.000 A 
ATOM      3  S   UNL     1       2.808   2.198  17.391  0.00  0.00    +0.000 S 
ATOM      4  C   UNL     1       3.479   3.685  17.953  0.00  0.00    +0.000 A 
ATOM      5  N   UNL     1       4.531   4.218  17.290  0.00  0.00    +0.000 N 
ATOM      6  N   UNL     1       2.903   4.179  19.025  0.00  0.00    +0.000 NA
ATOM      7  H   UNL     1       5.336   3.601  17.235  0.00  0.00    +0.000 HD
ENDROOT
BRANCH   1   9
ATOM      8  C   UNL     1       1.523   2.609  21.855  0.00  0.00    +0.000 C 
ATOM      9  C   UNL     1       1.202   3.616  20.764  0.00  0.00    +0.000 C 
ENDBRANCH   1   9
BRANCH   5  10
ATOM     10  C   UNL     1       4.924   5.594  17.569  0.00  0.00    +0.000 C 
BRANCH  10  11
ATOM     11  C   UNL     1       6.142   5.717  18.449  0.00  0.00    +0.000 A 
ATOM     12  N   UNL     1       6.247   4.957  19.551  0.00  0.00    +0.000 NA
ATOM     13  O   UNL     1       7.478   5.256  20.100  0.00  0.00    +0.000 OA
ATOM     14  C   UNL     1       8.104   6.175  19.328  0.00  0.00    +0.000 A 
ATOM     15  C   UNL     1       7.308   6.511  18.256  0.00  0.00    +0.000 A 
ATOM     16  C   UNL     1       7.623   7.449  17.155  0.00  0.00    +0.000 C 
ENDBRANCH  10  11
ENDBRANCH   5  10
TORSDOF 3
ENDMDL
MODEL 7
REMARK VINA RESULT:      -6.2      3.862      6.848
REMARK  Name = 
REMARK  5 active torsions:
REMARK  status: ('A' for Active; 'I' for Inactive)
REMARK    1  A    between atoms: C_1  and  C_2
REMARK    2  A    between atoms: C_2  and  C_3
REMARK    3  A    between atoms: N_7  and  C_8
REMARK    4  A    between atoms: C_8  and  C_9
REMARK    5  A    between atoms: C_13  and  C_14
REMARK                            x       y       z     vdW  Elec       q    Type
REMARK                         _______ _______ _______ _____ _____    ______ ____
ROOT
ATOM      1  C   UNL     1       6.645   5.765  17.757  0.00  0.00    +0.000 A 
ATOM      2  C   UNL     1       6.835   4.810  16.778  0.00  0.00    +0.000 A 
ATOM      3  S   UNL     1       5.341   4.093  16.363  0.00  0.00    +0.000 S 
ATOM      4  C   UNL     1       4.558   5.020  17.589  0.00  0.00    +0.000 A 
ATOM      5  N   UNL     1       3.224   4.875  17.766  0.00  0.00    +0.000 N 
ATOM      6  N   UNL     1       5.349   5.828  18.258  0.00  0.00    +0.000 NA
ATOM      7  H   UNL     1       2.677   5.075  16.934  0.00  0.00    +0.000 HD
ENDROOT
BRANCH   1   9
ATOM      8  C   UNL     1       7.674   8.050  17.572  0.00  0.00    +0.000 C 
ATOM      9  C   UNL     1       7.687   6.703  18.274  0.00  0.00    +0.000 C 
ENDBRANCH   1   9
BRANCH   5  10
ATOM     10  C   UNL     1       2.602   5.423  18.965  0.00  0.00    +0.000 C 
BRANCH  10  11
ATOM     11  C   UNL     1       2.256   4.388  20.005  0.00  0.00    +0.000 A 
ATOM     12  N   UNL     1       2.612   4.585  21.284  0.00  0.00    +0.000 NA
ATOM     13  O   UNL     1       2.112   3.506  21.986  0.00  0.00    +0.000 OA
ATOM     14  C   UNL     1       1.455   2.682  21.136  0.00  0.00    +0.000 A 
ATOM     15  C   UNL     1       1.507   3.187  19.856  0.00  0.00    +0.000 A 
ATOM     16  C   UNL     1       0.890   2.620  18.635  0.00  0.00    +0.000 C 
ENDBRANCH  10  11
ENDBRANCH   5  10
TORSDOF 3
ENDMDL
MODEL 8
REMARK VINA RESULT:      -6.2      0.937      1.029
REMARK  Name = 
REMARK  5 active torsions:
REMARK  status: ('A' for Active; 'I' for Inactive)
REMARK    1  A    between atoms: C_1  and  C_2
REMARK    2  A    between atoms: C_2  and  C_3
REMARK    3  A    between atoms: N_7  and  C_8
REMARK    4  A    between atoms: C_8  and  C_9
REMARK    5  A    between atoms: C_13  and  C_14
REMARK                            x       y       z     vdW  Elec       q    Type
REMARK                         _______ _______ _______ _____ _____    ______ ____
ROOT
ATOM      1  C   UNL     1       2.948   3.433  18.057  0.00  0.00    +0.000 A 
ATOM      2  C   UNL     1       2.684   4.618  18.715  0.00  0.00    +0.000 A 
ATOM      3  S   UNL     1       3.672   5.864  18.092  0.00  0.00    +0.000 S 
ATOM      4  C   UNL     1       4.462   4.723  17.067  0.00  0.00    +0.000 A 
ATOM      5  N   UNL     1       5.447   5.155  16.246  0.00  0.00    +0.000 N 
ATOM      6  N   UNL     1       4.012   3.493  17.164  0.00  0.00    +0.000 NA
ATOM      7  H   UNL     1       5.152   5.885  15.603  0.00  0.00    +0.000 HD
ENDROOT
BRANCH   1   9
ATOM      8  C   UNL     1       0.788   2.367  18.773  0.00  0.00    +0.000 C 
ATOM      9  C   UNL     1       2.188   2.157  18.222  0.00  0.00    +0.000 C 
ENDBRANCH   1   9
BRANCH   5  10
ATOM     10  C   UNL     1       6.308   4.177  15.592  0.00  0.00    +0.000 C 
BRANCH  10  11
ATOM     11  C   UNL     1       6.907   4.658  14.294  0.00  0.00    +0.000 A 
ATOM     12  N   UNL     1       7.935   5.521  14.316  0.00  0.00    +0.000 NA
ATOM     13  O   UNL     1       8.287   5.721  12.996  0.00  0.00    +0.000 OA
ATOM     14  C   UNL     1       7.487   4.975  12.199  0.00  0.00    +0.000 A 
ATOM     15  C   UNL     1       6.585   4.271  12.963  0.00  0.00    +0.000 A 
ATOM     16  C   UNL     1       5.556   3.314  12.496  0.00  0.00    +0.000 C 
ENDBRANCH  10  11
ENDBRANCH   5  10
TORSDOF 3
ENDMDL
MODEL 9
REMARK VINA RESULT:      -6.2      2.810      3.465
REMARK  Name = 
REMARK  5 active torsions:
REMARK  status: ('A' for Active; 'I' for Inactive)
REMARK    1  A    between atoms: C_1  and  C_2
REMARK    2  A    between atoms: C_2  and  C_3
REMARK    3  A    between atoms: N_7  and  C_8
REMARK    4  A    between atoms: C_8  and  C_9
REMARK    5  A    between atoms: C_13  and  C_14
REMARK                            x       y       z     vdW  Elec       q    Type
REMARK                         _______ _______ _______ _____ _____    ______ ____
ROOT
ATOM      1  C   UNL     1       2.147   3.502  19.762  0.00  0.00    +0.000 A 
ATOM      2  C   UNL     1       2.007   2.255  19.186  0.00  0.00    +0.000 A 
ATOM      3  S   UNL     1       3.526   1.684  18.654  0.00  0.00    +0.000 S 
ATOM      4  C   UNL     1       4.250   3.177  19.124  0.00  0.00    +0.000 A 
ATOM      5  N   UNL     1       5.579   3.347  18.934  0.00  0.00    +0.000 N 
ATOM      6  N   UNL     1       3.423   4.045  19.661  0.00  0.00    +0.000 NA
ATOM      7  H   UNL     1       6.151   2.650  19.401  0.00  0.00    +0.000 HD
ENDROOT
BRANCH   1   9
ATOM      8  C   UNL     1       1.445   5.708  20.741  0.00  0.00    +0.000 C 
ATOM      9  C   UNL     1       1.071   4.260  20.471  0.00  0.00    +0.000 C 
ENDBRANCH   1   9
BRANCH   5  10
ATOM     10  C   UNL     1       6.150   4.683  19.056  0.00  0.00    +0.000 C 
BRANCH  10  11
ATOM     11  C   UNL     1       6.326   5.397  17.739  0.00  0.00    +0.000 A 
ATOM     12  N   UNL     1       7.428   5.176  17.005  0.00  0.00    +0.000 NA
ATOM     13  O   UNL     1       7.268   5.921  15.853  0.00  0.00    +0.000 OA
ATOM     14  C   UNL     1       6.079   6.567  15.895  0.00  0.00    +0.000 A 
ATOM     15  C   UNL     1       5.427   6.275  17.071  0.00  0.00    +0.000 A 
ATOM     16  C   UNL     1       4.090   6.743  17.504  0.00  0.00    +0.000 C 
ENDBRANCH  10  11
ENDBRANCH   5  10
TORSDOF 3
ENDMDL
