MODEL 1
REMARK VINA RESULT:      -7.0      0.000      0.000
REMARK  Name = 
REMARK  4 active torsions:
REMARK  status: ('A' for Active; 'I' for Inactive)
REMARK    1  A    between atoms: C_1  and  C_2
REMARK    2  A    between atoms: C_5  and  C_7
REMARK    3  A    between atoms: C_9  and  C_10
REMARK    4  A    between atoms: N_13  and  C_14
REMARK                            x       y       z     vdW  Elec       q    Type
REMARK                         _______ _______ _______ _____ _____    ______ ____
ROOT
ATOM      1  C   UNL     1       3.553   1.119  18.830  0.00  0.00    +0.000 C 
ATOM      2  C   UNL     1       3.612   2.623  19.058  0.00  0.00    +0.000 C 
ATOM      3  C   UNL     1       3.253   3.413  17.802  0.00  0.00    +0.000 C 
ATOM      4  N   UNL     1       3.412   4.856  18.032  0.00  0.00    +0.000 N 
ATOM      5  C   UNL     1       4.244   5.740  17.327  0.00  0.00    +0.000 C 
ATOM      6  O   UNL     1       4.156   6.950  17.530  0.00  0.00    +0.000 OA
ATOM      7  C   UNL     1       2.465   5.428  19.000  0.00  0.00    +0.000 C 
ATOM      8  C   UNL     1       2.694   4.876  20.390  0.00  0.00    +0.000 C 
ATOM      9  S   UNL     1       2.499   3.112  20.374  0.00  0.00    +0.000 S 
ATOM     10  O   UNL     1       1.139   2.810  19.968  0.00  0.00    +0.000 OA
ATOM     11  O   UNL     1       3.026   2.602  21.624  0.00  0.00    +0.000 OA
ENDROOT
BRANCH   5  12
ATOM     12  C   UNL     1       5.197   5.230  16.350  0.00  0.00    +0.000 A 
ATOM     13  C   UNL     1       5.019   4.803  15.037  0.00  0.00    +0.000 A 
ATOM     14  C   UNL     1       6.278   4.432  14.505  0.00  0.00    +0.000 A 
ATOM     15  C   UNL     1       7.195   4.541  15.524  0.00  0.00    +0.000 A 
ATOM     16  N   UNL     1       6.532   4.981  16.643  0.00  0.00    +0.000 N 
ATOM     17  C   UNL     1       7.171   5.188  17.929  0.00  0.00    +0.000 C 
BRANCH  14  18
ATOM     18  C   UNL     1       6.562   4.019  13.167  0.00  0.00    +0.000 C 
ATOM     19  N   UNL     1       6.803   3.710  12.075  0.00  0.00    +0.000 NA
ENDBRANCH  14  18
ENDBRANCH   5  12
TORSDOF 2
ENDMDL
MODEL 2
REMARK VINA RESULT:      -6.6      3.302      6.303
REMARK  Name = 
REMARK  4 active torsions:
REMARK  status: ('A' for Active; 'I' for Inactive)
REMARK    1  A    between atoms: C_1  and  C_2
REMARK    2  A    between atoms: C_5  and  C_7
REMARK    3  A    between atoms: C_9  and  C_10
REMARK    4  A    between atoms: N_13  and  C_14
REMARK                            x       y       z     vdW  Elec       q    Type
REMARK                         _______ _______ _______ _____ _____    ______ ____
ROOT
ATOM      1  C   UNL     1       7.422   7.383  17.562  0.00  0.00    +0.000 C 
ATOM      2  C   UNL     1       6.467   6.198  17.540  0.00  0.00    +0.000 C 
ATOM      3  C   UNL     1       5.128   6.546  16.895  0.00  0.00    +0.000 C 
ATOM      4  N   UNL     1       4.201   5.408  16.976  0.00  0.00    +0.000 N 
ATOM      5  C   UNL     1       2.940   5.384  17.592  0.00  0.00    +0.000 C 
ATOM      6  O   UNL     1       2.209   4.406  17.444  0.00  0.00    +0.000 OA
ATOM      7  C   UNL     1       4.598   4.239  16.178  0.00  0.00    +0.000 C 
ATOM      8  C   UNL     1       5.877   3.621  16.700  0.00  0.00    +0.000 C 
ATOM      9  S   UNL     1       7.185   4.818  16.648  0.00  0.00    +0.000 S 
ATOM     10  O   UNL     1       7.385   5.213  15.266  0.00  0.00    +0.000 OA
ATOM     11  O   UNL     1       8.287   4.298  17.434  0.00  0.00    +0.000 OA
ENDROOT
BRANCH   5  12
ATOM     12  C   UNL     1       2.490   6.519  18.389  0.00  0.00    +0.000 A 
ATOM     13  C   UNL     1       2.245   7.842  18.036  0.00  0.00    +0.000 A 
ATOM     14  C   UNL     1       1.788   8.539  19.181  0.00  0.00    +0.000 A 
ATOM     15  C   UNL     1       1.854   7.665  20.240  0.00  0.00    +0.000 A 
ATOM     16  N   UNL     1       2.316   6.462  19.765  0.00  0.00    +0.000 N 
ATOM     17  C   UNL     1       2.544   5.300  20.603  0.00  0.00    +0.000 C 
BRANCH  14  18
ATOM     18  C   UNL     1       1.342   9.896  19.245  0.00  0.00    +0.000 C 
ATOM     19  N   UNL     1       0.970  10.995  19.270  0.00  0.00    +0.000 NA
ENDBRANCH  14  18
ENDBRANCH   5  12
TORSDOF 2
ENDMDL
MODEL 3
REMARK VINA RESULT:      -6.3      2.983      6.413
REMARK  Name = 
REMARK  4 active torsions:
REMARK  status: ('A' for Active; 'I' for Inactive)
REMARK    1  A    between atoms: C_1  and  C_2
REMARK    2  A    between atoms: C_5  and  C_7
REMARK    3  A    between atoms: C_9  and  C_10
REMARK    4  A    between atoms: N_13  and  C_14
REMARK                            x       y       z     vdW  Elec       q    Type
REMARK                         _______ _______ _______ _____ _____    ______ ____
ROOT
ATOM      1  C   UNL     1       7.416   6.686  18.559  0.00  0.00    +0.000 C 
ATOM      2  C   UNL     1       6.504   5.601  18.004  0.00  0.00    +0.000 C 
ATOM      3  C   UNL     1       5.151   6.153  17.562  0.00  0.00    +0.000 C 
ATOM      4  N   UNL     1       4.265   5.066  17.120  0.00  0.00    +0.000 N 
ATOM      5  C   UNL     1       3.008   4.730  17.647  0.00  0.00    +0.000 C 
ATOM      6  O   UNL     1       2.312   3.894  17.073  0.00  0.00    +0.000 OA
ATOM      7  C   UNL     1       4.701   4.384  15.893  0.00  0.00    +0.000 C 
ATOM      8  C   UNL     1       6.003   3.643  16.105  0.00  0.00    +0.000 C 
ATOM      9  S   UNL     1       7.268   4.782  16.604  0.00  0.00    +0.000 S 
ATOM     10  O   UNL     1       7.449   5.753  15.541  0.00  0.00    +0.000 OA
ATOM     11  O   UNL     1       8.390   4.006  17.092  0.00  0.00    +0.000 OA
ENDROOT
BRANCH   5  12
ATOM     12  C   UNL     1       2.521   5.380  18.857  0.00  0.00    +0.000 A 
ATOM     13  C   UNL     1       2.236   6.715  19.125  0.00  0.00    +0.000 A 
ATOM     14  C   UNL     1       1.755   6.819  20.454  0.00  0.00    +0.000 A 
ATOM     15  C   UNL     1       1.845   5.567  21.015  0.00  0.00    +0.000 A 
ATOM     16  N   UNL     1       2.345   4.713  20.063  0.00  0.00    +0.000 N 
ATOM     17  C   UNL     1       2.607   3.306  20.300  0.00  0.00    +0.000 C 
BRANCH  14  18
ATOM     18  C   UNL     1       1.266   7.993  21.106  0.00  0.00    +0.000 C 
ATOM     19  N   UNL     1       0.897   8.953  21.643  0.00  0.00    +0.000 NA
ENDBRANCH  14  18
ENDBRANCH   5  12
TORSDOF 2
ENDMDL
MODEL 4
REMARK VINA RESULT:      -6.0      3.520      6.645
REMARK  Name = 
REMARK  4 active torsions:
REMARK  status: ('A' for Active; 'I' for Inactive)
REMARK    1  A    between atoms: C_1  and  C_2
REMARK    2  A    between atoms: C_5  and  C_7
REMARK    3  A    between atoms: C_9  and  C_10
REMARK    4  A    between atoms: N_13  and  C_14
REMARK                            x       y       z     vdW  Elec       q    Type
REMARK                         _______ _______ _______ _____ _____    ______ ____
ROOT
ATOM      1  C   UNL     1       1.359   3.360  21.228  0.00  0.00    +0.000 C 
ATOM      2  C   UNL     1       1.763   4.065  19.941  0.00  0.00    +0.000 C 
ATOM      3  C   UNL     1       2.686   5.253  20.198  0.00  0.00    +0.000 C 
ATOM      4  N   UNL     1       2.980   5.964  18.945  0.00  0.00    +0.000 N 
ATOM      5  C   UNL     1       2.716   7.312  18.654  0.00  0.00    +0.000 C 
ATOM      6  O   UNL     1       3.159   7.808  17.619  0.00  0.00    +0.000 OA
ATOM      7  C   UNL     1       3.778   5.196  17.980  0.00  0.00    +0.000 C 
ATOM      8  C   UNL     1       3.020   3.990  17.469  0.00  0.00    +0.000 C 
ATOM      9  S   UNL     1       2.593   2.931  18.828  0.00  0.00    +0.000 S 
ATOM     10  O   UNL     1       3.821   2.481  19.455  0.00  0.00    +0.000 OA
ATOM     11  O   UNL     1       1.616   1.974  18.348  0.00  0.00    +0.000 OA
ENDROOT
BRANCH   5  12
ATOM     12  C   UNL     1       1.936   8.124  19.579  0.00  0.00    +0.000 A 
ATOM     13  C   UNL     1       1.716   7.994  20.946  0.00  0.00    +0.000 A 
ATOM     14  C   UNL     1       0.906   9.072  21.380  0.00  0.00    +0.000 A 
ATOM     15  C   UNL     1       0.558   9.792  20.262  0.00  0.00    +0.000 A 
ATOM     16  N   UNL     1       1.147   9.194  19.175  0.00  0.00    +0.000 N 
ATOM     17  C   UNL     1       0.981   9.659  17.812  0.00  0.00    +0.000 C 
BRANCH  14  18
ATOM     18  C   UNL     1       0.512   9.370  22.722  0.00  0.00    +0.000 C 
ATOM     19  N   UNL     1       0.174   9.631  23.800  0.00  0.00    +0.000 NA
ENDBRANCH  14  18
ENDBRANCH   5  12
TORSDOF 2
ENDMDL
MODEL 5
REMARK VINA RESULT:      -5.9      1.713      2.089
REMARK  Name = 
REMARK  4 active torsions:
REMARK  status: ('A' for Active; 'I' for Inactive)
REMARK    1  A    between atoms: C_1  and  C_2
REMARK    2  A    between atoms: C_5  and  C_7
REMARK    3  A    between atoms: C_9  and  C_10
REMARK    4  A    between atoms: N_13  and  C_14
REMARK                            x       y       z     vdW  Elec       q    Type
REMARK                         _______ _______ _______ _____ _____    ______ ____
ROOT
ATOM      1  C   UNL     1       0.922   4.347  17.104  0.00  0.00    +0.000 C 
ATOM      2  C   UNL     1       2.104   3.977  17.989  0.00  0.00    +0.000 C 
ATOM      3  C   UNL     1       3.199   5.041  17.967  0.00  0.00    +0.000 C 
ATOM      4  N   UNL     1       4.361   4.607  18.757  0.00  0.00    +0.000 N 
ATOM      5  C   UNL     1       5.680   4.448  18.304  0.00  0.00    +0.000 C 
ATOM      6  O   UNL     1       6.579   4.229  19.115  0.00  0.00    +0.000 OA
ATOM      7  C   UNL     1       4.111   4.496  20.200  0.00  0.00    +0.000 C 
ATOM      8  C   UNL     1       3.115   3.398  20.506  0.00  0.00    +0.000 C 
ATOM      9  S   UNL     1       1.579   3.737  19.686  0.00  0.00    +0.000 S 
ATOM     10  O   UNL     1       1.061   4.994  20.194  0.00  0.00    +0.000 OA
ATOM     11  O   UNL     1       0.776   2.532  19.744  0.00  0.00    +0.000 OA
ENDROOT
BRANCH   5  12
ATOM     12  C   UNL     1       5.988   4.556  16.884  0.00  0.00    +0.000 A 
ATOM     13  C   UNL     1       5.798   3.659  15.837  0.00  0.00    +0.000 A 
ATOM     14  C   UNL     1       6.238   4.265  14.635  0.00  0.00    +0.000 A 
ATOM     15  C   UNL     1       6.782   5.481  14.971  0.00  0.00    +0.000 A 
ATOM     16  N   UNL     1       6.667   5.634  16.330  0.00  0.00    +0.000 N 
ATOM     17  C   UNL     1       7.160   6.789  17.056  0.00  0.00    +0.000 C 
BRANCH  14  18
ATOM     18  C   UNL     1       6.144   3.728  13.313  0.00  0.00    +0.000 C 
ATOM     19  N   UNL     1       6.065   3.318  12.231  0.00  0.00    +0.000 NA
ENDBRANCH  14  18
ENDBRANCH   5  12
TORSDOF 2
ENDMDL
MODEL 6
REMARK VINA RESULT:      -5.8      2.933      6.360
REMARK  Name = 
REMARK  4 active torsions:
REMARK  status: ('A' for Active; 'I' for Inactive)
REMARK    1  A    between atoms: C_1  and  C_2
REMARK    2  A    between atoms: C_5  and  C_7
REMARK    3  A    between atoms: C_9  and  C_10
REMARK    4  A    between atoms: N_13  and  C_14
REMARK                            x       y       z     vdW  Elec       q    Type
REMARK                         _______ _______ _______ _____ _____    ______ ____
ROOT
ATOM      1  C   UNL     1       7.164   5.671  19.493  0.00  0.00    +0.000 C 
ATOM      2  C   UNL     1       6.407   4.904  18.418  0.00  0.00    +0.000 C 
ATOM      3  C   UNL     1       5.021   5.491  18.156  0.00  0.00    +0.000 C 
ATOM      4  N   UNL     1       4.286   4.671  17.183  0.00  0.00    +0.000 N 
ATOM      5  C   UNL     1       3.052   4.030  17.375  0.00  0.00    +0.000 C 
ATOM      6  O   UNL     1       2.482   3.508  16.419  0.00  0.00    +0.000 OA
ATOM      7  C   UNL     1       4.852   4.679  15.826  0.00  0.00    +0.000 C 
ATOM      8  C   UNL     1       6.218   4.029  15.793  0.00  0.00    +0.000 C 
ATOM      9  S   UNL     1       7.322   4.899  16.877  0.00  0.00    +0.000 S 
ATOM     10  O   UNL     1       7.440   6.265  16.403  0.00  0.00    +0.000 OA
ATOM     11  O   UNL     1       8.500   4.074  17.055  0.00  0.00    +0.000 OA
ENDROOT
BRANCH   5  12
ATOM     12  C   UNL     1       2.439   3.998  18.698  0.00  0.00    +0.000 A 
ATOM     13  C   UNL     1       2.123   2.930  19.531  0.00  0.00    +0.000 A 
ATOM     14  C   UNL     1       1.571   3.440  20.732  0.00  0.00    +0.000 A 
ATOM     15  C   UNL     1       1.463   4.802  20.581  0.00  0.00    +0.000 A 
ATOM     16  N   UNL     1       1.949   5.128  19.339  0.00  0.00    +0.000 N 
ATOM     17  C   UNL     1       1.970   6.480  18.811  0.00  0.00    +0.000 C 
BRANCH  14  18
ATOM     18  C   UNL     1       1.190   2.696  21.892  0.00  0.00    +0.000 C 
ATOM     19  N   UNL     1       0.867   2.073  22.816  0.00  0.00    +0.000 NA
ENDBRANCH  14  18
ENDBRANCH   5  12
TORSDOF 2
ENDMDL
MODEL 7
REMARK VINA RESULT:      -5.6      2.718      4.483
REMARK  Name = 
REMARK  4 active torsions:
REMARK  status: ('A' for Active; 'I' for Inactive)
REMARK    1  A    between atoms: C_1  and  C_2
REMARK    2  A    between atoms: C_5  and  C_7
REMARK    3  A    between atoms: C_9  and  C_10
REMARK    4  A    between atoms: N_13  and  C_14
REMARK                            x       y       z     vdW  Elec       q    Type
REMARK                         _______ _______ _______ _____ _____    ______ ____
ROOT
ATOM      1  C   UNL     1       2.239   6.313  19.611  0.00  0.00    +0.000 C 
ATOM      2  C   UNL     1       3.134   5.384  18.804  0.00  0.00    +0.000 C 
ATOM      3  C   UNL     1       4.551   5.311  19.369  0.00  0.00    +0.000 C 
ATOM      4  N   UNL     1       5.410   4.481  18.512  0.00  0.00    +0.000 N 
ATOM      5  C   UNL     1       6.594   4.871  17.867  0.00  0.00    +0.000 C 
ATOM      6  O   UNL     1       7.290   4.025  17.309  0.00  0.00    +0.000 OA
ATOM      7  C   UNL     1       5.049   3.056  18.483  0.00  0.00    +0.000 C 
ATOM      8  C   UNL     1       3.694   2.842  17.845  0.00  0.00    +0.000 C 
ATOM      9  S   UNL     1       2.455   3.726  18.758  0.00  0.00    +0.000 S 
ATOM     10  O   UNL     1       2.426   3.199  20.110  0.00  0.00    +0.000 OA
ATOM     11  O   UNL     1       1.252   3.753  17.951  0.00  0.00    +0.000 OA
ENDROOT
BRANCH   5  12
ATOM     12  C   UNL     1       7.005   6.269  17.870  0.00  0.00    +0.000 A 
ATOM     13  C   UNL     1       7.949   6.942  18.641  0.00  0.00    +0.000 A 
ATOM     14  C   UNL     1       7.992   8.295  18.226  0.00  0.00    +0.000 A 
ATOM     15  C   UNL     1       7.009   8.460  17.280  0.00  0.00    +0.000 A 
ATOM     16  N   UNL     1       6.391   7.247  17.099  0.00  0.00    +0.000 N 
ATOM     17  C   UNL     1       5.278   7.038  16.192  0.00  0.00    +0.000 C 
BRANCH  14  18
ATOM     18  C   UNL     1       8.881   9.313  18.693  0.00  0.00    +0.000 C 
ATOM     19  N   UNL     1       9.580  10.157  19.074  0.00  0.00    +0.000 NA
ENDBRANCH  14  18
ENDBRANCH   5  12
TORSDOF 2
ENDMDL
MODEL 8
REMARK VINA RESULT:      -5.6      3.306      6.229
REMARK  Name = 
REMARK  4 active torsions:
REMARK  status: ('A' for Active; 'I' for Inactive)
REMARK    1  A    between atoms: C_1  and  C_2
REMARK    2  A    between atoms: C_5  and  C_7
REMARK    3  A    between atoms: C_9  and  C_10
REMARK    4  A    between atoms: N_13  and  C_14
REMARK                            x       y       z     vdW  Elec       q    Type
REMARK                         _______ _______ _______ _____ _____    ______ ____
ROOT
ATOM      1  C   UNL     1       7.572   4.565  18.426  0.00  0.00    +0.000 C 
ATOM      2  C   UNL     1       6.350   5.106  17.696  0.00  0.00    +0.000 C 
ATOM      3  C   UNL     1       5.297   5.652  18.657  0.00  0.00    +0.000 C 
ATOM      4  N   UNL     1       4.096   6.078  17.924  0.00  0.00    +0.000 N 
ATOM      5  C   UNL     1       2.786   5.604  18.095  0.00  0.00    +0.000 C 
ATOM      6  O   UNL     1       1.856   6.165  17.519  0.00  0.00    +0.000 OA
ATOM      7  C   UNL     1       4.298   7.238  17.044  0.00  0.00    +0.000 C 
ATOM      8  C   UNL     1       5.242   6.913  15.908  0.00  0.00    +0.000 C 
ATOM      9  S   UNL     1       6.814   6.412  16.559  0.00  0.00    +0.000 S 
ATOM     10  O   UNL     1       7.362   7.518  17.322  0.00  0.00    +0.000 OA
ATOM     11  O   UNL     1       7.570   5.818  15.474  0.00  0.00    +0.000 OA
ENDROOT
BRANCH   5  12
ATOM     12  C   UNL     1       2.527   4.461  18.962  0.00  0.00    +0.000 A 
ATOM     13  C   UNL     1       2.016   4.394  20.255  0.00  0.00    +0.000 A 
ATOM     14  C   UNL     1       1.928   3.032  20.637  0.00  0.00    +0.000 A 
ATOM     15  C   UNL     1       2.476   2.290  19.618  0.00  0.00    +0.000 A 
ATOM     16  N   UNL     1       2.872   3.158  18.630  0.00  0.00    +0.000 N 
ATOM     17  C   UNL     1       3.524   2.738  17.404  0.00  0.00    +0.000 C 
BRANCH  14  18
ATOM     18  C   UNL     1       1.378   2.510  21.849  0.00  0.00    +0.000 C 
ATOM     19  N   UNL     1       0.947   2.062  22.828  0.00  0.00    +0.000 NA
ENDBRANCH  14  18
ENDBRANCH   5  12
TORSDOF 2
ENDMDL
MODEL 9
REMARK VINA RESULT:      -5.4      9.681     11.746
REMARK  Name = 
REMARK  4 active torsions:
REMARK  status: ('A' for Active; 'I' for Inactive)
REMARK    1  A    between atoms: C_1  and  C_2
REMARK    2  A    between atoms: C_5  and  C_7
REMARK    3  A    between atoms: C_9  and  C_10
REMARK    4  A    between atoms: N_13  and  C_14
REMARK                            x       y       z     vdW  Elec       q    Type
REMARK                         _______ _______ _______ _____ _____    ______ ____
ROOT
ATOM      1  C   UNL     1       6.353  15.790  19.515  0.00  0.00    +0.000 C 
ATOM      2  C   UNL     1       7.874  15.750  19.500  0.00  0.00    +0.000 C 
ATOM      3  C   UNL     1       8.420  14.921  18.339  0.00  0.00    +0.000 C 
ATOM      4  N   UNL     1       9.885  14.828  18.411  0.00  0.00    +0.000 N 
ATOM      5  C   UNL     1      10.656  13.658  18.502  0.00  0.00    +0.000 C 
ATOM      6  O   UNL     1      11.879  13.727  18.396  0.00  0.00    +0.000 OA
ATOM      7  C   UNL     1      10.589  16.100  18.198  0.00  0.00    +0.000 C 
ATOM      8  C   UNL     1      10.297  17.086  19.308  0.00  0.00    +0.000 C 
ATOM      9  S   UNL     1       8.554  17.405  19.384  0.00  0.00    +0.000 S 
ATOM     10  O   UNL     1       8.144  17.988  18.120  0.00  0.00    +0.000 OA
ATOM     11  O   UNL     1       8.287  18.090  20.633  0.00  0.00    +0.000 OA
ENDROOT
BRANCH   5  12
ATOM     12  C   UNL     1      10.011  12.367  18.704  0.00  0.00    +0.000 A 
ATOM     13  C   UNL     1       9.388  11.507  17.806  0.00  0.00    +0.000 A 
ATOM     14  C   UNL     1       8.951  10.356  18.507  0.00  0.00    +0.000 A 
ATOM     15  C   UNL     1       9.221  10.568  19.838  0.00  0.00    +0.000 A 
ATOM     16  N   UNL     1       9.821  11.798  19.957  0.00  0.00    +0.000 N 
ATOM     17  C   UNL     1      10.226  12.378  21.223  0.00  0.00    +0.000 C 
BRANCH  14  18
ATOM     18  C   UNL     1       8.341   9.187  17.955  0.00  0.00    +0.000 C 
ATOM     19  N   UNL     1       7.826   8.242  17.525  0.00  0.00    +0.000 NA
ENDBRANCH  14  18
ENDBRANCH   5  12
TORSDOF 2
ENDMDL
