MODEL 1
REMARK VINA RESULT:      -7.8      0.000      0.000
REMARK  Name = 
REMARK  7 active torsions:
REMARK  status: ('A' for Active; 'I' for Inactive)
REMARK    1  A    between atoms: C_1  and  O_2
REMARK    2  A    between atoms: O_2  and  C_3
REMARK    3  A    between atoms: C_6  and  C_7
REMARK    4  A    between atoms: N_13  and  C_14
REMARK    5  A    between atoms: C_16  and  C_17
REMARK    6  A    between atoms: C_17  and  O_18
REMARK    7  A    between atoms: C_19  and  O_20
REMARK                            x       y       z     vdW  Elec       q    Type
REMARK                         _______ _______ _______ _____ _____    ______ ____
ROOT
ATOM      1  C   UNL     1       0.643   9.986  21.671  0.00  0.00    +0.000 C 
ATOM      2  O   UNL     1       1.206   9.326  22.536  0.00  0.00    +0.000 OA
ATOM      3  N   UNL     1       0.741   9.759  20.304  0.00  0.00    +0.000 N 
ATOM      4  C   UNL     1       1.432   8.731  19.695  0.00  0.00    +0.000 A 
ATOM      5  C   UNL     1       1.677   7.512  20.480  0.00  0.00    +0.000 A 
ATOM      6  C   UNL     1       2.356   6.559  19.850  0.00  0.00    +0.000 A 
ATOM      7  N   UNL     1       2.776   6.725  18.551  0.00  0.00    +0.000 N 
ATOM      8  C   UNL     1       2.539   7.916  17.854  0.00  0.00    +0.000 A 
ATOM      9  O   UNL     1       2.971   8.068  16.711  0.00  0.00    +0.000 OA
ATOM     10  N   UNL     1       1.796   8.904  18.470  0.00  0.00    +0.000 NA
ATOM     11  H   UNL     1       0.497  10.514  19.676  0.00  0.00    +0.000 HD
ENDROOT
BRANCH   7  12
ATOM     12  C   UNL     1       3.488   5.659  17.845  0.00  0.00    +0.000 C 
ATOM     13  O   UNL     1       3.089   4.374  18.398  0.00  0.00    +0.000 OA
ATOM     14  C   UNL     1       4.287   3.612  18.644  0.00  0.00    +0.000 C 
ATOM     15  C   UNL     1       5.411   4.613  18.849  0.00  0.00    +0.000 C 
ATOM     16  C   UNL     1       5.025   5.723  17.888  0.00  0.00    +0.000 C 
ATOM     17  F   UNL     1       5.553   5.442  16.666  0.00  0.00    +0.000 F 
ATOM     18  F   UNL     1       5.525   6.909  18.284  0.00  0.00    +0.000 F 
BRANCH  15  19
ATOM     19  O   UNL     1       6.684   4.019  18.587  0.00  0.00    +0.000 OA
ATOM     20  H   UNL     1       6.659   3.099  18.919  0.00  0.00    +0.000 HD
ENDBRANCH  15  19
BRANCH  14  21
ATOM     21  C   UNL     1       4.071   2.725  19.871  0.00  0.00    +0.000 C 
BRANCH  21  22
ATOM     22  O   UNL     1       5.167   1.826  20.023  0.00  0.00    +0.000 OA
ATOM     23  H   UNL     1       5.934   2.367  20.290  0.00  0.00    +0.000 HD
ENDBRANCH  21  22
ENDBRANCH  14  21
ENDBRANCH   7  12
BRANCH   1  27
ATOM     24  C   UNL     1      -1.834  13.257  22.890  0.00  0.00    +0.000 A 
ATOM     25  C   UNL     1      -2.052  11.967  23.370  0.00  0.00    +0.000 A 
ATOM     26  C   UNL     1      -1.205  10.927  22.991  0.00  0.00    +0.000 A 
ATOM     27  C   UNL     1      -0.133  11.167  22.121  0.00  0.00    +0.000 A 
ATOM     28  C   UNL     1       0.084  12.456  21.626  0.00  0.00    +0.000 A 
ATOM     29  C   UNL     1      -0.773  13.500  22.012  0.00  0.00    +0.000 A 
BRANCH  24  31
ATOM     30  C   UNL     1      -3.865  13.667  24.030  0.00  0.00    +0.000 C 
ATOM     31  O   UNL     1      -2.758  14.178  23.299  0.00  0.00    +0.000 OA
ENDBRANCH  24  31
ENDBRANCH   1  27
TORSDOF 6
ENDMDL
MODEL 2
REMARK VINA RESULT:      -7.7      2.011      3.050
REMARK  Name = 
REMARK  7 active torsions:
REMARK  status: ('A' for Active; 'I' for Inactive)
REMARK    1  A    between atoms: C_1  and  O_2
REMARK    2  A    between atoms: O_2  and  C_3
REMARK    3  A    between atoms: C_6  and  C_7
REMARK    4  A    between atoms: N_13  and  C_14
REMARK    5  A    between atoms: C_16  and  C_17
REMARK    6  A    between atoms: C_17  and  O_18
REMARK    7  A    between atoms: C_19  and  O_20
REMARK                            x       y       z     vdW  Elec       q    Type
REMARK                         _______ _______ _______ _____ _____    ______ ____
ROOT
ATOM      1  C   UNL     1       0.610   9.158  20.334  0.00  0.00    +0.000 C 
ATOM      2  O   UNL     1       0.850   9.443  19.167  0.00  0.00    +0.000 OA
ATOM      3  N   UNL     1       1.050   8.011  20.982  0.00  0.00    +0.000 N 
ATOM      4  C   UNL     1       1.870   7.036  20.449  0.00  0.00    +0.000 A 
ATOM      5  C   UNL     1       2.748   7.417  19.333  0.00  0.00    +0.000 A 
ATOM      6  C   UNL     1       3.507   6.439  18.850  0.00  0.00    +0.000 A 
ATOM      7  N   UNL     1       3.462   5.173  19.385  0.00  0.00    +0.000 N 
ATOM      8  C   UNL     1       2.589   4.854  20.433  0.00  0.00    +0.000 A 
ATOM      9  O   UNL     1       2.522   3.702  20.862  0.00  0.00    +0.000 OA
ATOM     10  N   UNL     1       1.822   5.863  20.983  0.00  0.00    +0.000 NA
ATOM     11  H   UNL     1       0.565   7.720  21.821  0.00  0.00    +0.000 HD
ENDROOT
BRANCH   7  12
ATOM     12  C   UNL     1       4.328   4.107  18.880  0.00  0.00    +0.000 C 
ATOM     13  O   UNL     1       5.716   4.522  19.008  0.00  0.00    +0.000 OA
ATOM     14  C   UNL     1       6.371   4.249  17.753  0.00  0.00    +0.000 C 
ATOM     15  C   UNL     1       5.296   4.269  16.681  0.00  0.00    +0.000 C 
ATOM     16  C   UNL     1       4.104   3.684  17.418  0.00  0.00    +0.000 C 
ATOM     17  F   UNL     1       4.142   2.329  17.297  0.00  0.00    +0.000 F 
ATOM     18  F   UNL     1       2.943   4.108  16.884  0.00  0.00    +0.000 F 
BRANCH  15  19
ATOM     19  O   UNL     1       5.703   3.528  15.529  0.00  0.00    +0.000 OA
ATOM     20  H   UNL     1       6.002   2.646  15.831  0.00  0.00    +0.000 HD
ENDBRANCH  15  19
BRANCH  14  21
ATOM     21  C   UNL     1       7.449   5.308  17.513  0.00  0.00    +0.000 C 
BRANCH  21  22
ATOM     22  O   UNL     1       7.396   5.761  16.162  0.00  0.00    +0.000 OA
ATOM     23  H   UNL     1       7.661   5.005  15.605  0.00  0.00    +0.000 HD
ENDBRANCH  21  22
ENDBRANCH  14  21
ENDBRANCH   7  12
BRANCH   1  27
ATOM     24  C   UNL     1      -1.836  12.013  22.381  0.00  0.00    +0.000 A 
ATOM     25  C   UNL     1      -1.643  12.081  21.002  0.00  0.00    +0.000 A 
ATOM     26  C   UNL     1      -0.878  11.115  20.354  0.00  0.00    +0.000 A 
ATOM     27  C   UNL     1      -0.290  10.071  21.080  0.00  0.00    +0.000 A 
ATOM     28  C   UNL     1      -0.467  10.003  22.465  0.00  0.00    +0.000 A 
ATOM     29  C   UNL     1      -1.241  10.980  23.113  0.00  0.00    +0.000 A 
BRANCH  24  31
ATOM     30  C   UNL     1      -1.850  13.972  23.705  0.00  0.00    +0.000 C 
ATOM     31  O   UNL     1      -2.568  13.042  22.904  0.00  0.00    +0.000 OA
ENDBRANCH  24  31
ENDBRANCH   1  27
TORSDOF 6
ENDMDL
MODEL 3
REMARK VINA RESULT:      -7.7      2.006      2.844
REMARK  Name = 
REMARK  7 active torsions:
REMARK  status: ('A' for Active; 'I' for Inactive)
REMARK    1  A    between atoms: C_1  and  O_2
REMARK    2  A    between atoms: O_2  and  C_3
REMARK    3  A    between atoms: C_6  and  C_7
REMARK    4  A    between atoms: N_13  and  C_14
REMARK    5  A    between atoms: C_16  and  C_17
REMARK    6  A    between atoms: C_17  and  O_18
REMARK    7  A    between atoms: C_19  and  O_20
REMARK                            x       y       z     vdW  Elec       q    Type
REMARK                         _______ _______ _______ _____ _____    ______ ____
ROOT
ATOM      1  C   UNL     1       0.594   9.373  20.260  0.00  0.00    +0.000 C 
ATOM      2  O   UNL     1       0.878   9.588  19.086  0.00  0.00    +0.000 OA
ATOM      3  N   UNL     1       0.938   8.227  20.965  0.00  0.00    +0.000 N 
ATOM      4  C   UNL     1       1.697   7.174  20.493  0.00  0.00    +0.000 A 
ATOM      5  C   UNL     1       2.622   7.442  19.382  0.00  0.00    +0.000 A 
ATOM      6  C   UNL     1       3.319   6.393  18.959  0.00  0.00    +0.000 A 
ATOM      7  N   UNL     1       3.173   5.158  19.547  0.00  0.00    +0.000 N 
ATOM      8  C   UNL     1       2.258   4.948  20.587  0.00  0.00    +0.000 A 
ATOM      9  O   UNL     1       2.100   3.823  21.063  0.00  0.00    +0.000 OA
ATOM     10  N   UNL     1       1.555   6.032  21.076  0.00  0.00    +0.000 NA
ATOM     11  H   UNL     1       0.417   8.008  21.805  0.00  0.00    +0.000 HD
ENDROOT
BRANCH   7  12
ATOM     12  C   UNL     1       3.970   4.012  19.107  0.00  0.00    +0.000 C 
ATOM     13  O   UNL     1       5.378   4.300  19.331  0.00  0.00    +0.000 OA
ATOM     14  C   UNL     1       6.091   3.956  18.126  0.00  0.00    +0.000 C 
ATOM     15  C   UNL     1       5.099   4.064  16.981  0.00  0.00    +0.000 C 
ATOM     16  C   UNL     1       3.810   3.597  17.635  0.00  0.00    +0.000 C 
ATOM     17  F   UNL     1       3.732   2.243  17.521  0.00  0.00    +0.000 F 
ATOM     18  F   UNL     1       2.733   4.120  17.018  0.00  0.00    +0.000 F 
BRANCH  15  19
ATOM     19  O   UNL     1       5.515   3.276  15.863  0.00  0.00    +0.000 OA
ATOM     20  H   UNL     1       4.723   3.080  15.324  0.00  0.00    +0.000 HD
ENDBRANCH  15  19
BRANCH  14  21
ATOM     21  C   UNL     1       7.275   4.909  17.958  0.00  0.00    +0.000 C 
BRANCH  21  22
ATOM     22  O   UNL     1       7.986   4.599  16.761  0.00  0.00    +0.000 OA
ATOM     23  H   UNL     1       7.407   4.863  16.020  0.00  0.00    +0.000 HD
ENDBRANCH  21  22
ENDBRANCH  14  21
ENDBRANCH   7  12
BRANCH   1  27
ATOM     24  C   UNL     1      -1.994  12.059  22.358  0.00  0.00    +0.000 A 
ATOM     25  C   UNL     1      -1.275  11.073  23.031  0.00  0.00    +0.000 A 
ATOM     26  C   UNL     1      -0.406  10.239  22.331  0.00  0.00    +0.000 A 
ATOM     27  C   UNL     1      -0.252  10.379  20.945  0.00  0.00    +0.000 A 
ATOM     28  C   UNL     1      -0.980  11.355  20.261  0.00  0.00    +0.000 A 
ATOM     29  C   UNL     1      -1.854  12.194  20.973  0.00  0.00    +0.000 A 
BRANCH  24  31
ATOM     30  C   UNL     1      -3.266  14.034  22.624  0.00  0.00    +0.000 C 
ATOM     31  O   UNL     1      -2.844  12.781  23.148  0.00  0.00    +0.000 OA
ENDBRANCH  24  31
ENDBRANCH   1  27
TORSDOF 6
ENDMDL
MODEL 4
REMARK VINA RESULT:      -7.7      1.948      2.705
REMARK  Name = 
REMARK  7 active torsions:
REMARK  status: ('A' for Active; 'I' for Inactive)
REMARK    1  A    between atoms: C_1  and  O_2
REMARK    2  A    between atoms: O_2  and  C_3
REMARK    3  A    between atoms: C_6  and  C_7
REMARK    4  A    between atoms: N_13  and  C_14
REMARK    5  A    between atoms: C_16  and  C_17
REMARK    6  A    between atoms: C_17  and  O_18
REMARK    7  A    between atoms: C_19  and  O_20
REMARK                            x       y       z     vdW  Elec       q    Type
REMARK                         _______ _______ _______ _____ _____    ______ ____
ROOT
ATOM      1  C   UNL     1       0.869   9.572  19.711  0.00  0.00    +0.000 C 
ATOM      2  O   UNL     1       0.897  10.007  18.565  0.00  0.00    +0.000 OA
ATOM      3  N   UNL     1       1.467   8.391  20.130  0.00  0.00    +0.000 N 
ATOM      4  C   UNL     1       2.234   7.544  19.355  0.00  0.00    +0.000 A 
ATOM      5  C   UNL     1       2.894   8.111  18.170  0.00  0.00    +0.000 A 
ATOM      6  C   UNL     1       3.609   7.250  17.454  0.00  0.00    +0.000 A 
ATOM      7  N   UNL     1       3.716   5.931  17.826  0.00  0.00    +0.000 N 
ATOM      8  C   UNL     1       3.047   5.433  18.951  0.00  0.00    +0.000 A 
ATOM      9  O   UNL     1       3.108   4.237  19.237  0.00  0.00    +0.000 OA
ATOM     10  N   UNL     1       2.334   6.316  19.739  0.00  0.00    +0.000 NA
ATOM     11  H   UNL     1       1.144   7.973  20.993  0.00  0.00    +0.000 HD
ENDROOT
BRANCH   7  12
ATOM     12  C   UNL     1       4.537   4.993  17.059  0.00  0.00    +0.000 C 
ATOM     13  O   UNL     1       5.564   4.440  17.928  0.00  0.00    +0.000 OA
ATOM     14  C   UNL     1       6.821   4.522  17.228  0.00  0.00    +0.000 C 
ATOM     15  C   UNL     1       6.698   5.664  16.234  0.00  0.00    +0.000 C 
ATOM     16  C   UNL     1       5.241   5.563  15.816  0.00  0.00    +0.000 C 
ATOM     17  F   UNL     1       5.149   4.698  14.770  0.00  0.00    +0.000 F 
ATOM     18  F   UNL     1       4.769   6.754  15.401  0.00  0.00    +0.000 F 
BRANCH  15  19
ATOM     19  O   UNL     1       7.633   5.519  15.163  0.00  0.00    +0.000 OA
ATOM     20  H   UNL     1       8.512   5.791  15.495  0.00  0.00    +0.000 HD
ENDBRANCH  15  19
BRANCH  14  21
ATOM     21  C   UNL     1       7.942   4.754  18.241  0.00  0.00    +0.000 C 
BRANCH  21  22
ATOM     22  O   UNL     1       7.394   5.180  19.487  0.00  0.00    +0.000 OA
ATOM     23  H   UNL     1       6.498   5.515  19.295  0.00  0.00    +0.000 HD
ENDBRANCH  21  22
ENDBRANCH  14  21
ENDBRANCH   7  12
BRANCH   1  27
ATOM     24  C   UNL     1      -1.593  11.508  22.628  0.00  0.00    +0.000 A 
ATOM     25  C   UNL     1      -0.820  10.396  22.956  0.00  0.00    +0.000 A 
ATOM     26  C   UNL     1       0.006   9.810  22.000  0.00  0.00    +0.000 A 
ATOM     27  C   UNL     1       0.062  10.328  20.699  0.00  0.00    +0.000 A 
ATOM     28  C   UNL     1      -0.720  11.435  20.358  0.00  0.00    +0.000 A 
ATOM     29  C   UNL     1      -1.550  12.022  21.327  0.00  0.00    +0.000 A 
BRANCH  24  31
ATOM     30  C   UNL     1      -3.623  12.554  23.240  0.00  0.00    +0.000 C 
ATOM     31  O   UNL     1      -2.393  11.963  23.639  0.00  0.00    +0.000 OA
ENDBRANCH  24  31
ENDBRANCH   1  27
TORSDOF 6
ENDMDL
MODEL 5
REMARK VINA RESULT:      -7.7      2.157      3.062
REMARK  Name = 
REMARK  7 active torsions:
REMARK  status: ('A' for Active; 'I' for Inactive)
REMARK    1  A    between atoms: C_1  and  O_2
REMARK    2  A    between atoms: O_2  and  C_3
REMARK    3  A    between atoms: C_6  and  C_7
REMARK    4  A    between atoms: N_13  and  C_14
REMARK    5  A    between atoms: C_16  and  C_17
REMARK    6  A    between atoms: C_17  and  O_18
REMARK    7  A    between atoms: C_19  and  O_20
REMARK                            x       y       z     vdW  Elec       q    Type
REMARK                         _______ _______ _______ _____ _____    ______ ____
ROOT
ATOM      1  C   UNL     1       0.431   9.744  19.116  0.00  0.00    +0.000 C 
ATOM      2  O   UNL     1       0.652   9.717  17.910  0.00  0.00    +0.000 OA
ATOM      3  N   UNL     1       0.912   8.820  20.035  0.00  0.00    +0.000 N 
ATOM      4  C   UNL     1       1.757   7.762  19.764  0.00  0.00    +0.000 A 
ATOM      5  C   UNL     1       2.614   7.859  18.573  0.00  0.00    +0.000 A 
ATOM      6  C   UNL     1       3.398   6.810  18.352  0.00  0.00    +0.000 A 
ATOM      7  N   UNL     1       3.397   5.729  19.202  0.00  0.00    +0.000 N 
ATOM      8  C   UNL     1       2.544   5.674  20.311  0.00  0.00    +0.000 A 
ATOM      9  O   UNL     1       2.516   4.674  21.030  0.00  0.00    +0.000 OA
ATOM     10  N   UNL     1       1.751   6.771  20.589  0.00  0.00    +0.000 NA
ATOM     11  H   UNL     1       0.444   8.748  20.930  0.00  0.00    +0.000 HD
ENDROOT
BRANCH   7  12
ATOM     12  C   UNL     1       4.291   4.592  18.981  0.00  0.00    +0.000 C 
ATOM     13  O   UNL     1       5.669   5.050  19.056  0.00  0.00    +0.000 OA
ATOM     14  C   UNL     1       6.372   4.511  17.918  0.00  0.00    +0.000 C 
ATOM     15  C   UNL     1       5.335   4.269  16.835  0.00  0.00    +0.000 C 
ATOM     16  C   UNL     1       4.124   3.844  17.647  0.00  0.00    +0.000 C 
ATOM     17  F   UNL     1       4.180   2.499  17.838  0.00  0.00    +0.000 F 
ATOM     18  F   UNL     1       2.978   4.115  16.992  0.00  0.00    +0.000 F 
BRANCH  15  19
ATOM     19  O   UNL     1       5.790   3.292  15.896  0.00  0.00    +0.000 OA
ATOM     20  H   UNL     1       5.299   3.428  15.061  0.00  0.00    +0.000 HD
ENDBRANCH  15  19
BRANCH  14  21
ATOM     21  C   UNL     1       7.447   5.507  17.480  0.00  0.00    +0.000 C 
BRANCH  21  22
ATOM     22  O   UNL     1       7.315   5.785  16.087  0.00  0.00    +0.000 OA
ATOM     23  H   UNL     1       6.370   5.676  15.871  0.00  0.00    +0.000 HD
ENDBRANCH  21  22
ENDBRANCH  14  21
ENDBRANCH   7  12
BRANCH   1  27
ATOM     24  C   UNL     1      -2.335  12.586  20.725  0.00  0.00    +0.000 A 
ATOM     25  C   UNL     1      -1.456  11.886  21.549  0.00  0.00    +0.000 A 
ATOM     26  C   UNL     1      -0.536  10.998  20.996  0.00  0.00    +0.000 A 
ATOM     27  C   UNL     1      -0.490  10.796  19.610  0.00  0.00    +0.000 A 
ATOM     28  C   UNL     1      -1.377  11.484  18.779  0.00  0.00    +0.000 A 
ATOM     29  C   UNL     1      -2.302  12.379  19.342  0.00  0.00    +0.000 A 
BRANCH  24  31
ATOM     30  C   UNL     1      -3.954  12.776  22.438  0.00  0.00    +0.000 C 
ATOM     31  O   UNL     1      -3.217  13.392  21.389  0.00  0.00    +0.000 OA
ENDBRANCH  24  31
ENDBRANCH   1  27
TORSDOF 6
ENDMDL
MODEL 6
REMARK VINA RESULT:      -7.6      1.052      1.344
REMARK  Name = 
REMARK  7 active torsions:
REMARK  status: ('A' for Active; 'I' for Inactive)
REMARK    1  A    between atoms: C_1  and  O_2
REMARK    2  A    between atoms: O_2  and  C_3
REMARK    3  A    between atoms: C_6  and  C_7
REMARK    4  A    between atoms: N_13  and  C_14
REMARK    5  A    between atoms: C_16  and  C_17
REMARK    6  A    between atoms: C_17  and  O_18
REMARK    7  A    between atoms: C_19  and  O_20
REMARK                            x       y       z     vdW  Elec       q    Type
REMARK                         _______ _______ _______ _____ _____    ______ ____
ROOT
ATOM      1  C   UNL     1       0.578   9.792  21.658  0.00  0.00    +0.000 C 
ATOM      2  O   UNL     1       0.896   9.043  22.575  0.00  0.00    +0.000 OA
ATOM      3  N   UNL     1       0.870   9.579  20.317  0.00  0.00    +0.000 N 
ATOM      4  C   UNL     1       1.508   8.477  19.785  0.00  0.00    +0.000 A 
ATOM      5  C   UNL     1       1.453   7.221  20.548  0.00  0.00    +0.000 A 
ATOM      6  C   UNL     1       2.093   6.195  19.997  0.00  0.00    +0.000 A 
ATOM      7  N   UNL     1       2.741   6.324  18.791  0.00  0.00    +0.000 N 
ATOM      8  C   UNL     1       2.785   7.550  18.114  0.00  0.00    +0.000 A 
ATOM      9  O   UNL     1       3.417   7.662  17.063  0.00  0.00    +0.000 OA
ATOM     10  N   UNL     1       2.089   8.621  18.643  0.00  0.00    +0.000 NA
ATOM     11  H   UNL     1       0.837  10.373  19.689  0.00  0.00    +0.000 HD
ENDROOT
BRANCH   7  12
ATOM     12  C   UNL     1       3.410   5.183  18.166  0.00  0.00    +0.000 C 
ATOM     13  O   UNL     1       2.467   4.082  18.055  0.00  0.00    +0.000 OA
ATOM     14  C   UNL     1       3.124   2.894  18.540  0.00  0.00    +0.000 C 
ATOM     15  C   UNL     1       4.196   3.349  19.513  0.00  0.00    +0.000 C 
ATOM     16  C   UNL     1       4.662   4.651  18.884  0.00  0.00    +0.000 C 
ATOM     17  F   UNL     1       5.649   4.372  17.991  0.00  0.00    +0.000 F 
ATOM     18  F   UNL     1       5.174   5.485  19.810  0.00  0.00    +0.000 F 
BRANCH  15  19
ATOM     19  O   UNL     1       5.219   2.360  19.654  0.00  0.00    +0.000 OA
ATOM     20  H   UNL     1       5.663   2.265  18.788  0.00  0.00    +0.000 HD
ENDBRANCH  15  19
BRANCH  14  21
ATOM     21  C   UNL     1       2.086   1.986  19.203  0.00  0.00    +0.000 C 
BRANCH  21  22
ATOM     22  O   UNL     1       0.977   1.791  18.328  0.00  0.00    +0.000 OA
ATOM     23  H   UNL     1       0.174   1.938  18.862  0.00  0.00    +0.000 HD
ENDBRANCH  21  22
ENDBRANCH  14  21
ENDBRANCH   7  12
BRANCH   1  27
ATOM     24  C   UNL     1      -1.617  13.326  22.662  0.00  0.00    +0.000 A 
ATOM     25  C   UNL     1      -1.897  12.104  23.269  0.00  0.00    +0.000 A 
ATOM     26  C   UNL     1      -1.140  10.977  22.957  0.00  0.00    +0.000 A 
ATOM     27  C   UNL     1      -0.096  11.061  22.026  0.00  0.00    +0.000 A 
ATOM     28  C   UNL     1       0.183  12.280  21.403  0.00  0.00    +0.000 A 
ATOM     29  C   UNL     1      -0.584  13.413  21.723  0.00  0.00    +0.000 A 
BRANCH  24  31
ATOM     30  C   UNL     1      -3.811  13.979  23.254  0.00  0.00    +0.000 C 
ATOM     31  O   UNL     1      -2.457  14.344  23.019  0.00  0.00    +0.000 OA
ENDBRANCH  24  31
ENDBRANCH   1  27
TORSDOF 6
ENDMDL
MODEL 7
REMARK VINA RESULT:      -7.5      1.196      1.744
REMARK  Name = 
REMARK  7 active torsions:
REMARK  status: ('A' for Active; 'I' for Inactive)
REMARK    1  A    between atoms: C_1  and  O_2
REMARK    2  A    between atoms: O_2  and  C_3
REMARK    3  A    between atoms: C_6  and  C_7
REMARK    4  A    between atoms: N_13  and  C_14
REMARK    5  A    between atoms: C_16  and  C_17
REMARK    6  A    between atoms: C_17  and  O_18
REMARK    7  A    between atoms: C_19  and  O_20
REMARK                            x       y       z     vdW  Elec       q    Type
REMARK                         _______ _______ _______ _____ _____    ______ ____
ROOT
ATOM      1  C   UNL     1       0.690   9.682  21.477  0.00  0.00    +0.000 C 
ATOM      2  O   UNL     1       0.957   8.932  22.408  0.00  0.00    +0.000 OA
ATOM      3  N   UNL     1       1.032   9.459  20.149  0.00  0.00    +0.000 N 
ATOM      4  C   UNL     1       1.672   8.344  19.647  0.00  0.00    +0.000 A 
ATOM      5  C   UNL     1       1.565   7.092  20.412  0.00  0.00    +0.000 A 
ATOM      6  C   UNL     1       2.209   6.053  19.891  0.00  0.00    +0.000 A 
ATOM      7  N   UNL     1       2.908   6.167  18.712  0.00  0.00    +0.000 N 
ATOM      8  C   UNL     1       3.001   7.389  18.033  0.00  0.00    +0.000 A 
ATOM      9  O   UNL     1       3.677   7.486  17.009  0.00  0.00    +0.000 OA
ATOM     10  N   UNL     1       2.303   8.474  18.530  0.00  0.00    +0.000 NA
ATOM     11  H   UNL     1       1.039  10.251  19.518  0.00  0.00    +0.000 HD
ENDROOT
BRANCH   7  12
ATOM     12  C   UNL     1       3.583   5.013  18.118  0.00  0.00    +0.000 C 
ATOM     13  O   UNL     1       2.627   3.925  17.977  0.00  0.00    +0.000 OA
ATOM     14  C   UNL     1       3.246   2.730  18.492  0.00  0.00    +0.000 C 
ATOM     15  C   UNL     1       4.288   3.174  19.504  0.00  0.00    +0.000 C 
ATOM     16  C   UNL     1       4.797   4.464  18.887  0.00  0.00    +0.000 C 
ATOM     17  F   UNL     1       5.813   4.165  18.033  0.00  0.00    +0.000 F 
ATOM     18  F   UNL     1       5.287   5.295  19.827  0.00  0.00    +0.000 F 
BRANCH  15  19
ATOM     19  O   UNL     1       5.289   2.170  19.688  0.00  0.00    +0.000 OA
ATOM     20  H   UNL     1       4.924   1.491  20.291  0.00  0.00    +0.000 HD
ENDBRANCH  15  19
BRANCH  14  21
ATOM     21  C   UNL     1       2.170   1.842  19.120  0.00  0.00    +0.000 C 
BRANCH  21  22
ATOM     22  O   UNL     1       1.310   2.626  19.945  0.00  0.00    +0.000 OA
ATOM     23  H   UNL     1       0.973   2.028  20.639  0.00  0.00    +0.000 HD
ENDBRANCH  21  22
ENDBRANCH  14  21
ENDBRANCH   7  12
BRANCH   1  27
ATOM     24  C   UNL     1      -0.973  13.490  22.503  0.00  0.00    +0.000 A 
ATOM     25  C   UNL     1       0.020  13.372  21.533  0.00  0.00    +0.000 A 
ATOM     26  C   UNL     1       0.514  12.117  21.186  0.00  0.00    +0.000 A 
ATOM     27  C   UNL     1       0.023  10.964  21.813  0.00  0.00    +0.000 A 
ATOM     28  C   UNL     1      -0.962  11.075  22.797  0.00  0.00    +0.000 A 
ATOM     29  C   UNL     1      -1.458  12.344  23.142  0.00  0.00    +0.000 A 
BRANCH  24  31
ATOM     30  C   UNL     1      -1.407  15.116  24.164  0.00  0.00    +0.000 C 
ATOM     31  O   UNL     1      -1.342  14.776  22.785  0.00  0.00    +0.000 OA
ENDBRANCH  24  31
ENDBRANCH   1  27
TORSDOF 6
ENDMDL
MODEL 8
REMARK VINA RESULT:      -7.5      1.900      2.891
REMARK  Name = 
REMARK  7 active torsions:
REMARK  status: ('A' for Active; 'I' for Inactive)
REMARK    1  A    between atoms: C_1  and  O_2
REMARK    2  A    between atoms: O_2  and  C_3
REMARK    3  A    between atoms: C_6  and  C_7
REMARK    4  A    between atoms: N_13  and  C_14
REMARK    5  A    between atoms: C_16  and  C_17
REMARK    6  A    between atoms: C_17  and  O_18
REMARK    7  A    between atoms: C_19  and  O_20
REMARK                            x       y       z     vdW  Elec       q    Type
REMARK                         _______ _______ _______ _____ _____    ______ ____
ROOT
ATOM      1  C   UNL     1       0.882   9.380  19.808  0.00  0.00    +0.000 C 
ATOM      2  O   UNL     1       0.964   9.902  18.702  0.00  0.00    +0.000 OA
ATOM      3  N   UNL     1       1.442   8.157  20.156  0.00  0.00    +0.000 N 
ATOM      4  C   UNL     1       2.225   7.358  19.348  0.00  0.00    +0.000 A 
ATOM      5  C   UNL     1       2.942   8.002  18.237  0.00  0.00    +0.000 A 
ATOM      6  C   UNL     1       3.671   7.186  17.484  0.00  0.00    +0.000 A 
ATOM      7  N   UNL     1       3.741   5.840  17.755  0.00  0.00    +0.000 N 
ATOM      8  C   UNL     1       3.018   5.269  18.810  0.00  0.00    +0.000 A 
ATOM      9  O   UNL     1       3.047   4.053  19.004  0.00  0.00    +0.000 OA
ATOM     10  N   UNL     1       2.289   6.103  19.637  0.00  0.00    +0.000 NA
ATOM     11  H   UNL     1       1.078   7.679  20.970  0.00  0.00    +0.000 HD
ENDROOT
BRANCH   7  12
ATOM     12  C   UNL     1       4.575   4.948  16.949  0.00  0.00    +0.000 C 
ATOM     13  O   UNL     1       5.597   4.357  17.799  0.00  0.00    +0.000 OA
ATOM     14  C   UNL     1       6.861   4.484  17.117  0.00  0.00    +0.000 C 
ATOM     15  C   UNL     1       6.739   5.675  16.182  0.00  0.00    +0.000 C 
ATOM     16  C   UNL     1       5.288   5.586  15.744  0.00  0.00    +0.000 C 
ATOM     17  F   UNL     1       5.213   4.776  14.655  0.00  0.00    +0.000 F 
ATOM     18  F   UNL     1       4.811   6.794  15.387  0.00  0.00    +0.000 F 
BRANCH  15  19
ATOM     19  O   UNL     1       7.686   5.591  15.115  0.00  0.00    +0.000 OA
ATOM     20  H   UNL     1       7.304   6.050  14.340  0.00  0.00    +0.000 HD
ENDBRANCH  15  19
BRANCH  14  21
ATOM     21  C   UNL     1       7.970   4.670  18.152  0.00  0.00    +0.000 C 
BRANCH  21  22
ATOM     22  O   UNL     1       7.906   5.982  18.707  0.00  0.00    +0.000 OA
ATOM     23  H   UNL     1       7.578   5.880  19.621  0.00  0.00    +0.000 HD
ENDBRANCH  21  22
ENDBRANCH  14  21
ENDBRANCH   7  12
BRANCH   1  27
ATOM     24  C   UNL     1      -1.383  11.621  22.665  0.00  0.00    +0.000 A 
ATOM     25  C   UNL     1      -1.320  12.008  21.328  0.00  0.00    +0.000 A 
ATOM     26  C   UNL     1      -0.612  11.237  20.409  0.00  0.00    +0.000 A 
ATOM     27  C   UNL     1       0.049  10.072  20.821  0.00  0.00    +0.000 A 
ATOM     28  C   UNL     1       0.003   9.686  22.163  0.00  0.00    +0.000 A 
ATOM     29  C   UNL     1      -0.715  10.466  23.085  0.00  0.00    +0.000 A 
BRANCH  24  31
ATOM     30  C   UNL     1      -2.630  13.623  22.835  0.00  0.00    +0.000 C 
ATOM     31  O   UNL     1      -2.071  12.483  23.474  0.00  0.00    +0.000 OA
ENDBRANCH  24  31
ENDBRANCH   1  27
TORSDOF 6
ENDMDL
MODEL 9
REMARK VINA RESULT:      -7.5      3.247      9.847
REMARK  Name = 
REMARK  7 active torsions:
REMARK  status: ('A' for Active; 'I' for Inactive)
REMARK    1  A    between atoms: C_1  and  O_2
REMARK    2  A    between atoms: O_2  and  C_3
REMARK    3  A    between atoms: C_6  and  C_7
REMARK    4  A    between atoms: N_13  and  C_14
REMARK    5  A    between atoms: C_16  and  C_17
REMARK    6  A    between atoms: C_17  and  O_18
REMARK    7  A    between atoms: C_19  and  O_20
REMARK                            x       y       z     vdW  Elec       q    Type
REMARK                         _______ _______ _______ _____ _____    ______ ____
ROOT
ATOM      1  C   UNL     1       2.210   7.978  18.685  0.00  0.00    +0.000 C 
ATOM      2  O   UNL     1       2.136   8.976  17.976  0.00  0.00    +0.000 OA
ATOM      3  N   UNL     1       1.707   7.878  19.975  0.00  0.00    +0.000 N 
ATOM      4  C   UNL     1       0.997   8.850  20.652  0.00  0.00    +0.000 A 
ATOM      5  C   UNL     1       0.282   9.856  19.853  0.00  0.00    +0.000 A 
ATOM      6  C   UNL     1      -0.375  10.774  20.554  0.00  0.00    +0.000 A 
ATOM      7  N   UNL     1      -0.379  10.751  21.929  0.00  0.00    +0.000 N 
ATOM      8  C   UNL     1       0.339   9.785  22.645  0.00  0.00    +0.000 A 
ATOM      9  O   UNL     1       0.370   9.814  23.876  0.00  0.00    +0.000 OA
ATOM     10  N   UNL     1       0.993   8.793  21.941  0.00  0.00    +0.000 NA
ATOM     11  H   UNL     1       2.071   7.148  20.575  0.00  0.00    +0.000 HD
ENDROOT
BRANCH   7  12
ATOM     12  C   UNL     1      -1.137  11.738  22.699  0.00  0.00    +0.000 C 
ATOM     13  O   UNL     1      -2.546  11.630  22.354  0.00  0.00    +0.000 OA
ATOM     14  C   UNL     1      -3.038  12.961  22.101  0.00  0.00    +0.000 C 
ATOM     15  C   UNL     1      -1.845  13.797  21.670  0.00  0.00    +0.000 C 
ATOM     16  C   UNL     1      -0.726  13.209  22.511  0.00  0.00    +0.000 C 
ATOM     17  F   UNL     1      -0.696  13.857  23.707  0.00  0.00    +0.000 F 
ATOM     18  F   UNL     1       0.472  13.385  21.923  0.00  0.00    +0.000 F 
BRANCH  15  19
ATOM     19  O   UNL     1      -2.084  15.189  21.891  0.00  0.00    +0.000 OA
ATOM     20  H   UNL     1      -2.303  15.308  22.837  0.00  0.00    +0.000 HD
ENDBRANCH  15  19
BRANCH  14  21
ATOM     21  C   UNL     1      -4.121  12.896  21.023  0.00  0.00    +0.000 C 
BRANCH  21  22
ATOM     22  O   UNL     1      -3.862  13.868  20.012  0.00  0.00    +0.000 OA
ATOM     23  H   UNL     1      -4.264  13.527  19.191  0.00  0.00    +0.000 HD
ENDBRANCH  21  22
ENDBRANCH  14  21
ENDBRANCH   7  12
BRANCH   1  27
ATOM     24  C   UNL     1       4.400   4.775  16.878  0.00  0.00    +0.000 A 
ATOM     25  C   UNL     1       4.845   6.093  16.795  0.00  0.00    +0.000 A 
ATOM     26  C   UNL     1       4.138   7.112  17.428  0.00  0.00    +0.000 A 
ATOM     27  C   UNL     1       2.970   6.823  18.147  0.00  0.00    +0.000 A 
ATOM     28  C   UNL     1       2.510   5.506  18.223  0.00  0.00    +0.000 A 
ATOM     29  C   UNL     1       3.228   4.483  17.583  0.00  0.00    +0.000 A 
BRANCH  24  31
ATOM     30  C   UNL     1       5.993   4.419  15.167  0.00  0.00    +0.000 C 
ATOM     31  O   UNL     1       5.155   3.875  16.178  0.00  0.00    +0.000 OA
ENDBRANCH  24  31
ENDBRANCH   1  27
TORSDOF 6
ENDMDL
