MODEL 1
REMARK VINA RESULT:      -7.9      0.000      0.000
REMARK  Name = 
REMARK  6 active torsions:
REMARK  status: ('A' for Active; 'I' for Inactive)
REMARK    1  A    between atoms: C_1  and  C_2
REMARK    2  A    between atoms: C_5  and  O_6
REMARK    3  A    between atoms: O_6  and  C_7
REMARK    4  A    between atoms: C_7  and  C_8
REMARK    5  A    between atoms: C_18  and  N_19
REMARK    6  A    between atoms: C_20  and  C_22
REMARK                            x       y       z     vdW  Elec       q    Type
REMARK                         _______ _______ _______ _____ _____    ______ ____
ROOT
ATOM      1  C   UNL     1       1.919   2.926  21.097  0.00  0.00    +0.000 C 
ATOM      2  C   UNL     1       2.199   4.189  20.339  0.00  0.00    +0.000 A 
ATOM      3  C   UNL     1       1.761   5.428  20.800  0.00  0.00    +0.000 A 
ATOM      4  C   UNL     1       2.071   6.592  20.089  0.00  0.00    +0.000 A 
ATOM      5  C   UNL     1       2.827   6.551  18.906  0.00  0.00    +0.000 A 
ATOM      6  C   UNL     1       3.298   5.307  18.455  0.00  0.00    +0.000 A 
ATOM      7  C   UNL     1       2.944   4.139  19.155  0.00  0.00    +0.000 A 
ENDROOT
BRANCH   6   8
ATOM      8  N   UNL     1       4.088   5.079  17.316  0.00  0.00    +0.000 N 
ATOM      9  C   UNL     1       5.407   5.455  17.147  0.00  0.00    +0.000 C 
ATOM     10  O   UNL     1       6.092   6.024  17.991  0.00  0.00    +0.000 OA
ATOM     11  H   UNL     1       3.783   4.356  16.674  0.00  0.00    +0.000 HD
BRANCH   9  12
ATOM     12  C   UNL     1       5.914   5.059  15.844  0.00  0.00    +0.000 A 
ATOM     13  C   UNL     1       5.399   4.237  14.859  0.00  0.00    +0.000 A 
ATOM     14  C   UNL     1       6.362   4.191  13.821  0.00  0.00    +0.000 A 
ATOM     15  C   UNL     1       7.405   4.987  14.229  0.00  0.00    +0.000 A 
ATOM     16  O   UNL     1       7.140   5.532  15.442  0.00  0.00    +0.000 OA
ENDBRANCH   9  12
ENDBRANCH   6   8
BRANCH   5  17
ATOM     17  O   UNL     1       2.959   7.788  18.330  0.00  0.00    +0.000 OA
BRANCH  17  18
ATOM     18  C   UNL     1       1.787   8.440  17.839  0.00  0.00    +0.000 C 
BRANCH  18  19
ATOM     19  C   UNL     1       1.596   9.828  18.433  0.00  0.00    +0.000 A 
ATOM     20  C   UNL     1       2.165  10.928  17.914  0.00  0.00    +0.000 A 
ATOM     21  C   UNL     1       1.954  12.238  18.573  0.00  0.00    +0.000 A 
ATOM     22  O   UNL     1       2.457  13.253  18.099  0.00  0.00    +0.000 OA
ATOM     23  N   UNL     1       1.180  12.186  19.706  0.00  0.00    +0.000 N 
ATOM     24  C   UNL     1       0.854  13.270  20.492  0.00  0.00    +0.000 A 
ATOM     25  C   UNL     1       0.087  12.962  21.545  0.00  0.00    +0.000 A 
ATOM     26  S   UNL     1      -0.272  11.261  21.600  0.00  0.00    +0.000 S 
ATOM     27  C   UNL     1       0.658  10.991  20.132  0.00  0.00    +0.000 A 
ATOM     28  N   UNL     1       0.812   9.845  19.573  0.00  0.00    +0.000 NA
ENDBRANCH  18  19
ENDBRANCH  17  18
ENDBRANCH   5  17
TORSDOF 5
ENDMDL
MODEL 2
REMARK VINA RESULT:      -7.7      2.188      4.919
REMARK  Name = 
REMARK  6 active torsions:
REMARK  status: ('A' for Active; 'I' for Inactive)
REMARK    1  A    between atoms: C_1  and  C_2
REMARK    2  A    between atoms: C_5  and  O_6
REMARK    3  A    between atoms: O_6  and  C_7
REMARK    4  A    between atoms: C_7  and  C_8
REMARK    5  A    between atoms: C_18  and  N_19
REMARK    6  A    between atoms: C_20  and  C_22
REMARK                            x       y       z     vdW  Elec       q    Type
REMARK                         _______ _______ _______ _____ _____    ______ ____
ROOT
ATOM      1  C   UNL     1       6.044   3.509  14.295  0.00  0.00    +0.000 C 
ATOM      2  C   UNL     1       5.475   4.534  15.232  0.00  0.00    +0.000 A 
ATOM      3  C   UNL     1       5.528   5.895  14.941  0.00  0.00    +0.000 A 
ATOM      4  C   UNL     1       4.955   6.822  15.817  0.00  0.00    +0.000 A 
ATOM      5  C   UNL     1       4.313   6.418  17.000  0.00  0.00    +0.000 A 
ATOM      6  C   UNL     1       4.231   5.044  17.280  0.00  0.00    +0.000 A 
ATOM      7  C   UNL     1       4.847   4.123  16.412  0.00  0.00    +0.000 A 
ENDROOT
BRANCH   6   8
ATOM      8  N   UNL     1       3.604   4.458  18.393  0.00  0.00    +0.000 N 
ATOM      9  C   UNL     1       2.300   4.006  18.454  0.00  0.00    +0.000 C 
ATOM     10  O   UNL     1       1.502   4.029  17.523  0.00  0.00    +0.000 OA
ATOM     11  H   UNL     1       4.203   4.080  19.118  0.00  0.00    +0.000 HD
BRANCH   9  12
ATOM     12  C   UNL     1       1.985   3.457  19.762  0.00  0.00    +0.000 A 
ATOM     13  C   UNL     1       0.980   2.613  20.195  0.00  0.00    +0.000 A 
ATOM     14  C   UNL     1       1.152   2.456  21.592  0.00  0.00    +0.000 A 
ATOM     15  C   UNL     1       2.251   3.208  21.931  0.00  0.00    +0.000 A 
ATOM     16  O   UNL     1       2.774   3.805  20.831  0.00  0.00    +0.000 OA
ENDBRANCH   9  12
ENDBRANCH   6   8
BRANCH   5  17
ATOM     17  O   UNL     1       3.883   7.483  17.748  0.00  0.00    +0.000 OA
BRANCH  17  18
ATOM     18  C   UNL     1       2.705   8.176  17.336  0.00  0.00    +0.000 C 
BRANCH  18  19
ATOM     19  C   UNL     1       1.923   8.751  18.507  0.00  0.00    +0.000 A 
ATOM     20  C   UNL     1       1.953   8.217  19.738  0.00  0.00    +0.000 A 
ATOM     21  C   UNL     1       1.135   8.821  20.815  0.00  0.00    +0.000 A 
ATOM     22  O   UNL     1       1.166   8.351  21.949  0.00  0.00    +0.000 OA
ATOM     23  N   UNL     1       0.383   9.900  20.421  0.00  0.00    +0.000 N 
ATOM     24  C   UNL     1      -0.461  10.619  21.240  0.00  0.00    +0.000 A 
ATOM     25  C   UNL     1      -1.085  11.627  20.620  0.00  0.00    +0.000 A 
ATOM     26  S   UNL     1      -0.633  11.727  18.943  0.00  0.00    +0.000 S 
ATOM     27  C   UNL     1       0.441  10.347  19.125  0.00  0.00    +0.000 A 
ATOM     28  N   UNL     1       1.152   9.852  18.176  0.00  0.00    +0.000 NA
ENDBRANCH  18  19
ENDBRANCH  17  18
ENDBRANCH   5  17
TORSDOF 5
ENDMDL
MODEL 3
REMARK VINA RESULT:      -7.7      1.625      1.756
REMARK  Name = 
REMARK  6 active torsions:
REMARK  status: ('A' for Active; 'I' for Inactive)
REMARK    1  A    between atoms: C_1  and  C_2
REMARK    2  A    between atoms: C_5  and  O_6
REMARK    3  A    between atoms: O_6  and  C_7
REMARK    4  A    between atoms: C_7  and  C_8
REMARK    5  A    between atoms: C_18  and  N_19
REMARK    6  A    between atoms: C_20  and  C_22
REMARK                            x       y       z     vdW  Elec       q    Type
REMARK                         _______ _______ _______ _____ _____    ______ ____
ROOT
ATOM      1  C   UNL     1       1.501   2.532  20.488  0.00  0.00    +0.000 C 
ATOM      2  C   UNL     1       1.913   3.863  19.932  0.00  0.00    +0.000 A 
ATOM      3  C   UNL     1       1.535   5.056  20.544  0.00  0.00    +0.000 A 
ATOM      4  C   UNL     1       1.967   6.280  20.022  0.00  0.00    +0.000 A 
ATOM      5  C   UNL     1       2.786   6.346  18.883  0.00  0.00    +0.000 A 
ATOM      6  C   UNL     1       3.193   5.144  18.282  0.00  0.00    +0.000 A 
ATOM      7  C   UNL     1       2.719   3.920  18.791  0.00  0.00    +0.000 A 
ENDROOT
BRANCH   6   8
ATOM      8  N   UNL     1       4.031   5.016  17.161  0.00  0.00    +0.000 N 
ATOM      9  C   UNL     1       5.406   5.150  17.147  0.00  0.00    +0.000 C 
ATOM     10  O   UNL     1       6.102   5.374  18.132  0.00  0.00    +0.000 OA
ATOM     11  H   UNL     1       3.659   4.525  16.356  0.00  0.00    +0.000 HD
BRANCH   9  12
ATOM     12  C   UNL     1       5.950   4.954  15.814  0.00  0.00    +0.000 A 
ATOM     13  C   UNL     1       5.522   4.196  14.740  0.00  0.00    +0.000 A 
ATOM     14  C   UNL     1       6.484   4.363  13.714  0.00  0.00    +0.000 A 
ATOM     15  C   UNL     1       7.440   5.213  14.217  0.00  0.00    +0.000 A 
ATOM     16  O   UNL     1       7.121   5.590  15.480  0.00  0.00    +0.000 OA
ENDBRANCH   9  12
ENDBRANCH   6   8
BRANCH   5  17
ATOM     17  O   UNL     1       3.036   7.637  18.496  0.00  0.00    +0.000 OA
BRANCH  17  18
ATOM     18  C   UNL     1       2.049   8.323  17.727  0.00  0.00    +0.000 C 
BRANCH  18  19
ATOM     19  C   UNL     1       1.236   9.306  18.556  0.00  0.00    +0.000 A 
ATOM     20  C   UNL     1       1.554   9.633  19.819  0.00  0.00    +0.000 A 
ATOM     21  C   UNL     1       0.690  10.574  20.568  0.00  0.00    +0.000 A 
ATOM     22  O   UNL     1       0.979  10.892  21.718  0.00  0.00    +0.000 OA
ATOM     23  N   UNL     1      -0.404  11.020  19.868  0.00  0.00    +0.000 N 
ATOM     24  C   UNL     1      -1.353  11.892  20.356  0.00  0.00    +0.000 A 
ATOM     25  C   UNL     1      -2.326  12.176  19.482  0.00  0.00    +0.000 A 
ATOM     26  S   UNL     1      -2.091  11.346  17.970  0.00  0.00    +0.000 S 
ATOM     27  C   UNL     1      -0.616  10.606  18.578  0.00  0.00    +0.000 A 
ATOM     28  N   UNL     1       0.124   9.803  17.901  0.00  0.00    +0.000 NA
ENDBRANCH  18  19
ENDBRANCH  17  18
ENDBRANCH   5  17
TORSDOF 5
ENDMDL
MODEL 4
REMARK VINA RESULT:      -7.7      1.650      1.870
REMARK  Name = 
REMARK  6 active torsions:
REMARK  status: ('A' for Active; 'I' for Inactive)
REMARK    1  A    between atoms: C_1  and  C_2
REMARK    2  A    between atoms: C_5  and  O_6
REMARK    3  A    between atoms: O_6  and  C_7
REMARK    4  A    between atoms: C_7  and  C_8
REMARK    5  A    between atoms: C_18  and  N_19
REMARK    6  A    between atoms: C_20  and  C_22
REMARK                            x       y       z     vdW  Elec       q    Type
REMARK                         _______ _______ _______ _____ _____    ______ ____
ROOT
ATOM      1  C   UNL     1       0.595   1.704  19.224  0.00  0.00    +0.000 C 
ATOM      2  C   UNL     1       1.257   3.050  19.204  0.00  0.00    +0.000 A 
ATOM      3  C   UNL     1       0.938   4.033  20.138  0.00  0.00    +0.000 A 
ATOM      4  C   UNL     1       1.600   5.264  20.114  0.00  0.00    +0.000 A 
ATOM      5  C   UNL     1       2.597   5.546  19.166  0.00  0.00    +0.000 A 
ATOM      6  C   UNL     1       2.943   4.545  18.242  0.00  0.00    +0.000 A 
ATOM      7  C   UNL     1       2.241   3.326  18.248  0.00  0.00    +0.000 A 
ENDROOT
BRANCH   6   8
ATOM      8  N   UNL     1       3.931   4.638  17.247  0.00  0.00    +0.000 N 
ATOM      9  C   UNL     1       5.275   4.360  17.400  0.00  0.00    +0.000 C 
ATOM     10  O   UNL     1       5.799   3.962  18.435  0.00  0.00    +0.000 OA
ATOM     11  H   UNL     1       3.620   4.638  16.282  0.00  0.00    +0.000 HD
BRANCH   9  12
ATOM     12  C   UNL     1       6.008   4.562  16.162  0.00  0.00    +0.000 A 
ATOM     13  C   UNL     1       6.939   5.509  15.779  0.00  0.00    +0.000 A 
ATOM     14  C   UNL     1       7.277   5.228  14.432  0.00  0.00    +0.000 A 
ATOM     15  C   UNL     1       6.538   4.127  14.072  0.00  0.00    +0.000 A 
ATOM     16  O   UNL     1       5.779   3.704  15.113  0.00  0.00    +0.000 OA
ENDBRANCH   9  12
ENDBRANCH   6   8
BRANCH   5  17
ATOM     17  O   UNL     1       3.069   6.828  19.272  0.00  0.00    +0.000 OA
BRANCH  17  18
ATOM     18  C   UNL     1       2.588   7.810  18.354  0.00  0.00    +0.000 C 
BRANCH  18  19
ATOM     19  C   UNL     1       1.610   8.784  18.995  0.00  0.00    +0.000 A 
ATOM     20  C   UNL     1       0.969   9.738  18.301  0.00  0.00    +0.000 A 
ATOM     21  C   UNL     1       0.058  10.667  19.009  0.00  0.00    +0.000 A 
ATOM     22  O   UNL     1      -0.545  11.534  18.383  0.00  0.00    +0.000 OA
ATOM     23  N   UNL     1      -0.025  10.459  20.364  0.00  0.00    +0.000 N 
ATOM     24  C   UNL     1      -0.798  11.199  21.232  0.00  0.00    +0.000 A 
ATOM     25  C   UNL     1      -0.710  10.801  22.507  0.00  0.00    +0.000 A 
ATOM     26  S   UNL     1       0.369   9.447  22.682  0.00  0.00    +0.000 S 
ATOM     27  C   UNL     1       0.687   9.445  20.952  0.00  0.00    +0.000 A 
ATOM     28  N   UNL     1       1.471   8.617  20.362  0.00  0.00    +0.000 NA
ENDBRANCH  18  19
ENDBRANCH  17  18
ENDBRANCH   5  17
TORSDOF 5
ENDMDL
MODEL 5
REMARK VINA RESULT:      -7.7      2.947      5.046
REMARK  Name = 
REMARK  6 active torsions:
REMARK  status: ('A' for Active; 'I' for Inactive)
REMARK    1  A    between atoms: C_1  and  C_2
REMARK    2  A    between atoms: C_5  and  O_6
REMARK    3  A    between atoms: O_6  and  C_7
REMARK    4  A    between atoms: C_7  and  C_8
REMARK    5  A    between atoms: C_18  and  N_19
REMARK    6  A    between atoms: C_20  and  C_22
REMARK                            x       y       z     vdW  Elec       q    Type
REMARK                         _______ _______ _______ _____ _____    ______ ____
ROOT
ATOM      1  C   UNL     1       6.835   4.242  13.107  0.00  0.00    +0.000 C 
ATOM      2  C   UNL     1       6.395   4.591  14.499  0.00  0.00    +0.000 A 
ATOM      3  C   UNL     1       5.551   3.757  15.227  0.00  0.00    +0.000 A 
ATOM      4  C   UNL     1       5.190   4.092  16.535  0.00  0.00    +0.000 A 
ATOM      5  C   UNL     1       5.663   5.263  17.152  0.00  0.00    +0.000 A 
ATOM      6  C   UNL     1       6.540   6.091  16.431  0.00  0.00    +0.000 A 
ATOM      7  C   UNL     1       6.862   5.765  15.100  0.00  0.00    +0.000 A 
ENDROOT
BRANCH   6   8
ATOM      8  N   UNL     1       7.132   7.278  16.894  0.00  0.00    +0.000 N 
ATOM      9  C   UNL     1       7.850   7.432  18.064  0.00  0.00    +0.000 C 
ATOM     10  O   UNL     1       8.097   6.534  18.862  0.00  0.00    +0.000 OA
ATOM     11  H   UNL     1       7.294   8.013  16.214  0.00  0.00    +0.000 HD
BRANCH   9  12
ATOM     12  C   UNL     1       8.319   8.797  18.229  0.00  0.00    +0.000 A 
ATOM     13  C   UNL     1       8.063   9.957  17.523  0.00  0.00    +0.000 A 
ATOM     14  C   UNL     1       8.840  10.979  18.122  0.00  0.00    +0.000 A 
ATOM     15  C   UNL     1       9.521  10.388  19.158  0.00  0.00    +0.000 A 
ATOM     16  O   UNL     1       9.203   9.072  19.245  0.00  0.00    +0.000 OA
ENDBRANCH   9  12
ENDBRANCH   6   8
BRANCH   5  17
ATOM     17  O   UNL     1       5.137   5.440  18.405  0.00  0.00    +0.000 OA
BRANCH  17  18
ATOM     18  C   UNL     1       3.734   5.248  18.589  0.00  0.00    +0.000 C 
BRANCH  18  19
ATOM     19  C   UNL     1       2.979   6.558  18.755  0.00  0.00    +0.000 A 
ATOM     20  C   UNL     1       2.999   7.534  17.833  0.00  0.00    +0.000 A 
ATOM     21  C   UNL     1       2.262   8.793  18.087  0.00  0.00    +0.000 A 
ATOM     22  O   UNL     1       2.260   9.686  17.245  0.00  0.00    +0.000 OA
ATOM     23  N   UNL     1       1.622   8.841  19.301  0.00  0.00    +0.000 N 
ATOM     24  C   UNL     1       0.882   9.908  19.764  0.00  0.00    +0.000 A 
ATOM     25  C   UNL     1       0.357   9.714  20.980  0.00  0.00    +0.000 A 
ATOM     26  S   UNL     1       0.772   8.148  21.614  0.00  0.00    +0.000 S 
ATOM     27  C   UNL     1       1.682   7.771  20.157  0.00  0.00    +0.000 A 
ATOM     28  N   UNL     1       2.300   6.663  19.956  0.00  0.00    +0.000 NA
ENDBRANCH  18  19
ENDBRANCH  17  18
ENDBRANCH   5  17
TORSDOF 5
ENDMDL
MODEL 6
REMARK VINA RESULT:      -7.6      2.075      4.800
REMARK  Name = 
REMARK  6 active torsions:
REMARK  status: ('A' for Active; 'I' for Inactive)
REMARK    1  A    between atoms: C_1  and  C_2
REMARK    2  A    between atoms: C_5  and  O_6
REMARK    3  A    between atoms: O_6  and  C_7
REMARK    4  A    between atoms: C_7  and  C_8
REMARK    5  A    between atoms: C_18  and  N_19
REMARK    6  A    between atoms: C_20  and  C_22
REMARK                            x       y       z     vdW  Elec       q    Type
REMARK                         _______ _______ _______ _____ _____    ______ ____
ROOT
ATOM      1  C   UNL     1       6.228   3.773  14.428  0.00  0.00    +0.000 C 
ATOM      2  C   UNL     1       5.572   4.766  15.342  0.00  0.00    +0.000 A 
ATOM      3  C   UNL     1       5.655   6.137  15.109  0.00  0.00    +0.000 A 
ATOM      4  C   UNL     1       5.001   7.034  15.959  0.00  0.00    +0.000 A 
ATOM      5  C   UNL     1       4.246   6.590  17.057  0.00  0.00    +0.000 A 
ATOM      6  C   UNL     1       4.135   5.207  17.276  0.00  0.00    +0.000 A 
ATOM      7  C   UNL     1       4.831   4.315  16.440  0.00  0.00    +0.000 A 
ENDROOT
BRANCH   6   8
ATOM      8  N   UNL     1       3.402   4.584  18.301  0.00  0.00    +0.000 N 
ATOM      9  C   UNL     1       3.920   3.833  19.338  0.00  0.00    +0.000 C 
ATOM     10  O   UNL     1       5.114   3.626  19.530  0.00  0.00    +0.000 OA
ATOM     11  H   UNL     1       2.459   4.919  18.468  0.00  0.00    +0.000 HD
BRANCH   9  12
ATOM     12  C   UNL     1       2.874   3.339  20.216  0.00  0.00    +0.000 A 
ATOM     13  C   UNL     1       2.917   2.632  21.403  0.00  0.00    +0.000 A 
ATOM     14  C   UNL     1       1.573   2.389  21.782  0.00  0.00    +0.000 A 
ATOM     15  C   UNL     1       0.789   2.962  20.810  0.00  0.00    +0.000 A 
ATOM     16  O   UNL     1       1.562   3.554  19.866  0.00  0.00    +0.000 OA
ENDBRANCH   9  12
ENDBRANCH   6   8
BRANCH   5  17
ATOM     17  O   UNL     1       3.747   7.629  17.799  0.00  0.00    +0.000 OA
BRANCH  17  18
ATOM     18  C   UNL     1       2.409   8.061  17.555  0.00  0.00    +0.000 C 
BRANCH  18  19
ATOM     19  C   UNL     1       1.823   8.843  18.721  0.00  0.00    +0.000 A 
ATOM     20  C   UNL     1       1.669   8.320  19.948  0.00  0.00    +0.000 A 
ATOM     21  C   UNL     1       1.059   9.140  21.019  0.00  0.00    +0.000 A 
ATOM     22  O   UNL     1       0.928   8.678  22.149  0.00  0.00    +0.000 OA
ATOM     23  N   UNL     1       0.681  10.400  20.625  0.00  0.00    +0.000 N 
ATOM     24  C   UNL     1       0.086  11.339  21.439  0.00  0.00    +0.000 A 
ATOM     25  C   UNL     1      -0.191  12.493  20.820  0.00  0.00    +0.000 A 
ATOM     26  S   UNL     1       0.296  12.457  19.150  0.00  0.00    +0.000 S 
ATOM     27  C   UNL     1       0.893  10.813  19.334  0.00  0.00    +0.000 A 
ATOM     28  N   UNL     1       1.432  10.129  18.390  0.00  0.00    +0.000 NA
ENDBRANCH  18  19
ENDBRANCH  17  18
ENDBRANCH   5  17
TORSDOF 5
ENDMDL
MODEL 7
REMARK VINA RESULT:      -7.6      1.791      4.557
REMARK  Name = 
REMARK  6 active torsions:
REMARK  status: ('A' for Active; 'I' for Inactive)
REMARK    1  A    between atoms: C_1  and  C_2
REMARK    2  A    between atoms: C_5  and  O_6
REMARK    3  A    between atoms: O_6  and  C_7
REMARK    4  A    between atoms: C_7  and  C_8
REMARK    5  A    between atoms: C_18  and  N_19
REMARK    6  A    between atoms: C_20  and  C_22
REMARK                            x       y       z     vdW  Elec       q    Type
REMARK                         _______ _______ _______ _____ _____    ______ ____
ROOT
ATOM      1  C   UNL     1       6.548   4.008  14.710  0.00  0.00    +0.000 C 
ATOM      2  C   UNL     1       5.780   4.966  15.571  0.00  0.00    +0.000 A 
ATOM      3  C   UNL     1       5.689   6.319  15.254  0.00  0.00    +0.000 A 
ATOM      4  C   UNL     1       4.934   7.179  16.058  0.00  0.00    +0.000 A 
ATOM      5  C   UNL     1       4.248   6.714  17.192  0.00  0.00    +0.000 A 
ATOM      6  C   UNL     1       4.312   5.344  17.497  0.00  0.00    +0.000 A 
ATOM      7  C   UNL     1       5.109   4.496  16.706  0.00  0.00    +0.000 A 
ENDROOT
BRANCH   6   8
ATOM      8  N   UNL     1       3.670   4.699  18.568  0.00  0.00    +0.000 N 
ATOM      9  C   UNL     1       2.604   3.825  18.477  0.00  0.00    +0.000 C 
ATOM     10  O   UNL     1       2.078   3.463  17.430  0.00  0.00    +0.000 OA
ATOM     11  H   UNL     1       4.176   4.639  19.445  0.00  0.00    +0.000 HD
BRANCH   9  12
ATOM     12  C   UNL     1       2.192   3.346  19.784  0.00  0.00    +0.000 A 
ATOM     13  C   UNL     1       1.031   3.524  20.514  0.00  0.00    +0.000 A 
ATOM     14  C   UNL     1       1.217   2.851  21.747  0.00  0.00    +0.000 A 
ATOM     15  C   UNL     1       2.474   2.300  21.699  0.00  0.00    +0.000 A 
ATOM     16  O   UNL     1       3.069   2.577  20.512  0.00  0.00    +0.000 OA
ENDBRANCH   9  12
ENDBRANCH   6   8
BRANCH   5  17
ATOM     17  O   UNL     1       3.628   7.727  17.877  0.00  0.00    +0.000 OA
BRANCH  17  18
ATOM     18  C   UNL     1       2.203   7.806  17.836  0.00  0.00    +0.000 C 
BRANCH  18  19
ATOM     19  C   UNL     1       1.660   9.004  18.599  0.00  0.00    +0.000 A 
ATOM     20  C   UNL     1       1.796  10.268  18.167  0.00  0.00    +0.000 A 
ATOM     21  C   UNL     1       1.265  11.381  18.988  0.00  0.00    +0.000 A 
ATOM     22  O   UNL     1       1.371  12.539  18.596  0.00  0.00    +0.000 OA
ATOM     23  N   UNL     1       0.680  10.988  20.167  0.00  0.00    +0.000 N 
ATOM     24  C   UNL     1       0.125  11.840  21.097  0.00  0.00    +0.000 A 
ATOM     25  C   UNL     1      -0.383  11.215  22.166  0.00  0.00    +0.000 A 
ATOM     26  S   UNL     1      -0.188   9.490  22.053  0.00  0.00    +0.000 S 
ATOM     27  C   UNL     1       0.607   9.658  20.493  0.00  0.00    +0.000 A 
ATOM     28  N   UNL     1       1.044   8.673  19.794  0.00  0.00    +0.000 NA
ENDBRANCH  18  19
ENDBRANCH  17  18
ENDBRANCH   5  17
TORSDOF 5
ENDMDL
MODEL 8
REMARK VINA RESULT:      -7.6      2.618      3.062
REMARK  Name = 
REMARK  6 active torsions:
REMARK  status: ('A' for Active; 'I' for Inactive)
REMARK    1  A    between atoms: C_1  and  C_2
REMARK    2  A    between atoms: C_5  and  O_6
REMARK    3  A    between atoms: O_6  and  C_7
REMARK    4  A    between atoms: C_7  and  C_8
REMARK    5  A    between atoms: C_18  and  N_19
REMARK    6  A    between atoms: C_20  and  C_22
REMARK                            x       y       z     vdW  Elec       q    Type
REMARK                         _______ _______ _______ _____ _____    ______ ____
ROOT
ATOM      1  C   UNL     1       2.084   1.331  18.816  0.00  0.00    +0.000 C 
ATOM      2  C   UNL     1       2.096   2.753  19.292  0.00  0.00    +0.000 A 
ATOM      3  C   UNL     1       1.038   3.286  20.024  0.00  0.00    +0.000 A 
ATOM      4  C   UNL     1       1.097   4.604  20.485  0.00  0.00    +0.000 A 
ATOM      5  C   UNL     1       2.210   5.423  20.233  0.00  0.00    +0.000 A 
ATOM      6  C   UNL     1       3.292   4.879  19.522  0.00  0.00    +0.000 A 
ATOM      7  C   UNL     1       3.204   3.565  19.026  0.00  0.00    +0.000 A 
ENDROOT
BRANCH   6   8
ATOM      8  N   UNL     1       4.494   5.536  19.204  0.00  0.00    +0.000 N 
ATOM      9  C   UNL     1       4.980   5.785  17.935  0.00  0.00    +0.000 C 
ATOM     10  O   UNL     1       4.408   5.488  16.891  0.00  0.00    +0.000 OA
ATOM     11  H   UNL     1       4.911   6.115  19.924  0.00  0.00    +0.000 HD
BRANCH   9  12
ATOM     12  C   UNL     1       6.251   6.486  17.977  0.00  0.00    +0.000 A 
ATOM     13  C   UNL     1       7.429   6.230  18.653  0.00  0.00    +0.000 A 
ATOM     14  C   UNL     1       8.318   7.288  18.340  0.00  0.00    +0.000 A 
ATOM     15  C   UNL     1       7.635   8.126  17.491  0.00  0.00    +0.000 A 
ATOM     16  O   UNL     1       6.390   7.644  17.250  0.00  0.00    +0.000 OA
ENDBRANCH   9  12
ENDBRANCH   6   8
BRANCH   5  17
ATOM     17  O   UNL     1       2.038   6.697  20.710  0.00  0.00    +0.000 OA
BRANCH  17  18
ATOM     18  C   UNL     1       1.906   7.764  19.772  0.00  0.00    +0.000 C 
BRANCH  18  19
ATOM     19  C   UNL     1       1.075   8.920  20.310  0.00  0.00    +0.000 A 
ATOM     20  C   UNL     1       0.876   9.126  21.621  0.00  0.00    +0.000 A 
ATOM     21  C   UNL     1       0.026  10.257  22.061  0.00  0.00    +0.000 A 
ATOM     22  O   UNL     1      -0.151  10.465  23.257  0.00  0.00    +0.000 OA
ATOM     23  N   UNL     1      -0.508  10.998  21.035  0.00  0.00    +0.000 N 
ATOM     24  C   UNL     1      -1.335  12.089  21.194  0.00  0.00    +0.000 A 
ATOM     25  C   UNL     1      -1.726  12.643  20.040  0.00  0.00    +0.000 A 
ATOM     26  S   UNL     1      -1.060  11.804  18.669  0.00  0.00    +0.000 S 
ATOM     27  C   UNL     1      -0.226  10.678  19.731  0.00  0.00    +0.000 A 
ATOM     28  N   UNL     1       0.518   9.714  19.323  0.00  0.00    +0.000 NA
ENDBRANCH  18  19
ENDBRANCH  17  18
ENDBRANCH   5  17
TORSDOF 5
ENDMDL
MODEL 9
REMARK VINA RESULT:      -7.5      1.548      1.707
REMARK  Name = 
REMARK  6 active torsions:
REMARK  status: ('A' for Active; 'I' for Inactive)
REMARK    1  A    between atoms: C_1  and  C_2
REMARK    2  A    between atoms: C_5  and  O_6
REMARK    3  A    between atoms: O_6  and  C_7
REMARK    4  A    between atoms: C_7  and  C_8
REMARK    5  A    between atoms: C_18  and  N_19
REMARK    6  A    between atoms: C_20  and  C_22
REMARK                            x       y       z     vdW  Elec       q    Type
REMARK                         _______ _______ _______ _____ _____    ______ ____
ROOT
ATOM      1  C   UNL     1       2.442   3.079  21.548  0.00  0.00    +0.000 C 
ATOM      2  C   UNL     1       2.408   4.220  20.575  0.00  0.00    +0.000 A 
ATOM      3  C   UNL     1       1.710   5.393  20.852  0.00  0.00    +0.000 A 
ATOM      4  C   UNL     1       1.728   6.453  19.940  0.00  0.00    +0.000 A 
ATOM      5  C   UNL     1       2.445   6.374  18.735  0.00  0.00    +0.000 A 
ATOM      6  C   UNL     1       3.175   5.204  18.466  0.00  0.00    +0.000 A 
ATOM      7  C   UNL     1       3.115   4.128  19.371  0.00  0.00    +0.000 A 
ENDROOT
BRANCH   6   8
ATOM      8  N   UNL     1       3.968   4.961  17.332  0.00  0.00    +0.000 N 
ATOM      9  C   UNL     1       5.191   5.538  17.049  0.00  0.00    +0.000 C 
ATOM     10  O   UNL     1       5.778   6.335  17.773  0.00  0.00    +0.000 OA
ATOM     11  H   UNL     1       3.787   4.110  16.811  0.00  0.00    +0.000 HD
BRANCH   9  12
ATOM     12  C   UNL     1       5.732   5.056  15.790  0.00  0.00    +0.000 A 
ATOM     13  C   UNL     1       5.345   4.033  14.946  0.00  0.00    +0.000 A 
ATOM     14  C   UNL     1       6.282   4.005  13.883  0.00  0.00    +0.000 A 
ATOM     15  C   UNL     1       7.183   5.011  14.137  0.00  0.00    +0.000 A 
ATOM     16  O   UNL     1       6.853   5.665  15.278  0.00  0.00    +0.000 OA
ENDBRANCH   9  12
ENDBRANCH   6   8
BRANCH   5  17
ATOM     17  O   UNL     1       2.276   7.489  17.955  0.00  0.00    +0.000 OA
BRANCH  17  18
ATOM     18  C   UNL     1       2.430   8.773  18.559  0.00  0.00    +0.000 C 
BRANCH  18  19
ATOM     19  C   UNL     1       1.114   9.527  18.679  0.00  0.00    +0.000 A 
ATOM     20  C   UNL     1       0.172   9.510  17.722  0.00  0.00    +0.000 A 
ATOM     21  C   UNL     1      -1.068  10.298  17.904  0.00  0.00    +0.000 A 
ATOM     22  O   UNL     1      -1.942  10.277  17.043  0.00  0.00    +0.000 OA
ATOM     23  N   UNL     1      -1.121  11.011  19.077  0.00  0.00    +0.000 N 
ATOM     24  C   UNL     1      -2.166  11.822  19.464  0.00  0.00    +0.000 A 
ATOM     25  C   UNL     1      -1.981  12.412  20.651  0.00  0.00    +0.000 A 
ATOM     26  S   UNL     1      -0.454  11.965  21.357  0.00  0.00    +0.000 S 
ATOM     27  C   UNL     1      -0.086  10.943  19.974  0.00  0.00    +0.000 A 
ATOM     28  N   UNL     1       0.993  10.257  19.848  0.00  0.00    +0.000 NA
ENDBRANCH  18  19
ENDBRANCH  17  18
ENDBRANCH   5  17
TORSDOF 5
ENDMDL
