MODEL 1
REMARK VINA RESULT:      -7.7      0.000      0.000
REMARK  Name = 
REMARK  6 active torsions:
REMARK  status: ('A' for Active; 'I' for Inactive)
REMARK    1  A    between atoms: C_2  and  C_3
REMARK    2  A    between atoms: N_5  and  C_6
REMARK    3  A    between atoms: C_8  and  C_9
REMARK    4  A    between atoms: C_9  and  O_10
REMARK    5  A    between atoms: C_11  and  O_12
REMARK    6  A    between atoms: C_13  and  C_14
REMARK                            x       y       z     vdW  Elec       q    Type
REMARK                         _______ _______ _______ _____ _____    ______ ____
ROOT
ATOM      1  C   UNL     1       3.001   6.949  18.284  0.00  0.00    +0.000 A 
ATOM      2  C   UNL     1       3.883   6.515  17.320  0.00  0.00    +0.000 A 
ATOM      3  N   UNL     1       4.331   5.266  17.680  0.00  0.00    +0.000 N 
ATOM      4  C   UNL     1       3.711   4.883  18.847  0.00  0.00    +0.000 A 
ATOM      5  N   UNL     1       3.872   3.703  19.471  0.00  0.00    +0.000 NA
ATOM      6  C   UNL     1       3.108   3.621  20.576  0.00  0.00    +0.000 A 
ATOM      7  N   UNL     1       2.282   4.551  21.094  0.00  0.00    +0.000 NA
ATOM      8  C   UNL     1       2.169   5.732  20.454  0.00  0.00    +0.000 A 
ATOM      9  N   UNL     1       1.343   6.684  21.029  0.00  0.00    +0.000 N 
ATOM     10  C   UNL     1       2.882   5.925  19.261  0.00  0.00    +0.000 A 
ATOM     11  H   UNL     1       0.707   6.288  21.709  0.00  0.00    +0.000 HD
ATOM     12  H   UNL     1       0.980   7.396  20.410  0.00  0.00    +0.000 HD
ENDROOT
BRANCH   3  13
ATOM     13  C   UNL     1       5.230   4.442  16.892  0.00  0.00    +0.000 C 
ATOM     14  O   UNL     1       4.611   4.239  15.588  0.00  0.00    +0.000 OA
ATOM     15  C   UNL     1       5.557   4.677  14.590  0.00  0.00    +0.000 C 
ATOM     16  C   UNL     1       6.922   4.507  15.234  0.00  0.00    +0.000 C 
ATOM     17  C   UNL     1       6.632   5.025  16.635  0.00  0.00    +0.000 C 
ATOM     18  C   UNL     1       7.696   4.661  17.654  0.00  0.00    +0.000 C 
ATOM     19  F   UNL     1       6.592   6.391  16.550  0.00  0.00    +0.000 F 
BRANCH  16  20
ATOM     20  O   UNL     1       7.947   5.229  14.567  0.00  0.00    +0.000 OA
ATOM     21  H   UNL     1       7.875   6.165  14.839  0.00  0.00    +0.000 HD
ENDBRANCH  16  20
BRANCH  15  22
ATOM     22  C   UNL     1       5.369   3.857  13.320  0.00  0.00    +0.000 C 
BRANCH  22  23
ATOM     23  O   UNL     1       6.596   3.208  12.988  0.00  0.00    +0.000 OA
ATOM     24  H   UNL     1       7.305   3.740  13.400  0.00  0.00    +0.000 HD
ENDBRANCH  22  23
ENDBRANCH  15  22
ENDBRANCH   3  13
BRANCH   1  26
ATOM     25  C   UNL     1       1.766   9.262  18.192  0.00  0.00    +0.000 C 
ATOM     26  C   UNL     1       2.334   8.206  18.236  0.00  0.00    +0.000 C 
ENDBRANCH   1  26
TORSDOF 5
ENDMDL
MODEL 2
REMARK VINA RESULT:      -7.2      1.898      2.353
REMARK  Name = 
REMARK  6 active torsions:
REMARK  status: ('A' for Active; 'I' for Inactive)
REMARK    1  A    between atoms: C_2  and  C_3
REMARK    2  A    between atoms: N_5  and  C_6
REMARK    3  A    between atoms: C_8  and  C_9
REMARK    4  A    between atoms: C_9  and  O_10
REMARK    5  A    between atoms: C_11  and  O_12
REMARK    6  A    between atoms: C_13  and  C_14
REMARK                            x       y       z     vdW  Elec       q    Type
REMARK                         _______ _______ _______ _____ _____    ______ ____
ROOT
ATOM      1  C   UNL     1       2.800   5.339  19.762  0.00  0.00    +0.000 A 
ATOM      2  C   UNL     1       4.044   5.663  19.269  0.00  0.00    +0.000 A 
ATOM      3  N   UNL     1       4.584   4.538  18.692  0.00  0.00    +0.000 N 
ATOM      4  C   UNL     1       3.677   3.507  18.780  0.00  0.00    +0.000 A 
ATOM      5  N   UNL     1       3.846   2.268  18.283  0.00  0.00    +0.000 NA
ATOM      6  C   UNL     1       2.767   1.495  18.508  0.00  0.00    +0.000 A 
ATOM      7  N   UNL     1       1.632   1.812  19.162  0.00  0.00    +0.000 NA
ATOM      8  C   UNL     1       1.512   3.055  19.670  0.00  0.00    +0.000 A 
ATOM      9  N   UNL     1       0.352   3.340  20.369  0.00  0.00    +0.000 N 
ATOM     10  C   UNL     1       2.553   3.972  19.461  0.00  0.00    +0.000 A 
ATOM     11  H   UNL     1      -0.389   2.677  20.183  0.00  0.00    +0.000 HD
ATOM     12  H   UNL     1       0.098   4.316  20.437  0.00  0.00    +0.000 HD
ENDROOT
BRANCH   3  13
ATOM     13  C   UNL     1       5.861   4.483  18.004  0.00  0.00    +0.000 C 
ATOM     14  O   UNL     1       5.589   4.269  16.587  0.00  0.00    +0.000 OA
ATOM     15  C   UNL     1       6.242   5.330  15.860  0.00  0.00    +0.000 C 
ATOM     16  C   UNL     1       7.406   5.757  16.737  0.00  0.00    +0.000 C 
ATOM     17  C   UNL     1       6.740   5.743  18.105  0.00  0.00    +0.000 C 
ATOM     18  C   UNL     1       7.719   5.775  19.262  0.00  0.00    +0.000 C 
ATOM     19  F   UNL     1       5.973   6.875  18.182  0.00  0.00    +0.000 F 
BRANCH  16  20
ATOM     20  O   UNL     1       7.937   7.025  16.381  0.00  0.00    +0.000 OA
ATOM     21  H   UNL     1       7.304   7.449  15.769  0.00  0.00    +0.000 HD
ENDBRANCH  16  20
BRANCH  15  22
ATOM     22  C   UNL     1       6.660   4.819  14.487  0.00  0.00    +0.000 C 
BRANCH  22  23
ATOM     23  O   UNL     1       7.863   5.474  14.083  0.00  0.00    +0.000 OA
ATOM     24  H   UNL     1       7.667   5.892  13.222  0.00  0.00    +0.000 HD
ENDBRANCH  22  23
ENDBRANCH  15  22
ENDBRANCH   3  13
BRANCH   1  26
ATOM     25  C   UNL     1       1.232   7.046  20.989  0.00  0.00    +0.000 C 
ATOM     26  C   UNL     1       1.946   6.265  20.425  0.00  0.00    +0.000 C 
ENDBRANCH   1  26
TORSDOF 5
ENDMDL
MODEL 3
REMARK VINA RESULT:      -7.2      1.286      1.431
REMARK  Name = 
REMARK  6 active torsions:
REMARK  status: ('A' for Active; 'I' for Inactive)
REMARK    1  A    between atoms: C_2  and  C_3
REMARK    2  A    between atoms: N_5  and  C_6
REMARK    3  A    between atoms: C_8  and  C_9
REMARK    4  A    between atoms: C_9  and  O_10
REMARK    5  A    between atoms: C_11  and  O_12
REMARK    6  A    between atoms: C_13  and  C_14
REMARK                            x       y       z     vdW  Elec       q    Type
REMARK                         _______ _______ _______ _____ _____    ______ ____
ROOT
ATOM      1  C   UNL     1       2.975   5.761  18.710  0.00  0.00    +0.000 A 
ATOM      2  C   UNL     1       4.089   5.708  17.903  0.00  0.00    +0.000 A 
ATOM      3  N   UNL     1       4.377   4.387  17.655  0.00  0.00    +0.000 N 
ATOM      4  C   UNL     1       3.431   3.596  18.267  0.00  0.00    +0.000 A 
ATOM      5  N   UNL     1       3.370   2.254  18.203  0.00  0.00    +0.000 NA
ATOM      6  C   UNL     1       2.312   1.776  18.885  0.00  0.00    +0.000 A 
ATOM      7  N   UNL     1       1.397   2.461  19.597  0.00  0.00    +0.000 NA
ATOM      8  C   UNL     1       1.509   3.802  19.660  0.00  0.00    +0.000 A 
ATOM      9  N   UNL     1       0.576   4.477  20.431  0.00  0.00    +0.000 N 
ATOM     10  C   UNL     1       2.546   4.427  18.951  0.00  0.00    +0.000 A 
ATOM     11  H   UNL     1      -0.242   3.918  20.632  0.00  0.00    +0.000 HD
ATOM     12  H   UNL     1       0.431   5.452  20.207  0.00  0.00    +0.000 HD
ENDROOT
BRANCH   3  13
ATOM     13  C   UNL     1       5.445   3.912  16.794  0.00  0.00    +0.000 C 
ATOM     14  O   UNL     1       4.886   3.732  15.459  0.00  0.00    +0.000 OA
ATOM     15  C   UNL     1       5.691   4.510  14.548  0.00  0.00    +0.000 C 
ATOM     16  C   UNL     1       7.060   4.596  15.199  0.00  0.00    +0.000 C 
ATOM     17  C   UNL     1       6.661   4.845  16.647  0.00  0.00    +0.000 C 
ATOM     18  C   UNL     1       7.787   4.623  17.638  0.00  0.00    +0.000 C 
ATOM     19  F   UNL     1       6.289   6.160  16.731  0.00  0.00    +0.000 F 
BRANCH  16  20
ATOM     20  O   UNL     1       7.874   5.623  14.654  0.00  0.00    +0.000 OA
ATOM     21  H   UNL     1       7.315   6.416  14.542  0.00  0.00    +0.000 HD
ENDBRANCH  16  20
BRANCH  15  22
ATOM     22  C   UNL     1       5.700   3.837  13.181  0.00  0.00    +0.000 C 
BRANCH  22  23
ATOM     23  O   UNL     1       6.935   4.119  12.521  0.00  0.00    +0.000 OA
ATOM     24  H   UNL     1       7.625   4.084  13.212  0.00  0.00    +0.000 HD
ENDBRANCH  22  23
ENDBRANCH  15  22
ENDBRANCH   3  13
BRANCH   1  26
ATOM     25  C   UNL     1       1.892   7.999  19.545  0.00  0.00    +0.000 C 
ATOM     26  C   UNL     1       2.385   6.973  19.167  0.00  0.00    +0.000 C 
ENDBRANCH   1  26
TORSDOF 5
ENDMDL
MODEL 4
REMARK VINA RESULT:      -6.4      3.451      6.275
REMARK  Name = 
REMARK  6 active torsions:
REMARK  status: ('A' for Active; 'I' for Inactive)
REMARK    1  A    between atoms: C_2  and  C_3
REMARK    2  A    between atoms: N_5  and  C_6
REMARK    3  A    between atoms: C_8  and  C_9
REMARK    4  A    between atoms: C_9  and  O_10
REMARK    5  A    between atoms: C_11  and  O_12
REMARK    6  A    between atoms: C_13  and  C_14
REMARK                            x       y       z     vdW  Elec       q    Type
REMARK                         _______ _______ _______ _____ _____    ______ ____
ROOT
ATOM      1  C   UNL     1       6.397   5.619  17.719  0.00  0.00    +0.000 A 
ATOM      2  C   UNL     1       5.412   5.106  18.532  0.00  0.00    +0.000 A 
ATOM      3  N   UNL     1       4.633   4.259  17.781  0.00  0.00    +0.000 N 
ATOM      4  C   UNL     1       5.137   4.199  16.501  0.00  0.00    +0.000 A 
ATOM      5  N   UNL     1       4.656   3.436  15.503  0.00  0.00    +0.000 NA
ATOM      6  C   UNL     1       5.384   3.578  14.379  0.00  0.00    +0.000 A 
ATOM      7  N   UNL     1       6.449   4.375  14.167  0.00  0.00    +0.000 NA
ATOM      8  C   UNL     1       6.883   5.146  15.184  0.00  0.00    +0.000 A 
ATOM      9  N   UNL     1       7.956   5.983  14.927  0.00  0.00    +0.000 N 
ATOM     10  C   UNL     1       6.235   5.054  16.426  0.00  0.00    +0.000 A 
ATOM     11  H   UNL     1       8.464   5.721  14.093  0.00  0.00    +0.000 HD
ATOM     12  H   UNL     1       8.496   6.279  15.728  0.00  0.00    +0.000 HD
ENDROOT
BRANCH   3  13
ATOM     13  C   UNL     1       3.523   3.473  18.289  0.00  0.00    +0.000 C 
ATOM     14  O   UNL     1       3.901   2.982  19.609  0.00  0.00    +0.000 OA
ATOM     15  C   UNL     1       2.875   3.404  20.533  0.00  0.00    +0.000 C 
ATOM     16  C   UNL     1       1.616   3.545  19.695  0.00  0.00    +0.000 C 
ATOM     17  C   UNL     1       2.185   4.218  18.454  0.00  0.00    +0.000 C 
ATOM     18  C   UNL     1       1.255   4.179  17.257  0.00  0.00    +0.000 C 
ATOM     19  F   UNL     1       2.389   5.533  18.777  0.00  0.00    +0.000 F 
BRANCH  16  20
ATOM     20  O   UNL     1       0.602   4.305  20.334  0.00  0.00    +0.000 OA
ATOM     21  H   UNL     1       0.806   5.250  20.188  0.00  0.00    +0.000 HD
ENDBRANCH  16  20
BRANCH  15  22
ATOM     22  C   UNL     1       2.756   2.383  21.657  0.00  0.00    +0.000 C 
BRANCH  22  23
ATOM     23  O   UNL     1       1.506   2.555  22.325  0.00  0.00    +0.000 OA
ATOM     24  H   UNL     1       1.165   3.426  22.041  0.00  0.00    +0.000 HD
ENDBRANCH  22  23
ENDBRANCH  15  22
ENDBRANCH   3  13
BRANCH   1  26
ATOM     25  C   UNL     1       8.232   7.301  18.548  0.00  0.00    +0.000 C 
ATOM     26  C   UNL     1       7.394   6.533  18.165  0.00  0.00    +0.000 C 
ENDBRANCH   1  26
TORSDOF 5
ENDMDL
MODEL 5
REMARK VINA RESULT:      -6.3      1.393      1.866
REMARK  Name = 
REMARK  6 active torsions:
REMARK  status: ('A' for Active; 'I' for Inactive)
REMARK    1  A    between atoms: C_2  and  C_3
REMARK    2  A    between atoms: N_5  and  C_6
REMARK    3  A    between atoms: C_8  and  C_9
REMARK    4  A    between atoms: C_9  and  O_10
REMARK    5  A    between atoms: C_11  and  O_12
REMARK    6  A    between atoms: C_13  and  C_14
REMARK                            x       y       z     vdW  Elec       q    Type
REMARK                         _______ _______ _______ _____ _____    ______ ____
ROOT
ATOM      1  C   UNL     1       2.676   8.204  18.247  0.00  0.00    +0.000 A 
ATOM      2  C   UNL     1       3.515   7.482  17.429  0.00  0.00    +0.000 A 
ATOM      3  N   UNL     1       3.658   6.224  17.963  0.00  0.00    +0.000 N 
ATOM      4  C   UNL     1       2.884   6.125  19.098  0.00  0.00    +0.000 A 
ATOM      5  N   UNL     1       2.742   5.024  19.858  0.00  0.00    +0.000 NA
ATOM      6  C   UNL     1       1.897   5.239  20.883  0.00  0.00    +0.000 A 
ATOM      7  N   UNL     1       1.252   6.375  21.213  0.00  0.00    +0.000 NA
ATOM      8  C   UNL     1       1.443   7.465  20.442  0.00  0.00    +0.000 A 
ATOM      9  N   UNL     1       0.798   8.628  20.826  0.00  0.00    +0.000 N 
ATOM     10  C   UNL     1       2.268   7.357  19.312  0.00  0.00    +0.000 A 
ATOM     11  H   UNL     1       0.042   8.459  21.477  0.00  0.00    +0.000 HD
ATOM     12  H   UNL     1       0.643   9.315  20.101  0.00  0.00    +0.000 HD
ENDROOT
BRANCH   3  13
ATOM     13  C   UNL     1       4.417   5.142  17.363  0.00  0.00    +0.000 C 
ATOM     14  O   UNL     1       4.768   5.552  16.008  0.00  0.00    +0.000 OA
ATOM     15  C   UNL     1       6.203   5.447  15.886  0.00  0.00    +0.000 C 
ATOM     16  C   UNL     1       6.611   4.381  16.888  0.00  0.00    +0.000 C 
ATOM     17  C   UNL     1       5.731   4.763  18.070  0.00  0.00    +0.000 C 
ATOM     18  C   UNL     1       5.624   3.681  19.127  0.00  0.00    +0.000 C 
ATOM     19  F   UNL     1       6.311   5.857  18.656  0.00  0.00    +0.000 F 
BRANCH  16  20
ATOM     20  O   UNL     1       7.998   4.400  17.189  0.00  0.00    +0.000 OA
ATOM     21  H   UNL     1       8.131   3.880  18.006  0.00  0.00    +0.000 HD
ENDBRANCH  16  20
BRANCH  15  22
ATOM     22  C   UNL     1       6.565   5.109  14.446  0.00  0.00    +0.000 C 
BRANCH  22  23
ATOM     23  O   UNL     1       7.925   5.467  14.201  0.00  0.00    +0.000 OA
ATOM     24  H   UNL     1       8.136   5.136  13.306  0.00  0.00    +0.000 HD
ENDBRANCH  22  23
ENDBRANCH  15  22
ENDBRANCH   3  13
BRANCH   1  26
ATOM     25  C   UNL     1       1.977  10.692  17.798  0.00  0.00    +0.000 C 
ATOM     26  C   UNL     1       2.298   9.554  17.999  0.00  0.00    +0.000 C 
ENDBRANCH   1  26
TORSDOF 5
ENDMDL
MODEL 6
REMARK VINA RESULT:      -6.2      3.029      5.814
REMARK  Name = 
REMARK  6 active torsions:
REMARK  status: ('A' for Active; 'I' for Inactive)
REMARK    1  A    between atoms: C_2  and  C_3
REMARK    2  A    between atoms: N_5  and  C_6
REMARK    3  A    between atoms: C_8  and  C_9
REMARK    4  A    between atoms: C_9  and  O_10
REMARK    5  A    between atoms: C_11  and  O_12
REMARK    6  A    between atoms: C_13  and  C_14
REMARK                            x       y       z     vdW  Elec       q    Type
REMARK                         _______ _______ _______ _____ _____    ______ ____
ROOT
ATOM      1  C   UNL     1       6.032   6.800  17.231  0.00  0.00    +0.000 A 
ATOM      2  C   UNL     1       4.860   6.830  17.952  0.00  0.00    +0.000 A 
ATOM      3  N   UNL     1       4.057   5.805  17.509  0.00  0.00    +0.000 N 
ATOM      4  C   UNL     1       4.725   5.098  16.536  0.00  0.00    +0.000 A 
ATOM      5  N   UNL     1       4.265   4.002  15.907  0.00  0.00    +0.000 NA
ATOM      6  C   UNL     1       5.164   3.524  15.026  0.00  0.00    +0.000 A 
ATOM      7  N   UNL     1       6.377   4.020  14.717  0.00  0.00    +0.000 NA
ATOM      8  C   UNL     1       6.792   5.137  15.349  0.00  0.00    +0.000 A 
ATOM      9  N   UNL     1       8.027   5.646  14.984  0.00  0.00    +0.000 N 
ATOM     10  C   UNL     1       5.961   5.707  16.327  0.00  0.00    +0.000 A 
ATOM     11  H   UNL     1       8.595   4.973  14.488  0.00  0.00    +0.000 HD
ATOM     12  H   UNL     1       8.488   6.235  15.664  0.00  0.00    +0.000 HD
ENDROOT
BRANCH   3  13
ATOM     13  C   UNL     1       2.759   5.463  18.061  0.00  0.00    +0.000 C 
ATOM     14  O   UNL     1       2.496   4.067  17.732  0.00  0.00    +0.000 OA
ATOM     15  C   UNL     1       2.221   3.379  18.971  0.00  0.00    +0.000 C 
ATOM     16  C   UNL     1       1.674   4.444  19.905  0.00  0.00    +0.000 C 
ATOM     17  C   UNL     1       2.615   5.598  19.588  0.00  0.00    +0.000 C 
ATOM     18  C   UNL     1       2.123   6.942  20.089  0.00  0.00    +0.000 C 
ATOM     19  F   UNL     1       3.798   5.327  20.222  0.00  0.00    +0.000 F 
BRANCH  16  20
ATOM     20  O   UNL     1       1.700   4.055  21.270  0.00  0.00    +0.000 OA
ATOM     21  H   UNL     1       1.313   3.159  21.330  0.00  0.00    +0.000 HD
ENDBRANCH  16  20
BRANCH  15  22
ATOM     22  C   UNL     1       1.252   2.234  18.708  0.00  0.00    +0.000 C 
BRANCH  22  23
ATOM     23  O   UNL     1       0.031   2.474  19.410  0.00  0.00    +0.000 OA
ATOM     24  H   UNL     1       0.233   3.158  20.078  0.00  0.00    +0.000 HD
ENDBRANCH  22  23
ENDBRANCH  15  22
ENDBRANCH   3  13
BRANCH   1  26
ATOM     25  C   UNL     1       8.011   8.484  17.589  0.00  0.00    +0.000 C 
ATOM     26  C   UNL     1       7.104   7.717  17.425  0.00  0.00    +0.000 C 
ENDBRANCH   1  26
TORSDOF 5
ENDMDL
MODEL 7
REMARK VINA RESULT:      -6.2      3.381      5.478
REMARK  Name = 
REMARK  6 active torsions:
REMARK  status: ('A' for Active; 'I' for Inactive)
REMARK    1  A    between atoms: C_2  and  C_3
REMARK    2  A    between atoms: N_5  and  C_6
REMARK    3  A    between atoms: C_8  and  C_9
REMARK    4  A    between atoms: C_9  and  O_10
REMARK    5  A    between atoms: C_11  and  O_12
REMARK    6  A    between atoms: C_13  and  C_14
REMARK                            x       y       z     vdW  Elec       q    Type
REMARK                         _______ _______ _______ _____ _____    ______ ____
ROOT
ATOM      1  C   UNL     1       0.919   8.599  21.288  0.00  0.00    +0.000 A 
ATOM      2  C   UNL     1       1.303   7.295  21.072  0.00  0.00    +0.000 A 
ATOM      3  N   UNL     1       1.785   7.196  19.788  0.00  0.00    +0.000 N 
ATOM      4  C   UNL     1       1.747   8.438  19.196  0.00  0.00    +0.000 A 
ATOM      5  N   UNL     1       2.181   8.730  17.956  0.00  0.00    +0.000 NA
ATOM      6  C   UNL     1       2.032  10.039  17.678  0.00  0.00    +0.000 A 
ATOM      7  N   UNL     1       1.502  11.004  18.453  0.00  0.00    +0.000 NA
ATOM      8  C   UNL     1       1.052  10.667  19.678  0.00  0.00    +0.000 A 
ATOM      9  N   UNL     1       0.478  11.671  20.438  0.00  0.00    +0.000 N 
ATOM     10  C   UNL     1       1.193   9.337  20.106  0.00  0.00    +0.000 A 
ATOM     11  H   UNL     1       0.710  12.597  20.101  0.00  0.00    +0.000 HD
ATOM     12  H   UNL     1       0.469  11.528  21.438  0.00  0.00    +0.000 HD
ENDROOT
BRANCH   3  13
ATOM     13  C   UNL     1       2.345   5.995  19.196  0.00  0.00    +0.000 C 
ATOM     14  O   UNL     1       3.770   6.229  18.993  0.00  0.00    +0.000 OA
ATOM     15  C   UNL     1       4.479   5.166  19.665  0.00  0.00    +0.000 C 
ATOM     16  C   UNL     1       3.515   3.992  19.682  0.00  0.00    +0.000 C 
ATOM     17  C   UNL     1       2.217   4.706  20.029  0.00  0.00    +0.000 C 
ATOM     18  C   UNL     1       0.975   3.875  19.774  0.00  0.00    +0.000 C 
ATOM     19  F   UNL     1       2.264   4.978  21.371  0.00  0.00    +0.000 F 
BRANCH  16  20
ATOM     20  O   UNL     1       3.875   2.988  20.619  0.00  0.00    +0.000 OA
ATOM     21  H   UNL     1       3.810   2.124  20.166  0.00  0.00    +0.000 HD
ENDBRANCH  16  20
BRANCH  15  22
ATOM     22  C   UNL     1       5.782   4.883  18.928  0.00  0.00    +0.000 C 
BRANCH  22  23
ATOM     23  O   UNL     1       5.799   3.521  18.501  0.00  0.00    +0.000 OA
ATOM     24  H   UNL     1       6.241   3.019  19.214  0.00  0.00    +0.000 HD
ENDBRANCH  22  23
ENDBRANCH  15  22
ENDBRANCH   3  13
BRANCH   1  26
ATOM     25  C   UNL     1      -0.090   9.471  23.547  0.00  0.00    +0.000 C 
ATOM     26  C   UNL     1       0.374   9.070  22.517  0.00  0.00    +0.000 C 
ENDBRANCH   1  26
TORSDOF 5
ENDMDL
MODEL 8
REMARK VINA RESULT:      -6.2      9.604     11.646
REMARK  Name = 
REMARK  6 active torsions:
REMARK  status: ('A' for Active; 'I' for Inactive)
REMARK    1  A    between atoms: C_2  and  C_3
REMARK    2  A    between atoms: N_5  and  C_6
REMARK    3  A    between atoms: C_8  and  C_9
REMARK    4  A    between atoms: C_9  and  O_10
REMARK    5  A    between atoms: C_11  and  O_12
REMARK    6  A    between atoms: C_13  and  C_14
REMARK                            x       y       z     vdW  Elec       q    Type
REMARK                         _______ _______ _______ _____ _____    ______ ____
ROOT
ATOM      1  C   UNL     1       9.031  12.228  18.111  0.00  0.00    +0.000 A 
ATOM      2  C   UNL     1       7.931  13.055  18.138  0.00  0.00    +0.000 A 
ATOM      3  N   UNL     1       8.355  14.342  17.909  0.00  0.00    +0.000 N 
ATOM      4  C   UNL     1       9.715  14.338  17.698  0.00  0.00    +0.000 A 
ATOM      5  N   UNL     1      10.467  15.413  17.401  0.00  0.00    +0.000 NA
ATOM      6  C   UNL     1      11.759  15.079  17.226  0.00  0.00    +0.000 A 
ATOM      7  N   UNL     1      12.332  13.865  17.343  0.00  0.00    +0.000 NA
ATOM      8  C   UNL     1      11.550  12.817  17.670  0.00  0.00    +0.000 A 
ATOM      9  N   UNL     1      12.172  11.589  17.820  0.00  0.00    +0.000 N 
ATOM     10  C   UNL     1      10.172  13.028  17.834  0.00  0.00    +0.000 A 
ATOM     11  H   UNL     1      13.091  11.563  17.399  0.00  0.00    +0.000 HD
ATOM     12  H   UNL     1      11.585  10.773  17.711  0.00  0.00    +0.000 HD
ENDROOT
BRANCH   3  13
ATOM     13  C   UNL     1       7.487  15.501  17.801  0.00  0.00    +0.000 C 
ATOM     14  O   UNL     1       6.154  15.021  17.456  0.00  0.00    +0.000 OA
ATOM     15  C   UNL     1       5.243  15.533  18.451  0.00  0.00    +0.000 C 
ATOM     16  C   UNL     1       5.889  16.808  18.965  0.00  0.00    +0.000 C 
ATOM     17  C   UNL     1       7.339  16.358  19.072  0.00  0.00    +0.000 C 
ATOM     18  C   UNL     1       8.325  17.501  19.216  0.00  0.00    +0.000 C 
ATOM     19  F   UNL     1       7.431  15.588  20.200  0.00  0.00    +0.000 F 
BRANCH  16  20
ATOM     20  O   UNL     1       5.345  17.251  20.199  0.00  0.00    +0.000 OA
ATOM     21  H   UNL     1       4.560  16.701  20.391  0.00  0.00    +0.000 HD
ENDBRANCH  16  20
BRANCH  15  22
ATOM     22  C   UNL     1       3.873  15.748  17.820  0.00  0.00    +0.000 C 
BRANCH  22  23
ATOM     23  O   UNL     1       3.526  17.131  17.898  0.00  0.00    +0.000 OA
ATOM     24  H   UNL     1       2.592  17.160  18.182  0.00  0.00    +0.000 HD
ENDBRANCH  22  23
ENDBRANCH  15  22
ENDBRANCH   3  13
BRANCH   1  26
ATOM     25  C   UNL     1       8.907   9.632  18.464  0.00  0.00    +0.000 C 
ATOM     26  C   UNL     1       8.967  10.819  18.306  0.00  0.00    +0.000 C 
ENDBRANCH   1  26
TORSDOF 5
ENDMDL
MODEL 9
REMARK VINA RESULT:      -6.1      3.470      6.209
REMARK  Name = 
REMARK  6 active torsions:
REMARK  status: ('A' for Active; 'I' for Inactive)
REMARK    1  A    between atoms: C_2  and  C_3
REMARK    2  A    between atoms: N_5  and  C_6
REMARK    3  A    between atoms: C_8  and  C_9
REMARK    4  A    between atoms: C_9  and  O_10
REMARK    5  A    between atoms: C_11  and  O_12
REMARK    6  A    between atoms: C_13  and  C_14
REMARK                            x       y       z     vdW  Elec       q    Type
REMARK                         _______ _______ _______ _____ _____    ______ ____
ROOT
ATOM      1  C   UNL     1       5.243   4.168  15.792  0.00  0.00    +0.000 A 
ATOM      2  C   UNL     1       4.312   3.651  16.664  0.00  0.00    +0.000 A 
ATOM      3  N   UNL     1       4.631   4.072  17.933  0.00  0.00    +0.000 N 
ATOM      4  C   UNL     1       5.738   4.887  17.873  0.00  0.00    +0.000 A 
ATOM      5  N   UNL     1       6.308   5.516  18.917  0.00  0.00    +0.000 NA
ATOM      6  C   UNL     1       7.360   6.261  18.529  0.00  0.00    +0.000 A 
ATOM      7  N   UNL     1       7.876   6.401  17.292  0.00  0.00    +0.000 NA
ATOM      8  C   UNL     1       7.294   5.732  16.277  0.00  0.00    +0.000 A 
ATOM      9  N   UNL     1       7.868   5.864  15.024  0.00  0.00    +0.000 N 
ATOM     10  C   UNL     1       6.157   4.954  16.545  0.00  0.00    +0.000 A 
ATOM     11  H   UNL     1       8.488   6.661  14.961  0.00  0.00    +0.000 HD
ATOM     12  H   UNL     1       7.267   5.677  14.233  0.00  0.00    +0.000 HD
ENDROOT
BRANCH   3  13
ATOM     13  C   UNL     1       3.855   3.788  19.127  0.00  0.00    +0.000 C 
ATOM     14  O   UNL     1       3.366   5.060  19.646  0.00  0.00    +0.000 OA
ATOM     15  C   UNL     1       1.931   4.954  19.757  0.00  0.00    +0.000 C 
ATOM     16  C   UNL     1       1.654   3.473  19.946  0.00  0.00    +0.000 C 
ATOM     17  C   UNL     1       2.626   2.880  18.937  0.00  0.00    +0.000 C 
ATOM     18  C   UNL     1       2.868   1.394  19.121  0.00  0.00    +0.000 C 
ATOM     19  F   UNL     1       2.068   3.058  17.699  0.00  0.00    +0.000 F 
BRANCH  16  20
ATOM     20  O   UNL     1       0.301   3.122  19.697  0.00  0.00    +0.000 OA
ATOM     21  H   UNL     1      -0.079   2.796  20.537  0.00  0.00    +0.000 HD
ENDBRANCH  16  20
BRANCH  15  22
ATOM     22  C   UNL     1       1.448   5.823  20.911  0.00  0.00    +0.000 C 
BRANCH  22  23
ATOM     23  O   UNL     1       2.052   7.114  20.818  0.00  0.00    +0.000 OA
ATOM     24  H   UNL     1       2.650   7.189  21.588  0.00  0.00    +0.000 HD
ENDBRANCH  22  23
ENDBRANCH  15  22
ENDBRANCH   3  13
BRANCH   1  26
ATOM     25  C   UNL     1       5.212   3.745  13.204  0.00  0.00    +0.000 C 
ATOM     26  C   UNL     1       5.223   3.942  14.387  0.00  0.00    +0.000 C 
ENDBRANCH   1  26
TORSDOF 5
ENDMDL
