MODEL 1
REMARK VINA RESULT:      -8.3      0.000      0.000
REMARK  Name = 
REMARK  10 active torsions:
REMARK  status: ('A' for Active; 'I' for Inactive)
REMARK    1  A    between atoms: C_1  and  O_2
REMARK    2  A    between atoms: O_2  and  C_3
REMARK    3  A    between atoms: C_6  and  C_7
REMARK    4  A    between atoms: C_7  and  C_8
REMARK    5  A    between atoms: C_8  and  C_9
REMARK    6  A    between atoms: N_14  and  S_15
REMARK    7  A    between atoms: S_15  and  C_18
REMARK    8  A    between atoms: C_22  and  C_23
REMARK    9  A    between atoms: C_31  and  O_32
REMARK   10  A    between atoms: O_32  and  C_33
REMARK                            x       y       z     vdW  Elec       q    Type
REMARK                         _______ _______ _______ _____ _____    ______ ____
ROOT
ATOM      1  C   UNL     1       2.333   7.530  18.635  0.00  0.00    +0.000 C 
ATOM      2  O   UNL     1       2.764   7.941  17.557  0.00  0.00    +0.000 OA
ATOM      3  N   UNL     1       1.609   8.342  19.493  0.00  0.00    +0.000 N 
ATOM      4  C   UNL     1       1.313   9.721  19.089  0.00  0.00    +0.000 C 
ATOM      5  C   UNL     1      -0.136  10.112  19.427  0.00  0.00    +0.000 C 
ATOM      6  N   UNL     1      -0.499   9.806  20.852  0.00  0.00    +0.000 NA
ATOM      7  C   UNL     1      -0.218   8.363  21.155  0.00  0.00    +0.000 C 
ATOM      8  C   UNL     1       1.248   8.007  20.879  0.00  0.00    +0.000 C 
ENDROOT
BRANCH   6   9
ATOM      9  S   UNL     1       0.065  10.887  22.047  0.00  0.00    +0.000 S 
ATOM     10  O   UNL     1       0.010  10.201  23.322  0.00  0.00    +0.000 OA
ATOM     11  O   UNL     1       1.294  11.479  21.583  0.00  0.00    +0.000 OA
BRANCH   9  12
ATOM     12  C   UNL     1      -1.180  12.155  22.094  0.00  0.00    +0.000 A 
ATOM     13  C   UNL     1      -1.138  13.205  21.173  0.00  0.00    +0.000 A 
ATOM     14  C   UNL     1      -2.041  14.263  21.301  0.00  0.00    +0.000 A 
ATOM     15  C   UNL     1      -2.971  14.270  22.342  0.00  0.00    +0.000 A 
ATOM     16  C   UNL     1      -3.023  13.214  23.268  0.00  0.00    +0.000 A 
ATOM     17  C   UNL     1      -2.113  12.151  23.136  0.00  0.00    +0.000 A 
BRANCH  16  18
ATOM     18  C   UNL     1      -4.018  13.218  24.404  0.00  0.00    +0.000 C 
ATOM     19  F   UNL     1      -4.316  11.974  24.871  0.00  0.00    +0.000 F 
ATOM     20  F   UNL     1      -3.569  13.923  25.480  0.00  0.00    +0.000 F 
ATOM     21  F   UNL     1      -5.207  13.781  24.055  0.00  0.00    +0.000 F 
ENDBRANCH  16  18
ENDBRANCH   9  12
ENDBRANCH   6   9
BRANCH   1  22
ATOM     22  C   UNL     1       2.517   6.089  19.065  0.00  0.00    +0.000 C 
BRANCH  22  23
ATOM     23  C   UNL     1       3.965   5.800  19.444  0.00  0.00    +0.000 C 
BRANCH  23  27
ATOM     24  C   UNL     1       6.291   4.915  15.908  0.00  0.00    +0.000 A 
ATOM     25  C   UNL     1       5.234   4.078  16.302  0.00  0.00    +0.000 A 
ATOM     26  C   UNL     1       4.480   4.356  17.442  0.00  0.00    +0.000 A 
ATOM     27  C   UNL     1       4.788   5.465  18.228  0.00  0.00    +0.000 A 
ATOM     28  C   UNL     1       5.893   6.251  17.884  0.00  0.00    +0.000 A 
ATOM     29  C   UNL     1       6.654   5.990  16.733  0.00  0.00    +0.000 A 
BRANCH  24  31
ATOM     30  C   UNL     1       6.275   3.936  13.757  0.00  0.00    +0.000 C 
ATOM     31  O   UNL     1       6.982   4.684  14.747  0.00  0.00    +0.000 OA
ENDBRANCH  24  31
BRANCH  29  32
ATOM     32  O   UNL     1       7.670   6.895  16.583  0.00  0.00    +0.000 OA
ATOM     33  C   UNL     1       7.794   7.958  17.510  0.00  0.00    +0.000 C 
ENDBRANCH  29  32
ENDBRANCH  23  27
ENDBRANCH  22  23
ENDBRANCH   1  22
TORSDOF 8
ENDMDL
MODEL 2
REMARK VINA RESULT:      -8.1      1.004      1.280
REMARK  Name = 
REMARK  10 active torsions:
REMARK  status: ('A' for Active; 'I' for Inactive)
REMARK    1  A    between atoms: C_1  and  O_2
REMARK    2  A    between atoms: O_2  and  C_3
REMARK    3  A    between atoms: C_6  and  C_7
REMARK    4  A    between atoms: C_7  and  C_8
REMARK    5  A    between atoms: C_8  and  C_9
REMARK    6  A    between atoms: N_14  and  S_15
REMARK    7  A    between atoms: S_15  and  C_18
REMARK    8  A    between atoms: C_22  and  C_23
REMARK    9  A    between atoms: C_31  and  O_32
REMARK   10  A    between atoms: O_32  and  C_33
REMARK                            x       y       z     vdW  Elec       q    Type
REMARK                         _______ _______ _______ _____ _____    ______ ____
ROOT
ATOM      1  C   UNL     1       2.465   7.339  19.227  0.00  0.00    +0.000 C 
ATOM      2  O   UNL     1       2.943   7.618  18.127  0.00  0.00    +0.000 OA
ATOM      3  N   UNL     1       1.640   8.215  19.912  0.00  0.00    +0.000 N 
ATOM      4  C   UNL     1       1.293   9.500  19.293  0.00  0.00    +0.000 C 
ATOM      5  C   UNL     1      -0.195   9.838  19.486  0.00  0.00    +0.000 C 
ATOM      6  N   UNL     1      -0.634   9.717  20.917  0.00  0.00    +0.000 NA
ATOM      7  C   UNL     1      -0.292   8.354  21.445  0.00  0.00    +0.000 C 
ATOM      8  C   UNL     1       1.208   8.060  21.310  0.00  0.00    +0.000 C 
ENDROOT
BRANCH   6   9
ATOM      9  S   UNL     1      -0.214  10.992  21.970  0.00  0.00    +0.000 S 
ATOM     10  O   UNL     1      -0.134  10.449  23.311  0.00  0.00    +0.000 OA
ATOM     11  O   UNL     1       0.900  11.707  21.399  0.00  0.00    +0.000 OA
BRANCH   9  12
ATOM     12  C   UNL     1      -1.635  12.059  21.934  0.00  0.00    +0.000 A 
ATOM     13  C   UNL     1      -1.935  12.780  20.775  0.00  0.00    +0.000 A 
ATOM     14  C   UNL     1      -2.974  13.713  20.799  0.00  0.00    +0.000 A 
ATOM     15  C   UNL     1      -3.702  13.922  21.971  0.00  0.00    +0.000 A 
ATOM     16  C   UNL     1      -3.411  13.195  23.139  0.00  0.00    +0.000 A 
ATOM     17  C   UNL     1      -2.365  12.258  23.111  0.00  0.00    +0.000 A 
BRANCH  16  18
ATOM     18  C   UNL     1      -4.186  13.423  24.416  0.00  0.00    +0.000 C 
ATOM     19  F   UNL     1      -3.619  14.347  25.239  0.00  0.00    +0.000 F 
ATOM     20  F   UNL     1      -5.453  13.863  24.178  0.00  0.00    +0.000 F 
ATOM     21  F   UNL     1      -4.315  12.289  25.157  0.00  0.00    +0.000 F 
ENDBRANCH  16  18
ENDBRANCH   9  12
ENDBRANCH   6   9
BRANCH   1  22
ATOM     22  C   UNL     1       2.703   5.990  19.874  0.00  0.00    +0.000 C 
BRANCH  22  23
ATOM     23  C   UNL     1       2.558   4.855  18.868  0.00  0.00    +0.000 C 
BRANCH  23  27
ATOM     24  C   UNL     1       6.218   4.391  16.613  0.00  0.00    +0.000 A 
ATOM     25  C   UNL     1       4.970   4.159  16.014  0.00  0.00    +0.000 A 
ATOM     26  C   UNL     1       3.785   4.304  16.736  0.00  0.00    +0.000 A 
ATOM     27  C   UNL     1       3.828   4.660  18.082  0.00  0.00    +0.000 A 
ATOM     28  C   UNL     1       5.073   4.809  18.702  0.00  0.00    +0.000 A 
ATOM     29  C   UNL     1       6.274   4.677  17.986  0.00  0.00    +0.000 A 
BRANCH  24  31
ATOM     30  C   UNL     1       7.309   4.892  14.577  0.00  0.00    +0.000 C 
ATOM     31  O   UNL     1       7.378   4.322  15.885  0.00  0.00    +0.000 OA
ENDBRANCH  24  31
BRANCH  29  32
ATOM     32  O   UNL     1       7.364   4.884  18.786  0.00  0.00    +0.000 OA
ATOM     33  C   UNL     1       7.889   6.193  18.919  0.00  0.00    +0.000 C 
ENDBRANCH  29  32
ENDBRANCH  23  27
ENDBRANCH  22  23
ENDBRANCH   1  22
TORSDOF 8
ENDMDL
MODEL 3
REMARK VINA RESULT:      -7.9      5.603     10.363
REMARK  Name = 
REMARK  10 active torsions:
REMARK  status: ('A' for Active; 'I' for Inactive)
REMARK    1  A    between atoms: C_1  and  O_2
REMARK    2  A    between atoms: O_2  and  C_3
REMARK    3  A    between atoms: C_6  and  C_7
REMARK    4  A    between atoms: C_7  and  C_8
REMARK    5  A    between atoms: C_8  and  C_9
REMARK    6  A    between atoms: N_14  and  S_15
REMARK    7  A    between atoms: S_15  and  C_18
REMARK    8  A    between atoms: C_22  and  C_23
REMARK    9  A    between atoms: C_31  and  O_32
REMARK   10  A    between atoms: O_32  and  C_33
REMARK                            x       y       z     vdW  Elec       q    Type
REMARK                         _______ _______ _______ _____ _____    ______ ____
ROOT
ATOM      1  C   UNL     1       1.922   7.813  19.572  0.00  0.00    +0.000 C 
ATOM      2  O   UNL     1       1.685   8.314  20.671  0.00  0.00    +0.000 OA
ATOM      3  N   UNL     1       2.105   6.450  19.410  0.00  0.00    +0.000 N 
ATOM      4  C   UNL     1       1.974   5.571  20.578  0.00  0.00    +0.000 C 
ATOM      5  C   UNL     1       1.191   4.290  20.237  0.00  0.00    +0.000 C 
ATOM      6  N   UNL     1       1.718   3.599  19.013  0.00  0.00    +0.000 NA
ATOM      7  C   UNL     1       1.761   4.559  17.859  0.00  0.00    +0.000 C 
ATOM      8  C   UNL     1       2.604   5.797  18.190  0.00  0.00    +0.000 C 
ENDROOT
BRANCH   6   9
ATOM      9  S   UNL     1       3.141   2.673  19.195  0.00  0.00    +0.000 S 
ATOM     10  O   UNL     1       3.584   2.810  20.567  0.00  0.00    +0.000 OA
ATOM     11  O   UNL     1       2.912   1.369  18.622  0.00  0.00    +0.000 OA
BRANCH   9  12
ATOM     12  C   UNL     1       4.332   3.522  18.185  0.00  0.00    +0.000 A 
ATOM     13  C   UNL     1       4.297   3.375  16.796  0.00  0.00    +0.000 A 
ATOM     14  C   UNL     1       5.314   3.939  16.023  0.00  0.00    +0.000 A 
ATOM     15  C   UNL     1       6.356   4.638  16.635  0.00  0.00    +0.000 A 
ATOM     16  C   UNL     1       6.394   4.796  18.032  0.00  0.00    +0.000 A 
ATOM     17  C   UNL     1       5.369   4.227  18.806  0.00  0.00    +0.000 A 
BRANCH  16  18
ATOM     18  C   UNL     1       7.522   5.541  18.705  0.00  0.00    +0.000 C 
ATOM     19  F   UNL     1       7.874   6.690  18.064  0.00  0.00    +0.000 F 
ATOM     20  F   UNL     1       7.210   5.907  19.979  0.00  0.00    +0.000 F 
ATOM     21  F   UNL     1       8.659   4.799  18.794  0.00  0.00    +0.000 F 
ENDBRANCH  16  18
ENDBRANCH   9  12
ENDBRANCH   6   9
BRANCH   1  22
ATOM     22  C   UNL     1       1.970   8.655  18.312  0.00  0.00    +0.000 C 
BRANCH  22  23
ATOM     23  C   UNL     1       1.673  10.120  18.607  0.00  0.00    +0.000 C 
BRANCH  23  27
ATOM     24  C   UNL     1      -2.569  10.951  18.479  0.00  0.00    +0.000 A 
ATOM     25  C   UNL     1      -1.781  11.392  19.556  0.00  0.00    +0.000 A 
ATOM     26  C   UNL     1      -0.413  11.125  19.605  0.00  0.00    +0.000 A 
ATOM     27  C   UNL     1       0.191  10.388  18.588  0.00  0.00    +0.000 A 
ATOM     28  C   UNL     1      -0.607   9.876  17.560  0.00  0.00    +0.000 A 
ATOM     29  C   UNL     1      -1.984  10.145  17.491  0.00  0.00    +0.000 A 
BRANCH  24  31
ATOM     30  C   UNL     1      -4.330  12.302  19.289  0.00  0.00    +0.000 C 
ATOM     31  O   UNL     1      -3.898  11.277  18.394  0.00  0.00    +0.000 OA
ENDBRANCH  24  31
BRANCH  29  32
ATOM     32  O   UNL     1      -2.557   9.563  16.394  0.00  0.00    +0.000 OA
ATOM     33  C   UNL     1      -2.840  10.356  15.254  0.00  0.00    +0.000 C 
ENDBRANCH  29  32
ENDBRANCH  23  27
ENDBRANCH  22  23
ENDBRANCH   1  22
TORSDOF 8
ENDMDL
MODEL 4
REMARK VINA RESULT:      -7.9      5.559     10.363
REMARK  Name = 
REMARK  10 active torsions:
REMARK  status: ('A' for Active; 'I' for Inactive)
REMARK    1  A    between atoms: C_1  and  O_2
REMARK    2  A    between atoms: O_2  and  C_3
REMARK    3  A    between atoms: C_6  and  C_7
REMARK    4  A    between atoms: C_7  and  C_8
REMARK    5  A    between atoms: C_8  and  C_9
REMARK    6  A    between atoms: N_14  and  S_15
REMARK    7  A    between atoms: S_15  and  C_18
REMARK    8  A    between atoms: C_22  and  C_23
REMARK    9  A    between atoms: C_31  and  O_32
REMARK   10  A    between atoms: O_32  and  C_33
REMARK                            x       y       z     vdW  Elec       q    Type
REMARK                         _______ _______ _______ _____ _____    ______ ____
ROOT
ATOM      1  C   UNL     1       1.837   7.757  19.734  0.00  0.00    +0.000 C 
ATOM      2  O   UNL     1       1.582   8.198  20.855  0.00  0.00    +0.000 OA
ATOM      3  N   UNL     1       2.059   6.408  19.508  0.00  0.00    +0.000 N 
ATOM      4  C   UNL     1       1.949   5.471  20.632  0.00  0.00    +0.000 C 
ATOM      5  C   UNL     1       1.204   4.187  20.227  0.00  0.00    +0.000 C 
ATOM      6  N   UNL     1       1.754   3.570  18.974  0.00  0.00    +0.000 NA
ATOM      7  C   UNL     1       1.774   4.584  17.868  0.00  0.00    +0.000 C 
ATOM      8  C   UNL     1       2.580   5.829  18.261  0.00  0.00    +0.000 C 
ENDROOT
BRANCH   6   9
ATOM      9  S   UNL     1       3.202   2.676  19.118  0.00  0.00    +0.000 S 
ATOM     10  O   UNL     1       3.641   2.768  20.495  0.00  0.00    +0.000 OA
ATOM     11  O   UNL     1       3.010   1.392  18.492  0.00  0.00    +0.000 OA
BRANCH   9  12
ATOM     12  C   UNL     1       4.369   3.599  18.146  0.00  0.00    +0.000 A 
ATOM     13  C   UNL     1       4.303   3.555  16.751  0.00  0.00    +0.000 A 
ATOM     14  C   UNL     1       5.302   4.176  15.999  0.00  0.00    +0.000 A 
ATOM     15  C   UNL     1       6.357   4.830  16.636  0.00  0.00    +0.000 A 
ATOM     16  C   UNL     1       6.427   4.885  18.039  0.00  0.00    +0.000 A 
ATOM     17  C   UNL     1       5.420   4.259  18.793  0.00  0.00    +0.000 A 
BRANCH  16  18
ATOM     18  C   UNL     1       7.570   5.581  18.739  0.00  0.00    +0.000 C 
ATOM     19  F   UNL     1       7.304   5.895  20.037  0.00  0.00    +0.000 F 
ATOM     20  F   UNL     1       8.699   4.820  18.764  0.00  0.00    +0.000 F 
ATOM     21  F   UNL     1       7.918   6.750  18.136  0.00  0.00    +0.000 F 
ENDBRANCH  16  18
ENDBRANCH   9  12
ENDBRANCH   6   9
BRANCH   1  22
ATOM     22  C   UNL     1       1.866   8.658  18.516  0.00  0.00    +0.000 C 
BRANCH  22  23
ATOM     23  C   UNL     1       1.582  10.108  18.888  0.00  0.00    +0.000 C 
BRANCH  23  27
ATOM     24  C   UNL     1      -2.573  11.097  18.216  0.00  0.00    +0.000 A 
ATOM     25  C   UNL     1      -1.945  10.085  17.471  0.00  0.00    +0.000 A 
ATOM     26  C   UNL     1      -0.604   9.762  17.681  0.00  0.00    +0.000 A 
ATOM     27  C   UNL     1       0.143  10.465  18.624  0.00  0.00    +0.000 A 
ATOM     28  C   UNL     1      -0.458  11.529  19.305  0.00  0.00    +0.000 A 
ATOM     29  C   UNL     1      -1.809  11.858  19.114  0.00  0.00    +0.000 A 
BRANCH  24  31
ATOM     30  C   UNL     1      -4.374  11.384  16.714  0.00  0.00    +0.000 C 
ATOM     31  O   UNL     1      -3.910  11.362  18.064  0.00  0.00    +0.000 OA
ENDBRANCH  24  31
BRANCH  29  32
ATOM     32  O   UNL     1      -2.188  12.915  19.896  0.00  0.00    +0.000 OA
ATOM     33  C   UNL     1      -2.650  12.673  21.213  0.00  0.00    +0.000 C 
ENDBRANCH  29  32
ENDBRANCH  23  27
ENDBRANCH  22  23
ENDBRANCH   1  22
TORSDOF 8
ENDMDL
MODEL 5
REMARK VINA RESULT:      -7.8      6.078     10.921
REMARK  Name = 
REMARK  10 active torsions:
REMARK  status: ('A' for Active; 'I' for Inactive)
REMARK    1  A    between atoms: C_1  and  O_2
REMARK    2  A    between atoms: O_2  and  C_3
REMARK    3  A    between atoms: C_6  and  C_7
REMARK    4  A    between atoms: C_7  and  C_8
REMARK    5  A    between atoms: C_8  and  C_9
REMARK    6  A    between atoms: N_14  and  S_15
REMARK    7  A    between atoms: S_15  and  C_18
REMARK    8  A    between atoms: C_22  and  C_23
REMARK    9  A    between atoms: C_31  and  O_32
REMARK   10  A    between atoms: O_32  and  C_33
REMARK                            x       y       z     vdW  Elec       q    Type
REMARK                         _______ _______ _______ _____ _____    ______ ____
ROOT
ATOM      1  C   UNL     1       1.582   7.999  20.101  0.00  0.00    +0.000 C 
ATOM      2  O   UNL     1       0.817   8.058  21.064  0.00  0.00    +0.000 OA
ATOM      3  N   UNL     1       2.139   6.803  19.678  0.00  0.00    +0.000 N 
ATOM      4  C   UNL     1       1.778   5.563  20.376  0.00  0.00    +0.000 C 
ATOM      5  C   UNL     1       1.529   4.410  19.387  0.00  0.00    +0.000 C 
ATOM      6  N   UNL     1       2.646   4.246  18.398  0.00  0.00    +0.000 NA
ATOM      7  C   UNL     1       2.904   5.547  17.694  0.00  0.00    +0.000 C 
ATOM      8  C   UNL     1       3.220   6.671  18.689  0.00  0.00    +0.000 C 
ENDROOT
BRANCH   6   9
ATOM      9  S   UNL     1       4.061   3.464  18.945  0.00  0.00    +0.000 S 
ATOM     10  O   UNL     1       4.330   3.929  20.290  0.00  0.00    +0.000 OA
ATOM     11  O   UNL     1       3.941   2.055  18.664  0.00  0.00    +0.000 OA
BRANCH   9  12
ATOM     12  C   UNL     1       5.342   4.129  17.907  0.00  0.00    +0.000 A 
ATOM     13  C   UNL     1       6.313   4.973  18.454  0.00  0.00    +0.000 A 
ATOM     14  C   UNL     1       7.235   5.593  17.609  0.00  0.00    +0.000 A 
ATOM     15  C   UNL     1       7.183   5.373  16.232  0.00  0.00    +0.000 A 
ATOM     16  C   UNL     1       6.214   4.520  15.675  0.00  0.00    +0.000 A 
ATOM     17  C   UNL     1       5.288   3.897  16.529  0.00  0.00    +0.000 A 
BRANCH  16  18
ATOM     18  C   UNL     1       6.143   4.283  14.185  0.00  0.00    +0.000 C 
ATOM     19  F   UNL     1       4.917   4.540  13.651  0.00  0.00    +0.000 F 
ATOM     20  F   UNL     1       7.020   5.066  13.496  0.00  0.00    +0.000 F 
ATOM     21  F   UNL     1       6.438   2.999  13.844  0.00  0.00    +0.000 F 
ENDBRANCH  16  18
ENDBRANCH   9  12
ENDBRANCH   6   9
BRANCH   1  22
ATOM     22  C   UNL     1       1.915   9.226  19.278  0.00  0.00    +0.000 C 
BRANCH  22  23
ATOM     23  C   UNL     1       1.056   9.307  18.022  0.00  0.00    +0.000 C 
BRANCH  23  27
ATOM     24  C   UNL     1      -2.620  11.475  18.720  0.00  0.00    +0.000 A 
ATOM     25  C   UNL     1      -1.557  11.548  19.635  0.00  0.00    +0.000 A 
ATOM     26  C   UNL     1      -0.369  10.849  19.418  0.00  0.00    +0.000 A 
ATOM     27  C   UNL     1      -0.231  10.042  18.290  0.00  0.00    +0.000 A 
ATOM     28  C   UNL     1      -1.320   9.902  17.423  0.00  0.00    +0.000 A 
ATOM     29  C   UNL     1      -2.517  10.607  17.622  0.00  0.00    +0.000 A 
BRANCH  24  31
ATOM     30  C   UNL     1      -3.955  12.726  20.216  0.00  0.00    +0.000 C 
ATOM     31  O   UNL     1      -3.757  12.220  18.895  0.00  0.00    +0.000 OA
ENDBRANCH  24  31
BRANCH  29  32
ATOM     32  O   UNL     1      -3.433  10.334  16.643  0.00  0.00    +0.000 OA
ATOM     33  C   UNL     1      -3.079  10.532  15.286  0.00  0.00    +0.000 C 
ENDBRANCH  29  32
ENDBRANCH  23  27
ENDBRANCH  22  23
ENDBRANCH   1  22
TORSDOF 8
ENDMDL
MODEL 6
REMARK VINA RESULT:      -7.7      2.524      3.461
REMARK  Name = 
REMARK  10 active torsions:
REMARK  status: ('A' for Active; 'I' for Inactive)
REMARK    1  A    between atoms: C_1  and  O_2
REMARK    2  A    between atoms: O_2  and  C_3
REMARK    3  A    between atoms: C_6  and  C_7
REMARK    4  A    between atoms: C_7  and  C_8
REMARK    5  A    between atoms: C_8  and  C_9
REMARK    6  A    between atoms: N_14  and  S_15
REMARK    7  A    between atoms: S_15  and  C_18
REMARK    8  A    between atoms: C_22  and  C_23
REMARK    9  A    between atoms: C_31  and  O_32
REMARK   10  A    between atoms: O_32  and  C_33
REMARK                            x       y       z     vdW  Elec       q    Type
REMARK                         _______ _______ _______ _____ _____    ______ ____
ROOT
ATOM      1  C   UNL     1       1.918   9.803  18.235  0.00  0.00    +0.000 C 
ATOM      2  O   UNL     1       2.527  10.468  17.396  0.00  0.00    +0.000 OA
ATOM      3  N   UNL     1       1.133  10.394  19.210  0.00  0.00    +0.000 N 
ATOM      4  C   UNL     1       0.990  11.855  19.222  0.00  0.00    +0.000 C 
ATOM      5  C   UNL     1      -0.464  12.280  19.492  0.00  0.00    +0.000 C 
ATOM      6  N   UNL     1      -1.048  11.604  20.698  0.00  0.00    +0.000 NA
ATOM      7  C   UNL     1      -0.910  10.115  20.571  0.00  0.00    +0.000 C 
ATOM      8  C   UNL     1       0.555   9.702  20.372  0.00  0.00    +0.000 C 
ENDROOT
BRANCH   6   9
ATOM      9  S   UNL     1      -0.593  12.212  22.227  0.00  0.00    +0.000 S 
ATOM     10  O   UNL     1      -0.411  11.082  23.115  0.00  0.00    +0.000 OA
ATOM     11  O   UNL     1       0.462  13.176  22.039  0.00  0.00    +0.000 OA
BRANCH   9  12
ATOM     12  C   UNL     1      -2.041  13.076  22.789  0.00  0.00    +0.000 A 
ATOM     13  C   UNL     1      -1.939  13.999  23.834  0.00  0.00    +0.000 A 
ATOM     14  C   UNL     1      -3.101  14.573  24.354  0.00  0.00    +0.000 A 
ATOM     15  C   UNL     1      -4.349  14.225  23.837  0.00  0.00    +0.000 A 
ATOM     16  C   UNL     1      -4.459  13.303  22.781  0.00  0.00    +0.000 A 
ATOM     17  C   UNL     1      -3.288  12.727  22.260  0.00  0.00    +0.000 A 
BRANCH  16  18
ATOM     18  C   UNL     1      -5.806  12.911  22.221  0.00  0.00    +0.000 C 
ATOM     19  F   UNL     1      -6.470  13.942  21.630  0.00  0.00    +0.000 F 
ATOM     20  F   UNL     1      -5.706  11.939  21.272  0.00  0.00    +0.000 F 
ATOM     21  F   UNL     1      -6.646  12.421  23.173  0.00  0.00    +0.000 F 
ENDBRANCH  16  18
ENDBRANCH   9  12
ENDBRANCH   6   9
BRANCH   1  22
ATOM     22  C   UNL     1       1.944   8.288  18.215  0.00  0.00    +0.000 C 
BRANCH  22  23
ATOM     23  C   UNL     1       3.260   7.759  17.660  0.00  0.00    +0.000 C 
BRANCH  23  27
ATOM     24  C   UNL     1       3.949   3.665  18.869  0.00  0.00    +0.000 A 
ATOM     25  C   UNL     1       4.414   4.137  17.631  0.00  0.00    +0.000 A 
ATOM     26  C   UNL     1       4.194   5.456  17.233  0.00  0.00    +0.000 A 
ATOM     27  C   UNL     1       3.478   6.322  18.057  0.00  0.00    +0.000 A 
ATOM     28  C   UNL     1       2.942   5.830  19.252  0.00  0.00    +0.000 A 
ATOM     29  C   UNL     1       3.165   4.508  19.671  0.00  0.00    +0.000 A 
BRANCH  24  31
ATOM     30  C   UNL     1       3.620   1.349  18.531  0.00  0.00    +0.000 C 
ATOM     31  O   UNL     1       4.231   2.392  19.292  0.00  0.00    +0.000 OA
ENDBRANCH  24  31
BRANCH  29  32
ATOM     32  O   UNL     1       2.566   4.252  20.874  0.00  0.00    +0.000 OA
ATOM     33  C   UNL     1       1.389   3.465  20.909  0.00  0.00    +0.000 C 
ENDBRANCH  29  32
ENDBRANCH  23  27
ENDBRANCH  22  23
ENDBRANCH   1  22
TORSDOF 8
ENDMDL
MODEL 7
REMARK VINA RESULT:      -7.6      5.414     10.380
REMARK  Name = 
REMARK  10 active torsions:
REMARK  status: ('A' for Active; 'I' for Inactive)
REMARK    1  A    between atoms: C_1  and  O_2
REMARK    2  A    between atoms: O_2  and  C_3
REMARK    3  A    between atoms: C_6  and  C_7
REMARK    4  A    between atoms: C_7  and  C_8
REMARK    5  A    between atoms: C_8  and  C_9
REMARK    6  A    between atoms: N_14  and  S_15
REMARK    7  A    between atoms: S_15  and  C_18
REMARK    8  A    between atoms: C_22  and  C_23
REMARK    9  A    between atoms: C_31  and  O_32
REMARK   10  A    between atoms: O_32  and  C_33
REMARK                            x       y       z     vdW  Elec       q    Type
REMARK                         _______ _______ _______ _____ _____    ______ ____
ROOT
ATOM      1  C   UNL     1       1.585   7.873  20.452  0.00  0.00    +0.000 C 
ATOM      2  O   UNL     1       1.193   7.979  21.615  0.00  0.00    +0.000 OA
ATOM      3  N   UNL     1       2.058   6.674  19.944  0.00  0.00    +0.000 N 
ATOM      4  C   UNL     1       2.058   5.486  20.805  0.00  0.00    +0.000 C 
ATOM      5  C   UNL     1       1.579   4.236  20.045  0.00  0.00    +0.000 C 
ATOM      6  N   UNL     1       2.299   4.041  18.742  0.00  0.00    +0.000 NA
ATOM      7  C   UNL     1       2.196   5.284  17.907  0.00  0.00    +0.000 C 
ATOM      8  C   UNL     1       2.742   6.509  18.652  0.00  0.00    +0.000 C 
ENDROOT
BRANCH   6   9
ATOM      9  S   UNL     1       3.874   3.386  18.815  0.00  0.00    +0.000 S 
ATOM     10  O   UNL     1       4.440   3.740  20.100  0.00  0.00    +0.000 OA
ATOM     11  O   UNL     1       3.815   2.009  18.391  0.00  0.00    +0.000 OA
BRANCH   9  12
ATOM     12  C   UNL     1       4.774   4.307  17.589  0.00  0.00    +0.000 A 
ATOM     13  C   UNL     1       4.731   3.909  16.250  0.00  0.00    +0.000 A 
ATOM     14  C   UNL     1       5.543   4.558  15.318  0.00  0.00    +0.000 A 
ATOM     15  C   UNL     1       6.391   5.589  15.723  0.00  0.00    +0.000 A 
ATOM     16  C   UNL     1       6.434   6.000  17.067  0.00  0.00    +0.000 A 
ATOM     17  C   UNL     1       5.615   5.345  18.002  0.00  0.00    +0.000 A 
BRANCH  16  18
ATOM     18  C   UNL     1       7.356   7.108  17.518  0.00  0.00    +0.000 C 
ATOM     19  F   UNL     1       8.250   7.494  16.565  0.00  0.00    +0.000 F 
ATOM     20  F   UNL     1       6.675   8.235  17.867  0.00  0.00    +0.000 F 
ATOM     21  F   UNL     1       8.095   6.763  18.606  0.00  0.00    +0.000 F 
ENDBRANCH  16  18
ENDBRANCH   9  12
ENDBRANCH   6   9
BRANCH   1  22
ATOM     22  C   UNL     1       1.517   9.036  19.484  0.00  0.00    +0.000 C 
BRANCH  22  23
ATOM     23  C   UNL     1       0.884  10.263  20.129  0.00  0.00    +0.000 C 
BRANCH  23  27
ATOM     24  C   UNL     1      -2.749  11.409  18.082  0.00  0.00    +0.000 A 
ATOM     25  C   UNL     1      -1.821  10.548  17.473  0.00  0.00    +0.000 A 
ATOM     26  C   UNL     1      -0.646  10.175  18.127  0.00  0.00    +0.000 A 
ATOM     27  C   UNL     1      -0.363  10.680  19.394  0.00  0.00    +0.000 A 
ATOM     28  C   UNL     1      -1.245  11.604  19.965  0.00  0.00    +0.000 A 
ATOM     29  C   UNL     1      -2.437  11.980  19.325  0.00  0.00    +0.000 A 
BRANCH  24  31
ATOM     30  C   UNL     1      -4.222  10.969  16.287  0.00  0.00    +0.000 C 
ATOM     31  O   UNL     1      -3.938  11.715  17.471  0.00  0.00    +0.000 OA
ENDBRANCH  24  31
BRANCH  29  32
ATOM     32  O   UNL     1      -3.151  12.876  20.073  0.00  0.00    +0.000 OA
ATOM     33  C   UNL     1      -2.895  12.981  21.462  0.00  0.00    +0.000 C 
ENDBRANCH  29  32
ENDBRANCH  23  27
ENDBRANCH  22  23
ENDBRANCH   1  22
TORSDOF 8
ENDMDL
MODEL 8
REMARK VINA RESULT:      -7.6      1.695      2.145
REMARK  Name = 
REMARK  10 active torsions:
REMARK  status: ('A' for Active; 'I' for Inactive)
REMARK    1  A    between atoms: C_1  and  O_2
REMARK    2  A    between atoms: O_2  and  C_3
REMARK    3  A    between atoms: C_6  and  C_7
REMARK    4  A    between atoms: C_7  and  C_8
REMARK    5  A    between atoms: C_8  and  C_9
REMARK    6  A    between atoms: N_14  and  S_15
REMARK    7  A    between atoms: S_15  and  C_18
REMARK    8  A    between atoms: C_22  and  C_23
REMARK    9  A    between atoms: C_31  and  O_32
REMARK   10  A    between atoms: O_32  and  C_33
REMARK                            x       y       z     vdW  Elec       q    Type
REMARK                         _______ _______ _______ _____ _____    ______ ____
ROOT
ATOM      1  C   UNL     1       2.044   7.629  19.405  0.00  0.00    +0.000 C 
ATOM      2  O   UNL     1       1.985   6.918  20.408  0.00  0.00    +0.000 OA
ATOM      3  N   UNL     1       1.461   8.885  19.359  0.00  0.00    +0.000 N 
ATOM      4  C   UNL     1       0.786   9.401  20.557  0.00  0.00    +0.000 C 
ATOM      5  C   UNL     1       1.119  10.883  20.799  0.00  0.00    +0.000 C 
ATOM      6  N   UNL     1       0.914  11.729  19.576  0.00  0.00    +0.000 NA
ATOM      7  C   UNL     1       1.687  11.159  18.422  0.00  0.00    +0.000 C 
ATOM      8  C   UNL     1       1.293   9.702  18.148  0.00  0.00    +0.000 C 
ENDROOT
BRANCH   6   9
ATOM      9  S   UNL     1      -0.691  12.159  19.187  0.00  0.00    +0.000 S 
ATOM     10  O   UNL     1      -0.645  13.055  18.051  0.00  0.00    +0.000 OA
ATOM     11  O   UNL     1      -1.488  10.958  19.145  0.00  0.00    +0.000 OA
BRANCH   9  12
ATOM     12  C   UNL     1      -1.221  13.128  20.581  0.00  0.00    +0.000 A 
ATOM     13  C   UNL     1      -0.448  14.211  21.009  0.00  0.00    +0.000 A 
ATOM     14  C   UNL     1      -0.803  14.882  22.181  0.00  0.00    +0.000 A 
ATOM     15  C   UNL     1      -1.915  14.471  22.917  0.00  0.00    +0.000 A 
ATOM     16  C   UNL     1      -2.701  13.387  22.488  0.00  0.00    +0.000 A 
ATOM     17  C   UNL     1      -2.342  12.714  21.309  0.00  0.00    +0.000 A 
BRANCH  16  18
ATOM     18  C   UNL     1      -3.901  12.927  23.283  0.00  0.00    +0.000 C 
ATOM     19  F   UNL     1      -4.899  12.412  22.513  0.00  0.00    +0.000 F 
ATOM     20  F   UNL     1      -3.582  11.953  24.180  0.00  0.00    +0.000 F 
ATOM     21  F   UNL     1      -4.466  13.933  24.005  0.00  0.00    +0.000 F 
ENDBRANCH  16  18
ENDBRANCH   9  12
ENDBRANCH   6   9
BRANCH   1  22
ATOM     22  C   UNL     1       2.811   7.197  18.172  0.00  0.00    +0.000 C 
BRANCH  22  23
ATOM     23  C   UNL     1       3.439   5.821  18.359  0.00  0.00    +0.000 C 
BRANCH  23  27
ATOM     24  C   UNL     1       6.697   5.301  15.563  0.00  0.00    +0.000 A 
ATOM     25  C   UNL     1       5.543   4.505  15.479  0.00  0.00    +0.000 A 
ATOM     26  C   UNL     1       4.489   4.666  16.379  0.00  0.00    +0.000 A 
ATOM     27  C   UNL     1       4.581   5.611  17.399  0.00  0.00    +0.000 A 
ATOM     28  C   UNL     1       5.764   6.345  17.534  0.00  0.00    +0.000 A 
ATOM     29  C   UNL     1       6.828   6.203  16.630  0.00  0.00    +0.000 A 
BRANCH  24  31
ATOM     30  C   UNL     1       7.274   4.825  13.321  0.00  0.00    +0.000 C 
ATOM     31  O   UNL     1       7.699   5.196  14.633  0.00  0.00    +0.000 OA
ENDBRANCH  24  31
BRANCH  29  32
ATOM     32  O   UNL     1       7.871   7.031  16.943  0.00  0.00    +0.000 OA
ATOM     33  C   UNL     1       7.611   8.252  17.613  0.00  0.00    +0.000 C 
ENDBRANCH  29  32
ENDBRANCH  23  27
ENDBRANCH  22  23
ENDBRANCH   1  22
TORSDOF 8
ENDMDL
MODEL 9
REMARK VINA RESULT:      -7.6      5.534     10.185
REMARK  Name = 
REMARK  10 active torsions:
REMARK  status: ('A' for Active; 'I' for Inactive)
REMARK    1  A    between atoms: C_1  and  O_2
REMARK    2  A    between atoms: O_2  and  C_3
REMARK    3  A    between atoms: C_6  and  C_7
REMARK    4  A    between atoms: C_7  and  C_8
REMARK    5  A    between atoms: C_8  and  C_9
REMARK    6  A    between atoms: N_14  and  S_15
REMARK    7  A    between atoms: S_15  and  C_18
REMARK    8  A    between atoms: C_22  and  C_23
REMARK    9  A    between atoms: C_31  and  O_32
REMARK   10  A    between atoms: O_32  and  C_33
REMARK                            x       y       z     vdW  Elec       q    Type
REMARK                         _______ _______ _______ _____ _____    ______ ____
ROOT
ATOM      1  C   UNL     1       1.882   7.768  19.801  0.00  0.00    +0.000 C 
ATOM      2  O   UNL     1       1.575   8.179  20.920  0.00  0.00    +0.000 OA
ATOM      3  N   UNL     1       2.096   6.424  19.546  0.00  0.00    +0.000 N 
ATOM      4  C   UNL     1       1.916   5.455  20.634  0.00  0.00    +0.000 C 
ATOM      5  C   UNL     1       1.174   4.195  20.152  0.00  0.00    +0.000 C 
ATOM      6  N   UNL     1       1.780   3.607  18.911  0.00  0.00    +0.000 NA
ATOM      7  C   UNL     1       1.871   4.653  17.838  0.00  0.00    +0.000 C 
ATOM      8  C   UNL     1       2.673   5.873  18.310  0.00  0.00    +0.000 C 
ENDROOT
BRANCH   6   9
ATOM      9  S   UNL     1       3.206   2.688  19.102  0.00  0.00    +0.000 S 
ATOM     10  O   UNL     1       3.620   2.798  20.485  0.00  0.00    +0.000 OA
ATOM     11  O   UNL     1       2.999   1.395  18.497  0.00  0.00    +0.000 OA
BRANCH   9  12
ATOM     12  C   UNL     1       4.411   3.566  18.134  0.00  0.00    +0.000 A 
ATOM     13  C   UNL     1       4.390   3.469  16.741  0.00  0.00    +0.000 A 
ATOM     14  C   UNL     1       5.417   4.055  15.998  0.00  0.00    +0.000 A 
ATOM     15  C   UNL     1       6.455   4.728  16.645  0.00  0.00    +0.000 A 
ATOM     16  C   UNL     1       6.479   4.836  18.047  0.00  0.00    +0.000 A 
ATOM     17  C   UNL     1       5.444   4.245  18.790  0.00  0.00    +0.000 A 
BRANCH  16  18
ATOM     18  C   UNL     1       7.603   5.553  18.757  0.00  0.00    +0.000 C 
ATOM     19  F   UNL     1       8.753   4.827  18.826  0.00  0.00    +0.000 F 
ATOM     20  F   UNL     1       7.936   6.723  18.145  0.00  0.00    +0.000 F 
ATOM     21  F   UNL     1       7.288   5.876  20.041  0.00  0.00    +0.000 F 
ENDBRANCH  16  18
ENDBRANCH   9  12
ENDBRANCH   6   9
BRANCH   1  22
ATOM     22  C   UNL     1       1.986   8.704  18.614  0.00  0.00    +0.000 C 
BRANCH  22  23
ATOM     23  C   UNL     1       0.874   9.746  18.626  0.00  0.00    +0.000 C 
BRANCH  23  27
ATOM     24  C   UNL     1       2.346  13.716  19.509  0.00  0.00    +0.000 A 
ATOM     25  C   UNL     1       2.705  13.064  18.318  0.00  0.00    +0.000 A 
ATOM     26  C   UNL     1       2.236  11.782  18.027  0.00  0.00    +0.000 A 
ATOM     27  C   UNL     1       1.418  11.116  18.938  0.00  0.00    +0.000 A 
ATOM     28  C   UNL     1       1.128  11.731  20.161  0.00  0.00    +0.000 A 
ATOM     29  C   UNL     1       1.583  13.024  20.462  0.00  0.00    +0.000 A 
BRANCH  24  31
ATOM     30  C   UNL     1       4.020  15.132  20.388  0.00  0.00    +0.000 C 
ATOM     31  O   UNL     1       2.745  15.003  19.760  0.00  0.00    +0.000 OA
ENDBRANCH  24  31
BRANCH  29  32
ATOM     32  O   UNL     1       1.165  13.431  21.700  0.00  0.00    +0.000 OA
ATOM     33  C   UNL     1      -0.222  13.549  21.960  0.00  0.00    +0.000 C 
ENDBRANCH  29  32
ENDBRANCH  23  27
ENDBRANCH  22  23
ENDBRANCH   1  22
TORSDOF 8
ENDMDL
