MODEL 1
REMARK VINA RESULT:      -7.9      0.000      0.000
REMARK  Name = 
REMARK  8 active torsions:
REMARK  status: ('A' for Active; 'I' for Inactive)
REMARK    1  A    between atoms: C_1  and  C_2
REMARK    2  A    between atoms: C_2  and  N_3
REMARK    3  A    between atoms: N_3  and  C_4
REMARK    4  A    between atoms: N_7  and  C_8
REMARK    5  A    between atoms: C_15  and  C_16
REMARK    6  A    between atoms: C_16  and  O_18
REMARK    7  A    between atoms: C_20  and  C_21
REMARK    8  A    between atoms: C_25  and  C_26
REMARK                            x       y       z     vdW  Elec       q    Type
REMARK                         _______ _______ _______ _____ _____    ______ ____
ROOT
ATOM      1  C   UNL     1       4.680   5.211  16.992  0.00  0.00    +0.000 A 
ATOM      2  C   UNL     1       4.515   6.625  16.760  0.00  0.00    +0.000 A 
ATOM      3  F   UNL     1       5.174   7.211  15.736  0.00  0.00    +0.000 F 
ATOM      4  C   UNL     1       3.696   7.353  17.519  0.00  0.00    +0.000 A 
ATOM      5  N   UNL     1       2.990   6.859  18.606  0.00  0.00    +0.000 N 
ATOM      6  C   UNL     1       2.192   7.754  19.334  0.00  0.00    +0.000 A 
ATOM      7  O   UNL     1       2.040   8.947  19.057  0.00  0.00    +0.000 OA
ATOM      8  C   UNL     1       1.480   7.217  20.502  0.00  0.00    +0.000 A 
ATOM      9  C   UNL     1       1.686   5.938  20.828  0.00  0.00    +0.000 A 
ATOM     10  C   UNL     1       2.588   5.047  20.101  0.00  0.00    +0.000 A 
ATOM     11  C   UNL     1       3.176   5.491  18.953  0.00  0.00    +0.000 A 
ATOM     12  C   UNL     1       4.014   4.653  18.035  0.00  0.00    +0.000 A 
ATOM     13  C   UNL     1       4.092   3.147  18.117  0.00  0.00    +0.000 C 
ENDROOT
BRANCH   1  17
ATOM     14  C   UNL     1       6.276   3.721  13.978  0.00  0.00    +0.000 C 
ATOM     15  C   UNL     1       7.300   4.653  14.623  0.00  0.00    +0.000 C 
ATOM     16  C   UNL     1       6.937   4.606  16.099  0.00  0.00    +0.000 C 
ATOM     17  N   UNL     1       5.480   4.463  16.123  0.00  0.00    +0.000 N 
ATOM     18  C   UNL     1       5.003   3.982  14.818  0.00  0.00    +0.000 C 
BRANCH  14  19
ATOM     19  N   UNL     1       6.082   3.962  12.542  0.00  0.00    +0.000 NA
ATOM     20  H   UNL     1       5.517   4.800  12.405  0.00  0.00    +0.000 HD
BRANCH  19  22
ATOM     21  C   UNL     1       4.126   3.249  11.261  0.00  0.00    +0.000 C 
ATOM     22  C   UNL     1       5.464   2.831  11.856  0.00  0.00    +0.000 C 
ENDBRANCH  19  22
ENDBRANCH  14  19
ENDBRANCH   1  17
BRANCH  10  23
ATOM     23  C   UNL     1       2.668   3.720  20.760  0.00  0.00    +0.000 C 
ATOM     24  C   UNL     1       1.632   3.258  21.758  0.00  0.00    +0.000 C 
ATOM     25  C   UNL     1       1.642   2.661  20.391  0.00  0.00    +0.000 C 
ENDBRANCH  10  23
BRANCH   8  26
ATOM     26  C   UNL     1       0.560   8.017  21.347  0.00  0.00    +0.000 C 
ATOM     27  O   UNL     1      -0.632   7.764  21.460  0.00  0.00    +0.000 OA
BRANCH  26  28
ATOM     28  O   UNL     1       1.132   9.049  22.000  0.00  0.00    +0.000 OA
ATOM     29  H   UNL     1       1.856   8.788  22.617  0.00  0.00    +0.000 HD
ENDBRANCH  26  28
ENDBRANCH   8  26
TORSDOF 6
ENDMDL
MODEL 2
REMARK VINA RESULT:      -7.3      3.855      7.327
REMARK  Name = 
REMARK  8 active torsions:
REMARK  status: ('A' for Active; 'I' for Inactive)
REMARK    1  A    between atoms: C_1  and  C_2
REMARK    2  A    between atoms: C_2  and  N_3
REMARK    3  A    between atoms: N_3  and  C_4
REMARK    4  A    between atoms: N_7  and  C_8
REMARK    5  A    between atoms: C_15  and  C_16
REMARK    6  A    between atoms: C_16  and  O_18
REMARK    7  A    between atoms: C_20  and  C_21
REMARK    8  A    between atoms: C_25  and  C_26
REMARK                            x       y       z     vdW  Elec       q    Type
REMARK                         _______ _______ _______ _____ _____    ______ ____
ROOT
ATOM      1  C   UNL     1       1.721   8.093  19.520  0.00  0.00    +0.000 A 
ATOM      2  C   UNL     1       1.168   7.267  20.566  0.00  0.00    +0.000 A 
ATOM      3  F   UNL     1       0.189   7.763  21.354  0.00  0.00    +0.000 F 
ATOM      4  C   UNL     1       1.586   6.013  20.742  0.00  0.00    +0.000 A 
ATOM      5  N   UNL     1       2.597   5.413  20.007  0.00  0.00    +0.000 N 
ATOM      6  C   UNL     1       2.953   4.096  20.329  0.00  0.00    +0.000 A 
ATOM      7  O   UNL     1       2.407   3.412  21.200  0.00  0.00    +0.000 OA
ATOM      8  C   UNL     1       4.051   3.492  19.561  0.00  0.00    +0.000 A 
ATOM      9  C   UNL     1       4.673   4.252  18.655  0.00  0.00    +0.000 A 
ATOM     10  C   UNL     1       4.337   5.649  18.394  0.00  0.00    +0.000 A 
ATOM     11  C   UNL     1       3.255   6.198  19.018  0.00  0.00    +0.000 A 
ATOM     12  C   UNL     1       2.712   7.571  18.752  0.00  0.00    +0.000 A 
ATOM     13  C   UNL     1       3.124   8.417  17.571  0.00  0.00    +0.000 C 
ENDROOT
BRANCH   1  17
ATOM     14  C   UNL     1      -0.485  10.969  18.679  0.00  0.00    +0.000 C 
ATOM     15  C   UNL     1      -0.334  10.938  20.198  0.00  0.00    +0.000 C 
ATOM     16  C   UNL     1       1.046  10.333  20.402  0.00  0.00    +0.000 C 
ATOM     17  N   UNL     1       1.200   9.371  19.308  0.00  0.00    +0.000 N 
ATOM     18  C   UNL     1       0.235   9.671  18.241  0.00  0.00    +0.000 C 
BRANCH  14  19
ATOM     19  N   UNL     1      -1.881  11.037  18.226  0.00  0.00    +0.000 NA
ATOM     20  H   UNL     1      -2.509  10.906  19.019  0.00  0.00    +0.000 HD
BRANCH  19  22
ATOM     21  C   UNL     1      -2.666  10.775  15.927  0.00  0.00    +0.000 C 
ATOM     22  C   UNL     1      -2.188  10.062  17.184  0.00  0.00    +0.000 C 
ENDBRANCH  19  22
ENDBRANCH  14  19
ENDBRANCH   1  17
BRANCH  10  23
ATOM     23  C   UNL     1       5.265   6.242  17.399  0.00  0.00    +0.000 C 
ATOM     24  C   UNL     1       6.291   5.410  16.667  0.00  0.00    +0.000 C 
ATOM     25  C   UNL     1       5.083   5.886  15.934  0.00  0.00    +0.000 C 
ENDBRANCH  10  23
BRANCH   8  26
ATOM     26  C   UNL     1       4.516   2.095  19.744  0.00  0.00    +0.000 C 
ATOM     27  O   UNL     1       5.205   1.740  20.691  0.00  0.00    +0.000 OA
BRANCH  26  28
ATOM     28  O   UNL     1       4.116   1.228  18.792  0.00  0.00    +0.000 OA
ATOM     29  H   UNL     1       3.149   1.029  18.806  0.00  0.00    +0.000 HD
ENDBRANCH  26  28
ENDBRANCH   8  26
TORSDOF 6
ENDMDL
MODEL 3
REMARK VINA RESULT:      -7.1      3.879      7.682
REMARK  Name = 
REMARK  8 active torsions:
REMARK  status: ('A' for Active; 'I' for Inactive)
REMARK    1  A    between atoms: C_1  and  C_2
REMARK    2  A    between atoms: C_2  and  N_3
REMARK    3  A    between atoms: N_3  and  C_4
REMARK    4  A    between atoms: N_7  and  C_8
REMARK    5  A    between atoms: C_15  and  C_16
REMARK    6  A    between atoms: C_16  and  O_18
REMARK    7  A    between atoms: C_20  and  C_21
REMARK    8  A    between atoms: C_25  and  C_26
REMARK                            x       y       z     vdW  Elec       q    Type
REMARK                         _______ _______ _______ _____ _____    ______ ____
ROOT
ATOM      1  C   UNL     1       1.475   8.473  19.675  0.00  0.00    +0.000 A 
ATOM      2  C   UNL     1       1.074   7.625  20.771  0.00  0.00    +0.000 A 
ATOM      3  F   UNL     1       0.243   8.115  21.718  0.00  0.00    +0.000 F 
ATOM      4  C   UNL     1       1.482   6.358  20.843  0.00  0.00    +0.000 A 
ATOM      5  N   UNL     1       2.349   5.762  19.939  0.00  0.00    +0.000 N 
ATOM      6  C   UNL     1       2.719   4.428  20.163  0.00  0.00    +0.000 A 
ATOM      7  O   UNL     1       2.299   3.728  21.089  0.00  0.00    +0.000 OA
ATOM      8  C   UNL     1       3.666   3.827  19.214  0.00  0.00    +0.000 A 
ATOM      9  C   UNL     1       4.156   4.603  18.243  0.00  0.00    +0.000 A 
ATOM     10  C   UNL     1       3.819   6.015  18.079  0.00  0.00    +0.000 A 
ATOM     11  C   UNL     1       2.862   6.565  18.882  0.00  0.00    +0.000 A 
ATOM     12  C   UNL     1       2.319   7.956  18.745  0.00  0.00    +0.000 A 
ATOM     13  C   UNL     1       2.561   8.832  17.538  0.00  0.00    +0.000 C 
ENDROOT
BRANCH   1  17
ATOM     14  C   UNL     1      -0.776  11.420  19.368  0.00  0.00    +0.000 C 
ATOM     15  C   UNL     1      -0.264  11.384  20.807  0.00  0.00    +0.000 C 
ATOM     16  C   UNL     1       1.104  10.734  20.677  0.00  0.00    +0.000 C 
ATOM     17  N   UNL     1       0.959   9.768  19.585  0.00  0.00    +0.000 N 
ATOM     18  C   UNL     1      -0.224  10.100  18.779  0.00  0.00    +0.000 C 
BRANCH  14  19
ATOM     19  N   UNL     1      -2.237  11.534  19.264  0.00  0.00    +0.000 NA
ATOM     20  H   UNL     1      -2.681  10.777  19.783  0.00  0.00    +0.000 HD
BRANCH  19  22
ATOM     21  C   UNL     1      -3.796  10.481  17.705  0.00  0.00    +0.000 C 
ATOM     22  C   UNL     1      -2.710  11.532  17.883  0.00  0.00    +0.000 C 
ENDBRANCH  19  22
ENDBRANCH  14  19
ENDBRANCH   1  17
BRANCH  10  23
ATOM     23  C   UNL     1       4.592   6.621  16.967  0.00  0.00    +0.000 C 
ATOM     24  C   UNL     1       6.083   6.419  16.827  0.00  0.00    +0.000 C 
ATOM     25  C   UNL     1       5.161   5.708  15.895  0.00  0.00    +0.000 C 
ENDBRANCH  10  23
BRANCH   8  26
ATOM     26  C   UNL     1       4.119   2.416  19.281  0.00  0.00    +0.000 C 
ATOM     27  O   UNL     1       3.553   1.505  18.690  0.00  0.00    +0.000 OA
BRANCH  26  28
ATOM     28  O   UNL     1       5.214   2.200  20.036  0.00  0.00    +0.000 OA
ATOM     29  H   UNL     1       5.050   2.237  21.009  0.00  0.00    +0.000 HD
ENDBRANCH  26  28
ENDBRANCH   8  26
TORSDOF 6
ENDMDL
MODEL 4
REMARK VINA RESULT:      -7.1      3.650      7.919
REMARK  Name = 
REMARK  8 active torsions:
REMARK  status: ('A' for Active; 'I' for Inactive)
REMARK    1  A    between atoms: C_1  and  C_2
REMARK    2  A    between atoms: C_2  and  N_3
REMARK    3  A    between atoms: N_3  and  C_4
REMARK    4  A    between atoms: N_7  and  C_8
REMARK    5  A    between atoms: C_15  and  C_16
REMARK    6  A    between atoms: C_16  and  O_18
REMARK    7  A    between atoms: C_20  and  C_21
REMARK    8  A    between atoms: C_25  and  C_26
REMARK                            x       y       z     vdW  Elec       q    Type
REMARK                         _______ _______ _______ _____ _____    ______ ____
ROOT
ATOM      1  C   UNL     1       1.343   9.011  19.405  0.00  0.00    +0.000 A 
ATOM      2  C   UNL     1       2.000   9.334  18.162  0.00  0.00    +0.000 A 
ATOM      3  F   UNL     1       1.726  10.510  17.554  0.00  0.00    +0.000 F 
ATOM      4  C   UNL     1       2.895   8.506  17.624  0.00  0.00    +0.000 A 
ATOM      5  N   UNL     1       3.234   7.269  18.151  0.00  0.00    +0.000 N 
ATOM      6  C   UNL     1       4.169   6.489  17.455  0.00  0.00    +0.000 A 
ATOM      7  O   UNL     1       4.746   6.840  16.421  0.00  0.00    +0.000 OA
ATOM      8  C   UNL     1       4.487   5.168  18.012  0.00  0.00    +0.000 A 
ATOM      9  C   UNL     1       3.824   4.772  19.103  0.00  0.00    +0.000 A 
ATOM     10  C   UNL     1       2.793   5.569  19.764  0.00  0.00    +0.000 A 
ATOM     11  C   UNL     1       2.557   6.840  19.328  0.00  0.00    +0.000 A 
ATOM     12  C   UNL     1       1.630   7.817  19.987  0.00  0.00    +0.000 A 
ATOM     13  C   UNL     1       1.047   7.617  21.365  0.00  0.00    +0.000 C 
ENDROOT
BRANCH   1  17
ATOM     14  C   UNL     1      -0.221  12.127  20.705  0.00  0.00    +0.000 C 
ATOM     15  C   UNL     1      -0.988  11.721  19.448  0.00  0.00    +0.000 C 
ATOM     16  C   UNL     1      -0.853  10.207  19.428  0.00  0.00    +0.000 C 
ATOM     17  N   UNL     1       0.475   9.940  19.984  0.00  0.00    +0.000 N 
ATOM     18  C   UNL     1       0.949  11.115  20.729  0.00  0.00    +0.000 C 
BRANCH  14  19
ATOM     19  N   UNL     1       0.224  13.527  20.698  0.00  0.00    +0.000 NA
ATOM     20  H   UNL     1       1.172  13.587  20.329  0.00  0.00    +0.000 HD
BRANCH  19  22
ATOM     21  C   UNL     1      -0.974  13.545  22.828  0.00  0.00    +0.000 C 
ATOM     22  C   UNL     1       0.165  14.147  22.018  0.00  0.00    +0.000 C 
ENDBRANCH  19  22
ENDBRANCH  14  19
ENDBRANCH   1  17
BRANCH  10  23
ATOM     23  C   UNL     1       2.183   4.820  20.890  0.00  0.00    +0.000 C 
ATOM     24  C   UNL     1       1.057   3.836  20.680  0.00  0.00    +0.000 C 
ATOM     25  C   UNL     1       2.424   3.323  20.983  0.00  0.00    +0.000 C 
ENDBRANCH  10  23
BRANCH   8  26
ATOM     26  C   UNL     1       5.488   4.243  17.425  0.00  0.00    +0.000 C 
ATOM     27  O   UNL     1       5.323   3.672  16.356  0.00  0.00    +0.000 OA
BRANCH  26  28
ATOM     28  O   UNL     1       6.612   4.080  18.152  0.00  0.00    +0.000 OA
ATOM     29  H   UNL     1       6.622   3.262  18.704  0.00  0.00    +0.000 HD
ENDBRANCH  26  28
ENDBRANCH   8  26
TORSDOF 6
ENDMDL
MODEL 5
REMARK VINA RESULT:      -7.1      3.740      7.617
REMARK  Name = 
REMARK  8 active torsions:
REMARK  status: ('A' for Active; 'I' for Inactive)
REMARK    1  A    between atoms: C_1  and  C_2
REMARK    2  A    between atoms: C_2  and  N_3
REMARK    3  A    between atoms: N_3  and  C_4
REMARK    4  A    between atoms: N_7  and  C_8
REMARK    5  A    between atoms: C_15  and  C_16
REMARK    6  A    between atoms: C_16  and  O_18
REMARK    7  A    between atoms: C_20  and  C_21
REMARK    8  A    between atoms: C_25  and  C_26
REMARK                            x       y       z     vdW  Elec       q    Type
REMARK                         _______ _______ _______ _____ _____    ______ ____
ROOT
ATOM      1  C   UNL     1       1.357   9.088  19.365  0.00  0.00    +0.000 A 
ATOM      2  C   UNL     1       2.032   9.396  18.128  0.00  0.00    +0.000 A 
ATOM      3  F   UNL     1       1.783  10.573  17.512  0.00  0.00    +0.000 F 
ATOM      4  C   UNL     1       2.921   8.552  17.604  0.00  0.00    +0.000 A 
ATOM      5  N   UNL     1       3.235   7.312  18.141  0.00  0.00    +0.000 N 
ATOM      6  C   UNL     1       4.167   6.516  17.459  0.00  0.00    +0.000 A 
ATOM      7  O   UNL     1       4.760   6.853  16.430  0.00  0.00    +0.000 OA
ATOM      8  C   UNL     1       4.458   5.192  18.025  0.00  0.00    +0.000 A 
ATOM      9  C   UNL     1       3.777   4.812  19.110  0.00  0.00    +0.000 A 
ATOM     10  C   UNL     1       2.750   5.626  19.755  0.00  0.00    +0.000 A 
ATOM     11  C   UNL     1       2.539   6.899  19.312  0.00  0.00    +0.000 A 
ATOM     12  C   UNL     1       1.619   7.893  19.955  0.00  0.00    +0.000 A 
ATOM     13  C   UNL     1       1.017   7.708  21.327  0.00  0.00    +0.000 C 
ENDROOT
BRANCH   1  17
ATOM     14  C   UNL     1      -0.215  12.245  20.555  0.00  0.00    +0.000 C 
ATOM     15  C   UNL     1      -1.030  11.750  19.362  0.00  0.00    +0.000 C 
ATOM     16  C   UNL     1      -0.863  10.240  19.423  0.00  0.00    +0.000 C 
ATOM     17  N   UNL     1       0.496  10.033  19.930  0.00  0.00    +0.000 N 
ATOM     18  C   UNL     1       0.978  11.259  20.582  0.00  0.00    +0.000 C 
BRANCH  14  19
ATOM     19  N   UNL     1       0.198  13.650  20.446  0.00  0.00    +0.000 NA
ATOM     20  H   UNL     1      -0.454  14.157  19.847  0.00  0.00    +0.000 HD
BRANCH  19  22
ATOM     21  C   UNL     1       1.589  14.854  18.837  0.00  0.00    +0.000 C 
ATOM     22  C   UNL     1       1.558  13.804  19.939  0.00  0.00    +0.000 C 
ENDBRANCH  19  22
ENDBRANCH  14  19
ENDBRANCH   1  17
BRANCH  10  23
ATOM     23  C   UNL     1       2.117   4.892  20.878  0.00  0.00    +0.000 C 
ATOM     24  C   UNL     1       1.007   3.892  20.654  0.00  0.00    +0.000 C 
ATOM     25  C   UNL     1       2.370   3.399  21.005  0.00  0.00    +0.000 C 
ENDBRANCH  10  23
BRANCH   8  26
ATOM     26  C   UNL     1       5.453   4.251  17.454  0.00  0.00    +0.000 C 
ATOM     27  O   UNL     1       5.286   3.669  16.390  0.00  0.00    +0.000 OA
BRANCH  26  28
ATOM     28  O   UNL     1       6.571   4.083  18.189  0.00  0.00    +0.000 OA
ATOM     29  H   UNL     1       6.582   4.593  19.033  0.00  0.00    +0.000 HD
ENDBRANCH  26  28
ENDBRANCH   8  26
TORSDOF 6
ENDMDL
MODEL 6
REMARK VINA RESULT:      -7.0      3.971      8.195
REMARK  Name = 
REMARK  8 active torsions:
REMARK  status: ('A' for Active; 'I' for Inactive)
REMARK    1  A    between atoms: C_1  and  C_2
REMARK    2  A    between atoms: C_2  and  N_3
REMARK    3  A    between atoms: N_3  and  C_4
REMARK    4  A    between atoms: N_7  and  C_8
REMARK    5  A    between atoms: C_15  and  C_16
REMARK    6  A    between atoms: C_16  and  O_18
REMARK    7  A    between atoms: C_20  and  C_21
REMARK    8  A    between atoms: C_25  and  C_26
REMARK                            x       y       z     vdW  Elec       q    Type
REMARK                         _______ _______ _______ _____ _____    ______ ____
ROOT
ATOM      1  C   UNL     1       1.292   8.794  19.812  0.00  0.00    +0.000 A 
ATOM      2  C   UNL     1       0.913   7.956  20.923  0.00  0.00    +0.000 A 
ATOM      3  F   UNL     1       0.095   8.452  21.878  0.00  0.00    +0.000 F 
ATOM      4  C   UNL     1       1.329   6.693  21.003  0.00  0.00    +0.000 A 
ATOM      5  N   UNL     1       2.185   6.091  20.092  0.00  0.00    +0.000 N 
ATOM      6  C   UNL     1       2.567   4.762  20.325  0.00  0.00    +0.000 A 
ATOM      7  O   UNL     1       2.165   4.069  21.265  0.00  0.00    +0.000 OA
ATOM      8  C   UNL     1       3.502   4.156  19.367  0.00  0.00    +0.000 A 
ATOM      9  C   UNL     1       3.972   4.924  18.380  0.00  0.00    +0.000 A 
ATOM     10  C   UNL     1       3.624   6.332  18.206  0.00  0.00    +0.000 A 
ATOM     11  C   UNL     1       2.677   6.886  19.018  0.00  0.00    +0.000 A 
ATOM     12  C   UNL     1       2.124   8.272  18.874  0.00  0.00    +0.000 A 
ATOM     13  C   UNL     1       2.342   9.136  17.655  0.00  0.00    +0.000 C 
ENDROOT
BRANCH   1  17
ATOM     14  C   UNL     1      -0.982  11.736  19.667  0.00  0.00    +0.000 C 
ATOM     15  C   UNL     1      -0.245  11.794  21.004  0.00  0.00    +0.000 C 
ATOM     16  C   UNL     1       1.086  11.123  20.701  0.00  0.00    +0.000 C 
ATOM     17  N   UNL     1       0.768  10.086  19.717  0.00  0.00    +0.000 N 
ATOM     18  C   UNL     1      -0.531  10.373  19.090  0.00  0.00    +0.000 C 
BRANCH  14  19
ATOM     19  N   UNL     1      -2.440  11.859  19.792  0.00  0.00    +0.000 NA
ATOM     20  H   UNL     1      -2.863  11.917  18.866  0.00  0.00    +0.000 HD
BRANCH  19  22
ATOM     21  C   UNL     1      -4.311  12.876  20.992  0.00  0.00    +0.000 C 
ATOM     22  C   UNL     1      -2.847  13.007  20.596  0.00  0.00    +0.000 C 
ENDBRANCH  19  22
ENDBRANCH  14  19
ENDBRANCH   1  17
BRANCH  10  23
ATOM     23  C   UNL     1       4.376   6.930  17.076  0.00  0.00    +0.000 C 
ATOM     24  C   UNL     1       5.884   6.873  16.999  0.00  0.00    +0.000 C 
ATOM     25  C   UNL     1       5.076   6.003  16.097  0.00  0.00    +0.000 C 
ENDBRANCH  10  23
BRANCH   8  26
ATOM     26  C   UNL     1       3.964   2.748  19.442  0.00  0.00    +0.000 C 
ATOM     27  O   UNL     1       3.270   1.799  19.101  0.00  0.00    +0.000 OA
BRANCH  26  28
ATOM     28  O   UNL     1       5.218   2.580  19.908  0.00  0.00    +0.000 OA
ATOM     29  H   UNL     1       5.697   3.422  20.095  0.00  0.00    +0.000 HD
ENDBRANCH  26  28
ENDBRANCH   8  26
TORSDOF 6
ENDMDL
MODEL 7
REMARK VINA RESULT:      -6.9      3.133      5.783
REMARK  Name = 
REMARK  8 active torsions:
REMARK  status: ('A' for Active; 'I' for Inactive)
REMARK    1  A    between atoms: C_1  and  C_2
REMARK    2  A    between atoms: C_2  and  N_3
REMARK    3  A    between atoms: N_3  and  C_4
REMARK    4  A    between atoms: N_7  and  C_8
REMARK    5  A    between atoms: C_15  and  C_16
REMARK    6  A    between atoms: C_16  and  O_18
REMARK    7  A    between atoms: C_20  and  C_21
REMARK    8  A    between atoms: C_25  and  C_26
REMARK                            x       y       z     vdW  Elec       q    Type
REMARK                         _______ _______ _______ _____ _____    ______ ____
ROOT
ATOM      1  C   UNL     1       2.076   7.152  19.358  0.00  0.00    +0.000 A 
ATOM      2  C   UNL     1       1.607   6.675  20.636  0.00  0.00    +0.000 A 
ATOM      3  F   UNL     1       1.814   5.384  20.978  0.00  0.00    +0.000 F 
ATOM      4  C   UNL     1       1.004   7.496  21.495  0.00  0.00    +0.000 A 
ATOM      5  N   UNL     1       0.723   8.830  21.238  0.00  0.00    +0.000 N 
ATOM      6  C   UNL     1       0.050   9.564  22.226  0.00  0.00    +0.000 A 
ATOM      7  O   UNL     1      -0.280   9.120  23.329  0.00  0.00    +0.000 OA
ATOM      8  C   UNL     1      -0.269  10.964  21.918  0.00  0.00    +0.000 A 
ATOM      9  C   UNL     1       0.045  11.426  20.704  0.00  0.00    +0.000 A 
ATOM     10  C   UNL     1       0.671  10.618  19.661  0.00  0.00    +0.000 A 
ATOM     11  C   UNL     1       1.073   9.348  19.959  0.00  0.00    +0.000 A 
ATOM     12  C   UNL     1       1.843   8.451  19.037  0.00  0.00    +0.000 A 
ATOM     13  C   UNL     1       2.509   8.929  17.769  0.00  0.00    +0.000 C 
ENDROOT
BRANCH   1  17
ATOM     14  C   UNL     1       4.518   4.720  17.954  0.00  0.00    +0.000 C 
ATOM     15  C   UNL     1       3.188   3.988  18.118  0.00  0.00    +0.000 C 
ATOM     16  C   UNL     1       2.156   5.090  17.943  0.00  0.00    +0.000 C 
ATOM     17  N   UNL     1       2.780   6.284  18.518  0.00  0.00    +0.000 N 
ATOM     18  C   UNL     1       4.234   6.091  18.613  0.00  0.00    +0.000 C 
BRANCH  14  19
ATOM     19  N   UNL     1       5.659   4.014  18.554  0.00  0.00    +0.000 NA
ATOM     20  H   UNL     1       5.505   3.898  19.555  0.00  0.00    +0.000 HD
BRANCH  19  22
ATOM     21  C   UNL     1       7.314   4.596  16.853  0.00  0.00    +0.000 C 
ATOM     22  C   UNL     1       6.931   4.692  18.323  0.00  0.00    +0.000 C 
ENDBRANCH  19  22
ENDBRANCH  14  19
ENDBRANCH   1  17
BRANCH  10  23
ATOM     23  C   UNL     1       0.809  11.389  18.401  0.00  0.00    +0.000 C 
ATOM     24  C   UNL     1       0.528  12.872  18.337  0.00  0.00    +0.000 C 
ATOM     25  C   UNL     1       1.940  12.396  18.285  0.00  0.00    +0.000 C 
ENDBRANCH  10  23
BRANCH   8  26
ATOM     26  C   UNL     1      -0.931  11.889  22.871  0.00  0.00    +0.000 C 
ATOM     27  O   UNL     1      -0.459  12.973  23.187  0.00  0.00    +0.000 OA
BRANCH  26  28
ATOM     28  O   UNL     1      -2.108  11.455  23.367  0.00  0.00    +0.000 OA
ATOM     29  H   UNL     1      -2.833  11.398  22.699  0.00  0.00    +0.000 HD
ENDBRANCH  26  28
ENDBRANCH   8  26
TORSDOF 6
ENDMDL
MODEL 8
REMARK VINA RESULT:      -6.9      3.225      7.747
REMARK  Name = 
REMARK  8 active torsions:
REMARK  status: ('A' for Active; 'I' for Inactive)
REMARK    1  A    between atoms: C_1  and  C_2
REMARK    2  A    between atoms: C_2  and  N_3
REMARK    3  A    between atoms: N_3  and  C_4
REMARK    4  A    between atoms: N_7  and  C_8
REMARK    5  A    between atoms: C_15  and  C_16
REMARK    6  A    between atoms: C_16  and  O_18
REMARK    7  A    between atoms: C_20  and  C_21
REMARK    8  A    between atoms: C_25  and  C_26
REMARK                            x       y       z     vdW  Elec       q    Type
REMARK                         _______ _______ _______ _____ _____    ______ ____
ROOT
ATOM      1  C   UNL     1       2.089   7.146  19.816  0.00  0.00    +0.000 A 
ATOM      2  C   UNL     1       2.421   8.088  18.776  0.00  0.00    +0.000 A 
ATOM      3  F   UNL     1       1.897   9.333  18.816  0.00  0.00    +0.000 F 
ATOM      4  C   UNL     1       3.263   7.759  17.796  0.00  0.00    +0.000 A 
ATOM      5  N   UNL     1       3.841   6.507  17.647  0.00  0.00    +0.000 N 
ATOM      6  C   UNL     1       4.682   6.296  16.544  0.00  0.00    +0.000 A 
ATOM      7  O   UNL     1       4.979   7.158  15.712  0.00  0.00    +0.000 OA
ATOM      8  C   UNL     1       5.254   4.953  16.386  0.00  0.00    +0.000 A 
ATOM      9  C   UNL     1       4.891   4.010  17.261  0.00  0.00    +0.000 A 
ATOM     10  C   UNL     1       3.947   4.233  18.353  0.00  0.00    +0.000 A 
ATOM     11  C   UNL     1       3.486   5.496  18.584  0.00  0.00    +0.000 A 
ATOM     12  C   UNL     1       2.623   5.899  19.742  0.00  0.00    +0.000 A 
ATOM     13  C   UNL     1       2.378   5.022  20.946  0.00  0.00    +0.000 C 
ENDROOT
BRANCH   1  17
ATOM     14  C   UNL     1       0.334   9.128  22.432  0.00  0.00    +0.000 C 
ATOM     15  C   UNL     1      -0.692   8.781  21.355  0.00  0.00    +0.000 C 
ATOM     16  C   UNL     1      -0.189   7.458  20.801  0.00  0.00    +0.000 C 
ATOM     17  N   UNL     1       1.271   7.552  20.873  0.00  0.00    +0.000 N 
ATOM     18  C   UNL     1       1.657   8.612  21.816  0.00  0.00    +0.000 C 
BRANCH  14  19
ATOM     19  N   UNL     1       0.372  10.556  22.774  0.00  0.00    +0.000 NA
ATOM     20  H   UNL     1       0.956  10.699  23.597  0.00  0.00    +0.000 HD
BRANCH  19  22
ATOM     21  C   UNL     1      -1.037  12.518  22.407  0.00  0.00    +0.000 C 
ATOM     22  C   UNL     1      -0.955  11.120  23.002  0.00  0.00    +0.000 C 
ENDBRANCH  19  22
ENDBRANCH  14  19
ENDBRANCH   1  17
BRANCH  10  23
ATOM     23  C   UNL     1       3.681   2.973  19.091  0.00  0.00    +0.000 C 
ATOM     24  C   UNL     1       2.361   2.247  18.983  0.00  0.00    +0.000 C 
ATOM     25  C   UNL     1       3.560   1.680  18.302  0.00  0.00    +0.000 C 
ENDBRANCH  10  23
BRANCH   8  26
ATOM     26  C   UNL     1       6.199   4.580  15.305  0.00  0.00    +0.000 C 
ATOM     27  O   UNL     1       5.999   3.650  14.535  0.00  0.00    +0.000 OA
BRANCH  26  28
ATOM     28  O   UNL     1       7.303   5.349  15.218  0.00  0.00    +0.000 OA
ATOM     29  H   UNL     1       7.129   6.279  14.939  0.00  0.00    +0.000 HD
ENDBRANCH  26  28
ENDBRANCH   8  26
TORSDOF 6
ENDMDL
MODEL 9
REMARK VINA RESULT:      -6.8      3.508      6.043
REMARK  Name = 
REMARK  8 active torsions:
REMARK  status: ('A' for Active; 'I' for Inactive)
REMARK    1  A    between atoms: C_1  and  C_2
REMARK    2  A    between atoms: C_2  and  N_3
REMARK    3  A    between atoms: N_3  and  C_4
REMARK    4  A    between atoms: N_7  and  C_8
REMARK    5  A    between atoms: C_15  and  C_16
REMARK    6  A    between atoms: C_16  and  O_18
REMARK    7  A    between atoms: C_20  and  C_21
REMARK    8  A    between atoms: C_25  and  C_26
REMARK                            x       y       z     vdW  Elec       q    Type
REMARK                         _______ _______ _______ _____ _____    ______ ____
ROOT
ATOM      1  C   UNL     1       2.071   7.111  19.502  0.00  0.00    +0.000 A 
ATOM      2  C   UNL     1       1.516   6.667  20.758  0.00  0.00    +0.000 A 
ATOM      3  F   UNL     1       1.655   5.374  21.125  0.00  0.00    +0.000 F 
ATOM      4  C   UNL     1       0.899   7.521  21.574  0.00  0.00    +0.000 A 
ATOM      5  N   UNL     1       0.682   8.861  21.288  0.00  0.00    +0.000 N 
ATOM      6  C   UNL     1      -0.014   9.632  22.230  0.00  0.00    +0.000 A 
ATOM      7  O   UNL     1      -0.419   9.214  23.319  0.00  0.00    +0.000 OA
ATOM      8  C   UNL     1      -0.263  11.039  21.891  0.00  0.00    +0.000 A 
ATOM      9  C   UNL     1       0.132  11.474  20.691  0.00  0.00    +0.000 A 
ATOM     10  C   UNL     1       0.783  10.629  19.692  0.00  0.00    +0.000 A 
ATOM     11  C   UNL     1       1.120   9.350  20.025  0.00  0.00    +0.000 A 
ATOM     12  C   UNL     1       1.905   8.413  19.156  0.00  0.00    +0.000 A 
ATOM     13  C   UNL     1       2.655   8.851  17.921  0.00  0.00    +0.000 C 
ENDROOT
BRANCH   1  17
ATOM     14  C   UNL     1       4.274   4.362  18.302  0.00  0.00    +0.000 C 
ATOM     15  C   UNL     1       2.831   3.940  18.036  0.00  0.00    +0.000 C 
ATOM     16  C   UNL     1       2.112   5.261  17.818  0.00  0.00    +0.000 C 
ATOM     17  N   UNL     1       2.785   6.207  18.711  0.00  0.00    +0.000 N 
ATOM     18  C   UNL     1       4.101   5.677  19.100  0.00  0.00    +0.000 C 
BRANCH  14  19
ATOM     19  N   UNL     1       5.063   3.350  19.019  0.00  0.00    +0.000 NA
ATOM     20  H   UNL     1       5.843   3.044  18.437  0.00  0.00    +0.000 HD
BRANCH  19  22
ATOM     21  C   UNL     1       3.843   2.346  20.883  0.00  0.00    +0.000 C 
ATOM     22  C   UNL     1       4.267   2.197  19.428  0.00  0.00    +0.000 C 
ENDBRANCH  19  22
ENDBRANCH  14  19
ENDBRANCH   1  17
BRANCH  10  23
ATOM     23  C   UNL     1       1.017  11.379  18.433  0.00  0.00    +0.000 C 
ATOM     24  C   UNL     1       0.882  12.882  18.361  0.00  0.00    +0.000 C 
ATOM     25  C   UNL     1       2.242  12.272  18.336  0.00  0.00    +0.000 C 
ENDBRANCH  10  23
BRANCH   8  26
ATOM     26  C   UNL     1      -0.941  11.999  22.797  0.00  0.00    +0.000 C 
ATOM     27  O   UNL     1      -0.416  13.035  23.185  0.00  0.00    +0.000 OA
BRANCH  26  28
ATOM     28  O   UNL     1      -2.192  11.657  23.164  0.00  0.00    +0.000 OA
ATOM     29  H   UNL     1      -2.379  11.772  24.126  0.00  0.00    +0.000 HD
ENDBRANCH  26  28
ENDBRANCH   8  26
TORSDOF 6
ENDMDL
