MODEL 1
REMARK VINA RESULT:      -8.7      0.000      0.000
REMARK  Name = 
REMARK  3 active torsions:
REMARK  status: ('A' for Active; 'I' for Inactive)
REMARK    1  A    between atoms: C_1  and  C_2
REMARK    2  A    between atoms: C_8  and  C_9
REMARK    3  A    between atoms: C_21  and  C_22
REMARK                            x       y       z     vdW  Elec       q    Type
REMARK                         _______ _______ _______ _____ _____    ______ ____
ROOT
ATOM      1  C   UNL     1       8.339   5.527  12.180  0.00  0.00    +0.000 C 
ATOM      2  C   UNL     1       7.547   5.223  13.401  0.00  0.00    +0.000 A 
ATOM      3  N   UNL     1       7.882   5.826  14.548  0.00  0.00    +0.000 NA
ATOM      4  N   UNL     1       7.004   5.333  15.453  0.00  0.00    +0.000 N 
ATOM      5  C   UNL     1       7.010   5.714  16.808  0.00  0.00    +0.000 A 
ATOM      6  O   UNL     1       7.836   6.492  17.272  0.00  0.00    +0.000 OA
ATOM      7  C   UNL     1       5.924   5.101  17.612  0.00  0.00    +0.000 A 
ATOM      8  C   UNL     1       5.063   4.259  17.013  0.00  0.00    +0.000 A 
ATOM      9  N   UNL     1       5.149   3.912  15.681  0.00  0.00    +0.000 N 
ATOM     10  C   UNL     1       6.107   4.442  14.881  0.00  0.00    +0.000 A 
ATOM     11  C   UNL     1       6.444   4.326  13.552  0.00  0.00    +0.000 A 
ATOM     12  H   UNL     1       4.420   3.296  15.329  0.00  0.00    +0.000 HD
ENDROOT
BRANCH   8  13
ATOM     13  C   UNL     1       3.962   3.700  17.800  0.00  0.00    +0.000 A 
ATOM     14  C   UNL     1       2.659   3.714  17.282  0.00  0.00    +0.000 A 
ATOM     15  C   UNL     1       1.580   3.348  18.089  0.00  0.00    +0.000 A 
ATOM     16  C   UNL     1       1.801   2.980  19.414  0.00  0.00    +0.000 A 
ATOM     17  C   UNL     1       3.105   2.884  19.900  0.00  0.00    +0.000 A 
ATOM     18  C   UNL     1       4.189   3.234  19.099  0.00  0.00    +0.000 A 
ATOM     19  O   UNL     1       3.378   2.483  21.180  0.00  0.00    +0.000 OA
ATOM     20  C   UNL     1       2.357   2.987  22.037  0.00  0.00    +0.000 C 
ATOM     21  C   UNL     1       0.966   2.567  21.575  0.00  0.00    +0.000 C 
ATOM     22  O   UNL     1       0.692   2.784  20.187  0.00  0.00    +0.000 OA
ENDBRANCH   8  13
BRANCH  11  23
ATOM     23  C   UNL     1       5.787   3.459  12.580  0.00  0.00    +0.000 A 
ATOM     24  C   UNL     1       4.511   3.779  12.096  0.00  0.00    +0.000 A 
ATOM     25  C   UNL     1       3.906   3.008  11.100  0.00  0.00    +0.000 A 
ATOM     26  C   UNL     1       4.556   1.885  10.598  0.00  0.00    +0.000 A 
ATOM     27  C   UNL     1       5.810   1.532  11.092  0.00  0.00    +0.000 A 
ATOM     28  C   UNL     1       6.427   2.320  12.068  0.00  0.00    +0.000 A 
ENDBRANCH  11  23
TORSDOF 2
ENDMDL
MODEL 2
REMARK VINA RESULT:      -7.9      4.741      6.855
REMARK  Name = 
REMARK  3 active torsions:
REMARK  status: ('A' for Active; 'I' for Inactive)
REMARK    1  A    between atoms: C_1  and  C_2
REMARK    2  A    between atoms: C_8  and  C_9
REMARK    3  A    between atoms: C_21  and  C_22
REMARK                            x       y       z     vdW  Elec       q    Type
REMARK                         _______ _______ _______ _____ _____    ______ ____
ROOT
ATOM      1  C   UNL     1       4.410   1.097  18.041  0.00  0.00    +0.000 C 
ATOM      2  C   UNL     1       3.765   2.330  18.561  0.00  0.00    +0.000 A 
ATOM      3  N   UNL     1       2.797   2.209  19.478  0.00  0.00    +0.000 NA
ATOM      4  N   UNL     1       2.410   3.482  19.725  0.00  0.00    +0.000 N 
ATOM      5  C   UNL     1       1.394   3.807  20.645  0.00  0.00    +0.000 A 
ATOM      6  O   UNL     1       0.763   2.954  21.260  0.00  0.00    +0.000 OA
ATOM      7  C   UNL     1       1.171   5.264  20.808  0.00  0.00    +0.000 A 
ATOM      8  C   UNL     1       1.914   6.124  20.089  0.00  0.00    +0.000 A 
ATOM      9  N   UNL     1       2.869   5.719  19.181  0.00  0.00    +0.000 N 
ATOM     10  C   UNL     1       3.139   4.404  18.988  0.00  0.00    +0.000 A 
ATOM     11  C   UNL     1       4.014   3.692  18.201  0.00  0.00    +0.000 A 
ATOM     12  H   UNL     1       3.396   6.460  18.724  0.00  0.00    +0.000 HD
ENDROOT
BRANCH   8  13
ATOM     13  C   UNL     1       1.724   7.561  20.295  0.00  0.00    +0.000 A 
ATOM     14  C   UNL     1       1.536   8.058  21.593  0.00  0.00    +0.000 A 
ATOM     15  C   UNL     1       1.181   9.395  21.786  0.00  0.00    +0.000 A 
ATOM     16  C   UNL     1       1.002  10.229  20.685  0.00  0.00    +0.000 A 
ATOM     17  C   UNL     1       1.275   9.754  19.402  0.00  0.00    +0.000 A 
ATOM     18  C   UNL     1       1.643   8.426  19.200  0.00  0.00    +0.000 A 
ATOM     19  O   UNL     1       1.160  10.546  18.292  0.00  0.00    +0.000 OA
ATOM     20  C   UNL     1       0.057  11.430  18.482  0.00  0.00    +0.000 C 
ATOM     21  C   UNL     1       0.190  12.238  19.767  0.00  0.00    +0.000 C 
ATOM     22  O   UNL     1       0.507  11.477  20.937  0.00  0.00    +0.000 OA
ENDBRANCH   8  13
BRANCH  11  23
ATOM     23  C   UNL     1       4.947   4.261  17.235  0.00  0.00    +0.000 A 
ATOM     24  C   UNL     1       6.141   4.853  17.670  0.00  0.00    +0.000 A 
ATOM     25  C   UNL     1       7.086   5.322  16.754  0.00  0.00    +0.000 A 
ATOM     26  C   UNL     1       6.834   5.238  15.389  0.00  0.00    +0.000 A 
ATOM     27  C   UNL     1       5.637   4.684  14.939  0.00  0.00    +0.000 A 
ATOM     28  C   UNL     1       4.705   4.188  15.856  0.00  0.00    +0.000 A 
ENDBRANCH  11  23
TORSDOF 2
ENDMDL
MODEL 3
REMARK VINA RESULT:      -7.5      7.755      9.939
REMARK  Name = 
REMARK  3 active torsions:
REMARK  status: ('A' for Active; 'I' for Inactive)
REMARK    1  A    between atoms: C_1  and  C_2
REMARK    2  A    between atoms: C_8  and  C_9
REMARK    3  A    between atoms: C_21  and  C_22
REMARK                            x       y       z     vdW  Elec       q    Type
REMARK                         _______ _______ _______ _____ _____    ______ ____
ROOT
ATOM      1  C   UNL     1      -4.084  13.017  20.129  0.00  0.00    +0.000 C 
ATOM      2  C   UNL     1      -2.868  12.164  20.113  0.00  0.00    +0.000 A 
ATOM      3  N   UNL     1      -2.096  12.128  21.207  0.00  0.00    +0.000 NA
ATOM      4  N   UNL     1      -1.082  11.297  20.872  0.00  0.00    +0.000 N 
ATOM      5  C   UNL     1      -0.031  10.980  21.755  0.00  0.00    +0.000 A 
ATOM      6  O   UNL     1       0.057  11.465  22.878  0.00  0.00    +0.000 OA
ATOM      7  C   UNL     1       0.942  10.004  21.208  0.00  0.00    +0.000 A 
ATOM      8  C   UNL     1       0.762   9.526  19.964  0.00  0.00    +0.000 A 
ATOM      9  N   UNL     1      -0.281   9.916  19.150  0.00  0.00    +0.000 N 
ATOM     10  C   UNL     1      -1.218  10.795  19.586  0.00  0.00    +0.000 A 
ATOM     11  C   UNL     1      -2.355  11.355  19.051  0.00  0.00    +0.000 A 
ATOM     12  H   UNL     1      -0.338   9.459  18.243  0.00  0.00    +0.000 HD
ENDROOT
BRANCH   8  13
ATOM     13  C   UNL     1       1.697   8.522  19.453  0.00  0.00    +0.000 A 
ATOM     14  C   UNL     1       2.270   8.688  18.184  0.00  0.00    +0.000 A 
ATOM     15  C   UNL     1       3.021   7.659  17.614  0.00  0.00    +0.000 A 
ATOM     16  C   UNL     1       3.189   6.461  18.305  0.00  0.00    +0.000 A 
ATOM     17  C   UNL     1       2.691   6.332  19.602  0.00  0.00    +0.000 A 
ATOM     18  C   UNL     1       1.952   7.359  20.184  0.00  0.00    +0.000 A 
ATOM     19  O   UNL     1       2.870   5.194  20.341  0.00  0.00    +0.000 OA
ATOM     20  C   UNL     1       2.808   4.073  19.463  0.00  0.00    +0.000 C 
ATOM     21  C   UNL     1       3.808   4.191  18.318  0.00  0.00    +0.000 C 
ATOM     22  O   UNL     1       3.802   5.445  17.629  0.00  0.00    +0.000 OA
ENDBRANCH   8  13
BRANCH  11  23
ATOM     23  C   UNL     1      -2.857  11.136  17.699  0.00  0.00    +0.000 A 
ATOM     24  C   UNL     1      -2.113  10.378  16.784  0.00  0.00    +0.000 A 
ATOM     25  C   UNL     1      -2.620  10.084  15.515  0.00  0.00    +0.000 A 
ATOM     26  C   UNL     1      -3.864  10.573  15.132  0.00  0.00    +0.000 A 
ATOM     27  C   UNL     1      -4.602  11.357  16.016  0.00  0.00    +0.000 A 
ATOM     28  C   UNL     1      -4.107  11.627  17.296  0.00  0.00    +0.000 A 
ENDBRANCH  11  23
TORSDOF 2
ENDMDL
MODEL 4
REMARK VINA RESULT:      -7.4      6.838      9.230
REMARK  Name = 
REMARK  3 active torsions:
REMARK  status: ('A' for Active; 'I' for Inactive)
REMARK    1  A    between atoms: C_1  and  C_2
REMARK    2  A    between atoms: C_8  and  C_9
REMARK    3  A    between atoms: C_21  and  C_22
REMARK                            x       y       z     vdW  Elec       q    Type
REMARK                         _______ _______ _______ _____ _____    ______ ____
ROOT
ATOM      1  C   UNL     1      -2.520  12.492  21.176  0.00  0.00    +0.000 C 
ATOM      2  C   UNL     1      -1.529  11.394  21.033  0.00  0.00    +0.000 A 
ATOM      3  N   UNL     1      -0.812  11.034  22.105  0.00  0.00    +0.000 NA
ATOM      4  N   UNL     1      -0.005  10.046  21.650  0.00  0.00    +0.000 N 
ATOM      5  C   UNL     1       0.925   9.382  22.472  0.00  0.00    +0.000 A 
ATOM      6  O   UNL     1       1.096   9.677  23.650  0.00  0.00    +0.000 OA
ATOM      7  C   UNL     1       1.663   8.292  21.789  0.00  0.00    +0.000 A 
ATOM      8  C   UNL     1       1.406   8.041  20.493  0.00  0.00    +0.000 A 
ATOM      9  N   UNL     1       0.499   8.765  19.749  0.00  0.00    +0.000 N 
ATOM     10  C   UNL     1      -0.223   9.768  20.309  0.00  0.00    +0.000 A 
ATOM     11  C   UNL     1      -1.191  10.640  19.866  0.00  0.00    +0.000 A 
ATOM     12  H   UNL     1       0.359   8.460  18.788  0.00  0.00    +0.000 HD
ENDROOT
BRANCH   8  13
ATOM     13  C   UNL     1       2.099   6.928  19.840  0.00  0.00    +0.000 A 
ATOM     14  C   UNL     1       2.748   7.136  18.615  0.00  0.00    +0.000 A 
ATOM     15  C   UNL     1       3.259   6.051  17.900  0.00  0.00    +0.000 A 
ATOM     16  C   UNL     1       3.111   4.760  18.402  0.00  0.00    +0.000 A 
ATOM     17  C   UNL     1       2.543   4.566  19.661  0.00  0.00    +0.000 A 
ATOM     18  C   UNL     1       2.042   5.643  20.388  0.00  0.00    +0.000 A 
ATOM     19  O   UNL     1       2.417   3.323  20.219  0.00  0.00    +0.000 OA
ATOM     20  C   UNL     1       2.130   2.390  19.181  0.00  0.00    +0.000 C 
ATOM     21  C   UNL     1       3.177   2.431  18.074  0.00  0.00    +0.000 C 
ATOM     22  O   UNL     1       3.495   3.737  17.582  0.00  0.00    +0.000 OA
ENDBRANCH   8  13
BRANCH  11  23
ATOM     23  C   UNL     1      -1.699  10.726  18.502  0.00  0.00    +0.000 A 
ATOM     24  C   UNL     1      -2.427   9.663  17.950  0.00  0.00    +0.000 A 
ATOM     25  C   UNL     1      -2.997   9.765  16.678  0.00  0.00    +0.000 A 
ATOM     26  C   UNL     1      -2.816  10.920  15.925  0.00  0.00    +0.000 A 
ATOM     27  C   UNL     1      -2.065  11.974  16.443  0.00  0.00    +0.000 A 
ATOM     28  C   UNL     1      -1.520  11.882  17.728  0.00  0.00    +0.000 A 
ENDBRANCH  11  23
TORSDOF 2
ENDMDL
MODEL 5
REMARK VINA RESULT:      -7.4      8.114     10.171
REMARK  Name = 
REMARK  3 active torsions:
REMARK  status: ('A' for Active; 'I' for Inactive)
REMARK    1  A    between atoms: C_1  and  C_2
REMARK    2  A    between atoms: C_8  and  C_9
REMARK    3  A    between atoms: C_21  and  C_22
REMARK                            x       y       z     vdW  Elec       q    Type
REMARK                         _______ _______ _______ _____ _____    ______ ____
ROOT
ATOM      1  C   UNL     1      -0.042  15.988  18.757  0.00  0.00    +0.000 C 
ATOM      2  C   UNL     1       0.179  14.521  18.819  0.00  0.00    +0.000 A 
ATOM      3  N   UNL     1      -0.887  13.710  18.778  0.00  0.00    +0.000 NA
ATOM      4  N   UNL     1      -0.363  12.465  18.872  0.00  0.00    +0.000 N 
ATOM      5  C   UNL     1      -1.155  11.302  18.869  0.00  0.00    +0.000 A 
ATOM      6  O   UNL     1      -2.380  11.336  18.816  0.00  0.00    +0.000 OA
ATOM      7  C   UNL     1      -0.376  10.041  18.920  0.00  0.00    +0.000 A 
ATOM      8  C   UNL     1       0.966  10.104  18.975  0.00  0.00    +0.000 A 
ATOM      9  N   UNL     1       1.666  11.292  19.009  0.00  0.00    +0.000 N 
ATOM     10  C   UNL     1       1.022  12.484  18.952  0.00  0.00    +0.000 A 
ATOM     11  C   UNL     1       1.410  13.804  18.943  0.00  0.00    +0.000 A 
ATOM     12  H   UNL     1       2.680  11.216  19.011  0.00  0.00    +0.000 HD
ENDROOT
BRANCH   8  13
ATOM     13  C   UNL     1       1.730   8.855  18.971  0.00  0.00    +0.000 A 
ATOM     14  C   UNL     1       2.537   8.536  17.869  0.00  0.00    +0.000 A 
ATOM     15  C   UNL     1       3.128   7.275  17.775  0.00  0.00    +0.000 A 
ATOM     16  C   UNL     1       2.906   6.330  18.774  0.00  0.00    +0.000 A 
ATOM     17  C   UNL     1       2.175   6.680  19.909  0.00  0.00    +0.000 A 
ATOM     18  C   UNL     1       1.592   7.940  20.018  0.00  0.00    +0.000 A 
ATOM     19  O   UNL     1       1.967   5.803  20.940  0.00  0.00    +0.000 OA
ATOM     20  C   UNL     1       1.812   4.496  20.394  0.00  0.00    +0.000 C 
ATOM     21  C   UNL     1       2.996   4.100  19.519  0.00  0.00    +0.000 C 
ATOM     22  O   UNL     1       3.386   5.073  18.544  0.00  0.00    +0.000 OA
ENDBRANCH   8  13
BRANCH  11  23
ATOM     23  C   UNL     1       2.781  14.289  19.052  0.00  0.00    +0.000 A 
ATOM     24  C   UNL     1       3.485  14.682  17.905  0.00  0.00    +0.000 A 
ATOM     25  C   UNL     1       4.766  15.231  18.000  0.00  0.00    +0.000 A 
ATOM     26  C   UNL     1       5.376  15.364  19.243  0.00  0.00    +0.000 A 
ATOM     27  C   UNL     1       4.705  14.947  20.391  0.00  0.00    +0.000 A 
ATOM     28  C   UNL     1       3.412  14.423  20.297  0.00  0.00    +0.000 A 
ENDBRANCH  11  23
TORSDOF 2
ENDMDL
MODEL 6
REMARK VINA RESULT:      -7.4      4.858      6.800
REMARK  Name = 
REMARK  3 active torsions:
REMARK  status: ('A' for Active; 'I' for Inactive)
REMARK    1  A    between atoms: C_1  and  C_2
REMARK    2  A    between atoms: C_8  and  C_9
REMARK    3  A    between atoms: C_21  and  C_22
REMARK                            x       y       z     vdW  Elec       q    Type
REMARK                         _______ _______ _______ _____ _____    ______ ____
ROOT
ATOM      1  C   UNL     1       4.871   1.298  19.093  0.00  0.00    +0.000 C 
ATOM      2  C   UNL     1       4.152   2.593  19.200  0.00  0.00    +0.000 A 
ATOM      3  N   UNL     1       3.198   2.722  20.130  0.00  0.00    +0.000 NA
ATOM      4  N   UNL     1       2.732   3.982  19.959  0.00  0.00    +0.000 N 
ATOM      5  C   UNL     1       1.703   4.529  20.748  0.00  0.00    +0.000 A 
ATOM      6  O   UNL     1       1.130   3.890  21.623  0.00  0.00    +0.000 OA
ATOM      7  C   UNL     1       1.389   5.944  20.433  0.00  0.00    +0.000 A 
ATOM      8  C   UNL     1       2.073   6.564  19.455  0.00  0.00    +0.000 A 
ATOM      9  N   UNL     1       3.047   5.941  18.704  0.00  0.00    +0.000 N 
ATOM     10  C   UNL     1       3.398   4.653  18.943  0.00  0.00    +0.000 A 
ATOM     11  C   UNL     1       4.313   3.774  18.410  0.00  0.00    +0.000 A 
ATOM     12  H   UNL     1       3.524   6.521  18.017  0.00  0.00    +0.000 HD
ENDROOT
BRANCH   8  13
ATOM     13  C   UNL     1       1.794   7.976  19.187  0.00  0.00    +0.000 A 
ATOM     14  C   UNL     1       2.275   8.569  18.010  0.00  0.00    +0.000 A 
ATOM     15  C   UNL     1       2.168   9.948  17.827  0.00  0.00    +0.000 A 
ATOM     16  C   UNL     1       1.594  10.737  18.821  0.00  0.00    +0.000 A 
ATOM     17  C   UNL     1       1.039  10.133  19.951  0.00  0.00    +0.000 A 
ATOM     18  C   UNL     1       1.129   8.757  20.136  0.00  0.00    +0.000 A 
ATOM     19  O   UNL     1       0.423  10.859  20.934  0.00  0.00    +0.000 OA
ATOM     20  C   UNL     1       1.113  12.097  21.081  0.00  0.00    +0.000 C 
ATOM     21  C   UNL     1       1.204  12.857  19.763  0.00  0.00    +0.000 C 
ATOM     22  O   UNL     1       1.661  12.089  18.645  0.00  0.00    +0.000 OA
ENDBRANCH   8  13
BRANCH  11  23
ATOM     23  C   UNL     1       5.203   4.050  17.288  0.00  0.00    +0.000 A 
ATOM     24  C   UNL     1       4.725   3.974  15.972  0.00  0.00    +0.000 A 
ATOM     25  C   UNL     1       5.539   4.322  14.890  0.00  0.00    +0.000 A 
ATOM     26  C   UNL     1       6.854   4.717  15.108  0.00  0.00    +0.000 A 
ATOM     27  C   UNL     1       7.357   4.765  16.407  0.00  0.00    +0.000 A 
ATOM     28  C   UNL     1       6.533   4.445  17.490  0.00  0.00    +0.000 A 
ENDBRANCH  11  23
TORSDOF 2
ENDMDL
MODEL 7
REMARK VINA RESULT:      -7.3     11.457     14.540
REMARK  Name = 
REMARK  3 active torsions:
REMARK  status: ('A' for Active; 'I' for Inactive)
REMARK    1  A    between atoms: C_1  and  C_2
REMARK    2  A    between atoms: C_8  and  C_9
REMARK    3  A    between atoms: C_21  and  C_22
REMARK                            x       y       z     vdW  Elec       q    Type
REMARK                         _______ _______ _______ _____ _____    ______ ____
ROOT
ATOM      1  C   UNL     1      -2.160  15.641  25.651  0.00  0.00    +0.000 C 
ATOM      2  C   UNL     1      -1.927  14.890  24.390  0.00  0.00    +0.000 A 
ATOM      3  N   UNL     1      -0.683  14.834  23.898  0.00  0.00    +0.000 NA
ATOM      4  N   UNL     1      -0.806  14.111  22.760  0.00  0.00    +0.000 N 
ATOM      5  C   UNL     1       0.285  13.815  21.921  0.00  0.00    +0.000 A 
ATOM      6  O   UNL     1       1.420  14.222  22.145  0.00  0.00    +0.000 OA
ATOM      7  C   UNL     1      -0.061  12.960  20.760  0.00  0.00    +0.000 A 
ATOM      8  C   UNL     1      -1.335  12.561  20.599  0.00  0.00    +0.000 A 
ATOM      9  N   UNL     1      -2.354  12.926  21.452  0.00  0.00    +0.000 N 
ATOM     10  C   UNL     1      -2.112  13.695  22.543  0.00  0.00    +0.000 A 
ATOM     11  C   UNL     1      -2.874  14.202  23.570  0.00  0.00    +0.000 A 
ATOM     12  H   UNL     1      -3.271  12.532  21.252  0.00  0.00    +0.000 HD
ENDROOT
BRANCH   8  13
ATOM     13  C   UNL     1      -1.658  11.672  19.480  0.00  0.00    +0.000 A 
ATOM     14  C   UNL     1      -0.705  10.748  19.028  0.00  0.00    +0.000 A 
ATOM     15  C   UNL     1      -0.934  10.022  17.858  0.00  0.00    +0.000 A 
ATOM     16  C   UNL     1      -2.106  10.227  17.134  0.00  0.00    +0.000 A 
ATOM     17  C   UNL     1      -3.089  11.083  17.633  0.00  0.00    +0.000 A 
ATOM     18  C   UNL     1      -2.876  11.801  18.806  0.00  0.00    +0.000 A 
ATOM     19  O   UNL     1      -4.278  11.283  16.984  0.00  0.00    +0.000 OA
ATOM     20  C   UNL     1      -4.034  11.254  15.580  0.00  0.00    +0.000 C 
ATOM     21  C   UNL     1      -3.342   9.967  15.148  0.00  0.00    +0.000 C 
ATOM     22  O   UNL     1      -2.196   9.601  15.924  0.00  0.00    +0.000 OA
ENDBRANCH   8  13
BRANCH  11  23
ATOM     23  C   UNL     1      -4.316  14.043  23.717  0.00  0.00    +0.000 A 
ATOM     24  C   UNL     1      -4.859  12.795  24.056  0.00  0.00    +0.000 A 
ATOM     25  C   UNL     1      -6.229  12.646  24.289  0.00  0.00    +0.000 A 
ATOM     26  C   UNL     1      -7.081  13.737  24.152  0.00  0.00    +0.000 A 
ATOM     27  C   UNL     1      -6.564  14.977  23.782  0.00  0.00    +0.000 A 
ATOM     28  C   UNL     1      -5.190  15.132  23.577  0.00  0.00    +0.000 A 
ENDBRANCH  11  23
TORSDOF 2
ENDMDL
MODEL 8
REMARK VINA RESULT:      -7.2      5.327      7.678
REMARK  Name = 
REMARK  3 active torsions:
REMARK  status: ('A' for Active; 'I' for Inactive)
REMARK    1  A    between atoms: C_1  and  C_2
REMARK    2  A    between atoms: C_8  and  C_9
REMARK    3  A    between atoms: C_21  and  C_22
REMARK                            x       y       z     vdW  Elec       q    Type
REMARK                         _______ _______ _______ _____ _____    ______ ____
ROOT
ATOM      1  C   UNL     1       5.018   2.337  18.629  0.00  0.00    +0.000 C 
ATOM      2  C   UNL     1       4.153   3.461  19.069  0.00  0.00    +0.000 A 
ATOM      3  N   UNL     1       2.931   3.183  19.542  0.00  0.00    +0.000 NA
ATOM      4  N   UNL     1       2.401   4.395  19.831  0.00  0.00    +0.000 N 
ATOM      5  C   UNL     1       1.106   4.555  20.359  0.00  0.00    +0.000 A 
ATOM      6  O   UNL     1       0.353   3.609  20.561  0.00  0.00    +0.000 OA
ATOM      7  C   UNL     1       0.747   5.962  20.659  0.00  0.00    +0.000 A 
ATOM      8  C   UNL     1       1.640   6.934  20.403  0.00  0.00    +0.000 A 
ATOM      9  N   UNL     1       2.881   6.693  19.851  0.00  0.00    +0.000 N 
ATOM     10  C   UNL     1       3.285   5.430  19.563  0.00  0.00    +0.000 A 
ATOM     11  C   UNL     1       4.426   4.865  19.044  0.00  0.00    +0.000 A 
ATOM     12  H   UNL     1       3.487   7.502  19.738  0.00  0.00    +0.000 HD
ENDROOT
BRANCH   8  13
ATOM     13  C   UNL     1       1.299   8.315  20.752  0.00  0.00    +0.000 A 
ATOM     14  C   UNL     1       0.944   8.632  22.071  0.00  0.00    +0.000 A 
ATOM     15  C   UNL     1       0.448   9.900  22.377  0.00  0.00    +0.000 A 
ATOM     16  C   UNL     1       0.296  10.847  21.367  0.00  0.00    +0.000 A 
ATOM     17  C   UNL     1       0.732  10.557  20.073  0.00  0.00    +0.000 A 
ATOM     18  C   UNL     1       1.239   9.299  19.761  0.00  0.00    +0.000 A 
ATOM     19  O   UNL     1       0.647  11.468  19.056  0.00  0.00    +0.000 OA
ATOM     20  C   UNL     1      -0.546  12.228  19.229  0.00  0.00    +0.000 C 
ATOM     21  C   UNL     1      -0.611  12.880  20.605  0.00  0.00    +0.000 C 
ATOM     22  O   UNL     1      -0.335  12.009  21.707  0.00  0.00    +0.000 OA
ENDBRANCH   8  13
BRANCH  11  23
ATOM     23  C   UNL     1       5.603   5.593  18.584  0.00  0.00    +0.000 A 
ATOM     24  C   UNL     1       5.532   6.403  17.442  0.00  0.00    +0.000 A 
ATOM     25  C   UNL     1       6.623   7.176  17.039  0.00  0.00    +0.000 A 
ATOM     26  C   UNL     1       7.815   7.124  17.755  0.00  0.00    +0.000 A 
ATOM     27  C   UNL     1       7.916   6.298  18.872  0.00  0.00    +0.000 A 
ATOM     28  C   UNL     1       6.813   5.547  19.291  0.00  0.00    +0.000 A 
ENDBRANCH  11  23
TORSDOF 2
ENDMDL
MODEL 9
REMARK VINA RESULT:      -7.2      4.662      8.720
REMARK  Name = 
REMARK  3 active torsions:
REMARK  status: ('A' for Active; 'I' for Inactive)
REMARK    1  A    between atoms: C_1  and  C_2
REMARK    2  A    between atoms: C_8  and  C_9
REMARK    3  A    between atoms: C_21  and  C_22
REMARK                            x       y       z     vdW  Elec       q    Type
REMARK                         _______ _______ _______ _____ _____    ______ ____
ROOT
ATOM      1  C   UNL     1       2.430   4.267  17.404  0.00  0.00    +0.000 C 
ATOM      2  C   UNL     1       3.635   5.132  17.479  0.00  0.00    +0.000 A 
ATOM      3  N   UNL     1       4.810   4.632  17.077  0.00  0.00    +0.000 NA
ATOM      4  N   UNL     1       5.691   5.638  17.286  0.00  0.00    +0.000 N 
ATOM      5  C   UNL     1       7.063   5.525  16.992  0.00  0.00    +0.000 A 
ATOM      6  O   UNL     1       7.563   4.493  16.559  0.00  0.00    +0.000 OA
ATOM      7  C   UNL     1       7.837   6.766  17.239  0.00  0.00    +0.000 A 
ATOM      8  C   UNL     1       7.200   7.850  17.715  0.00  0.00    +0.000 A 
ATOM      9  N   UNL     1       5.853   7.866  18.009  0.00  0.00    +0.000 N 
ATOM     10  C   UNL     1       5.078   6.773  17.796  0.00  0.00    +0.000 A 
ATOM     11  C   UNL     1       3.744   6.475  17.958  0.00  0.00    +0.000 A 
ATOM     12  H   UNL     1       5.473   8.755  18.327  0.00  0.00    +0.000 HD
ENDROOT
BRANCH   8  13
ATOM     13  C   UNL     1       7.961   9.087  17.905  0.00  0.00    +0.000 A 
ATOM     14  C   UNL     1       9.018   9.118  18.826  0.00  0.00    +0.000 A 
ATOM     15  C   UNL     1       9.634  10.330  19.145  0.00  0.00    +0.000 A 
ATOM     16  C   UNL     1       9.187  11.510  18.553  0.00  0.00    +0.000 A 
ATOM     17  C   UNL     1       8.195  11.462  17.574  0.00  0.00    +0.000 A 
ATOM     18  C   UNL     1       7.584  10.257  17.240  0.00  0.00    +0.000 A 
ATOM     19  O   UNL     1       7.754  12.587  16.930  0.00  0.00    +0.000 OA
ATOM     20  C   UNL     1       7.758  13.668  17.858  0.00  0.00    +0.000 C 
ATOM     21  C   UNL     1       9.126  13.861  18.501  0.00  0.00    +0.000 C 
ATOM     22  O   UNL     1       9.729  12.672  19.023  0.00  0.00    +0.000 OA
ENDBRANCH   8  13
BRANCH  11  23
ATOM     23  C   UNL     1       2.733   7.371  18.508  0.00  0.00    +0.000 A 
ATOM     24  C   UNL     1       2.280   7.201  19.824  0.00  0.00    +0.000 A 
ATOM     25  C   UNL     1       1.379   8.103  20.396  0.00  0.00    +0.000 A 
ATOM     26  C   UNL     1       0.891   9.169  19.647  0.00  0.00    +0.000 A 
ATOM     27  C   UNL     1       1.303   9.333  18.327  0.00  0.00    +0.000 A 
ATOM     28  C   UNL     1       2.227   8.447  17.764  0.00  0.00    +0.000 A 
ENDBRANCH  11  23
TORSDOF 2
ENDMDL
