MODEL 1
REMARK VINA RESULT:      -9.2      0.000      0.000
REMARK  Name = 
REMARK  9 active torsions:
REMARK  status: ('A' for Active; 'I' for Inactive)
REMARK    1  A    between atoms: C_1  and  C_2
REMARK    2  A    between atoms: C_5  and  C_6
REMARK    3  A    between atoms: C_8  and  C_9
REMARK    4  A    between atoms: C_10  and  C_11
REMARK    5  A    between atoms: N_13  and  C_14
REMARK    6  A    between atoms: C_18  and  O_19
REMARK    7  A    between atoms: O_19  and  C_20
REMARK    8  A    between atoms: C_20  and  C_21
REMARK    9  A    between atoms: C_30  and  O_31
REMARK                            x       y       z     vdW  Elec       q    Type
REMARK                         _______ _______ _______ _____ _____    ______ ____
ROOT
ATOM      1  C   UNL     1       7.855   7.820  17.938  0.00  0.00    +0.000 C 
ATOM      2  O   UNL     1       8.246   7.014  18.769  0.00  0.00    +0.000 OA
ATOM      3  N   UNL     1       7.038   7.554  16.852  0.00  0.00    +0.000 N 
ATOM      4  H   UNL     1       6.921   8.270  16.147  0.00  0.00    +0.000 HD
ENDROOT
BRANCH   3   5
ATOM      5  C   UNL     1       6.478   6.283  16.565  0.00  0.00    +0.000 A 
ATOM      6  C   UNL     1       7.144   5.343  15.774  0.00  0.00    +0.000 A 
ATOM      7  C   UNL     1       6.537   4.143  15.426  0.00  0.00    +0.000 A 
ATOM      8  C   UNL     1       5.263   3.847  15.895  0.00  0.00    +0.000 A 
ATOM      9  C   UNL     1       4.604   4.734  16.750  0.00  0.00    +0.000 A 
ATOM     10  C   UNL     1       5.214   5.955  17.081  0.00  0.00    +0.000 A 
BRANCH   9  11
ATOM     11  O   UNL     1       3.347   4.520  17.269  0.00  0.00    +0.000 OA
BRANCH  11  12
ATOM     12  C   UNL     1       3.234   4.708  18.686  0.00  0.00    +0.000 C 
BRANCH  12  13
ATOM     13  C   UNL     1       1.765   4.629  19.136  0.00  0.00    +0.000 C 
ATOM     14  C   UNL     1       1.642   4.941  20.637  0.00  0.00    +0.000 C 
ATOM     15  C   UNL     1       2.158   3.799  21.518  0.00  0.00    +0.000 C 
ATOM     16  N   UNL     1       1.521   2.523  21.196  0.00  0.00    +0.000 NA
ATOM     17  C   UNL     1       1.697   2.170  19.786  0.00  0.00    +0.000 C 
ATOM     18  C   UNL     1       1.141   3.252  18.858  0.00  0.00    +0.000 C 
ATOM     19  H   UNL     1       0.522   2.591  21.395  0.00  0.00    +0.000 HD
ENDBRANCH  12  13
ENDBRANCH  11  12
ENDBRANCH   9  11
ENDBRANCH   3   5
BRANCH   1  21
ATOM     20  C   UNL     1       9.155   9.563  19.009  0.00  0.00    +0.000 C 
ATOM     21  C   UNL     1       8.300   9.241  18.022  0.00  0.00    +0.000 C 
BRANCH  20  24
ATOM     22  C   UNL     1       9.625  13.024  20.544  0.00  0.00    +0.000 A 
ATOM     23  C   UNL     1       9.119  11.737  20.261  0.00  0.00    +0.000 A 
ATOM     24  C   UNL     1       9.684  10.902  19.288  0.00  0.00    +0.000 A 
ATOM     25  C   UNL     1      10.835  11.328  18.623  0.00  0.00    +0.000 A 
ATOM     26  C   UNL     1      11.381  12.582  18.890  0.00  0.00    +0.000 A 
ATOM     27  C   UNL     1      10.774  13.421  19.830  0.00  0.00    +0.000 A 
BRANCH  22  32
ATOM     28  C   UNL     1       6.903  16.288  24.539  0.00  0.00    +0.000 C 
ATOM     29  C   UNL     1       7.613  15.469  23.506  0.00  0.00    +0.000 A 
ATOM     30  C   UNL     1       7.494  15.762  22.146  0.00  0.00    +0.000 A 
ATOM     31  C   UNL     1       8.158  14.985  21.191  0.00  0.00    +0.000 A 
ATOM     32  C   UNL     1       8.935  13.873  21.552  0.00  0.00    +0.000 A 
ATOM     33  C   UNL     1       9.044  13.599  22.930  0.00  0.00    +0.000 A 
ATOM     34  C   UNL     1       8.406  14.389  23.893  0.00  0.00    +0.000 A 
ENDBRANCH  22  32
BRANCH  27  35
ATOM     35  O   UNL     1      11.321  14.662  20.030  0.00  0.00    +0.000 OA
ATOM     36  H   UNL     1      11.162  14.940  20.946  0.00  0.00    +0.000 HD
ENDBRANCH  27  35
ENDBRANCH  20  24
ENDBRANCH   1  21
TORSDOF 8
ENDMDL
MODEL 2
REMARK VINA RESULT:      -9.0      0.958      1.278
REMARK  Name = 
REMARK  9 active torsions:
REMARK  status: ('A' for Active; 'I' for Inactive)
REMARK    1  A    between atoms: C_1  and  C_2
REMARK    2  A    between atoms: C_5  and  C_6
REMARK    3  A    between atoms: C_8  and  C_9
REMARK    4  A    between atoms: C_10  and  C_11
REMARK    5  A    between atoms: N_13  and  C_14
REMARK    6  A    between atoms: C_18  and  O_19
REMARK    7  A    between atoms: O_19  and  C_20
REMARK    8  A    between atoms: C_20  and  C_21
REMARK    9  A    between atoms: C_30  and  O_31
REMARK                            x       y       z     vdW  Elec       q    Type
REMARK                         _______ _______ _______ _____ _____    ______ ____
ROOT
ATOM      1  C   UNL     1       7.808   7.863  17.866  0.00  0.00    +0.000 C 
ATOM      2  O   UNL     1       8.288   7.161  18.744  0.00  0.00    +0.000 OA
ATOM      3  N   UNL     1       6.970   7.448  16.845  0.00  0.00    +0.000 N 
ATOM      4  H   UNL     1       6.774   8.089  16.088  0.00  0.00    +0.000 HD
ENDROOT
BRANCH   3   5
ATOM      5  C   UNL     1       6.489   6.121  16.694  0.00  0.00    +0.000 A 
ATOM      6  C   UNL     1       6.787   5.352  15.565  0.00  0.00    +0.000 A 
ATOM      7  C   UNL     1       6.229   4.092  15.391  0.00  0.00    +0.000 A 
ATOM      8  C   UNL     1       5.388   3.565  16.364  0.00  0.00    +0.000 A 
ATOM      9  C   UNL     1       5.134   4.279  17.538  0.00  0.00    +0.000 A 
ATOM     10  C   UNL     1       5.685   5.561  17.698  0.00  0.00    +0.000 A 
BRANCH   9  11
ATOM     11  O   UNL     1       4.324   3.832  18.556  0.00  0.00    +0.000 OA
BRANCH  11  12
ATOM     12  C   UNL     1       3.456   2.743  18.210  0.00  0.00    +0.000 C 
BRANCH  12  13
ATOM     13  C   UNL     1       2.027   3.244  17.939  0.00  0.00    +0.000 C 
ATOM     14  C   UNL     1       1.871   4.707  18.388  0.00  0.00    +0.000 C 
ATOM     15  C   UNL     1       1.823   4.850  19.913  0.00  0.00    +0.000 C 
ATOM     16  N   UNL     1       0.791   4.007  20.514  0.00  0.00    +0.000 NA
ATOM     17  C   UNL     1       0.969   2.597  20.162  0.00  0.00    +0.000 C 
ATOM     18  C   UNL     1       0.963   2.387  18.646  0.00  0.00    +0.000 C 
ATOM     19  H   UNL     1      -0.124   4.315  20.182  0.00  0.00    +0.000 HD
ENDBRANCH  12  13
ENDBRANCH  11  12
ENDBRANCH   9  11
ENDBRANCH   3   5
BRANCH   1  21
ATOM     20  C   UNL     1       9.146   9.742  18.608  0.00  0.00    +0.000 C 
ATOM     21  C   UNL     1       8.154   9.311  17.808  0.00  0.00    +0.000 C 
BRANCH  20  24
ATOM     22  C   UNL     1       9.666  13.288  19.916  0.00  0.00    +0.000 A 
ATOM     23  C   UNL     1       9.214  11.958  19.784  0.00  0.00    +0.000 A 
ATOM     24  C   UNL     1       9.616  11.126  18.730  0.00  0.00    +0.000 A 
ATOM     25  C   UNL     1      10.555  11.606  17.815  0.00  0.00    +0.000 A 
ATOM     26  C   UNL     1      11.045  12.905  17.924  0.00  0.00    +0.000 A 
ATOM     27  C   UNL     1      10.595  13.737  18.954  0.00  0.00    +0.000 A 
BRANCH  22  32
ATOM     28  C   UNL     1       7.597  16.611  24.240  0.00  0.00    +0.000 C 
ATOM     29  C   UNL     1       8.136  15.743  23.146  0.00  0.00    +0.000 A 
ATOM     30  C   UNL     1       9.492  15.417  23.084  0.00  0.00    +0.000 A 
ATOM     31  C   UNL     1       9.983  14.609  22.053  0.00  0.00    +0.000 A 
ATOM     32  C   UNL     1       9.151  14.126  21.031  0.00  0.00    +0.000 A 
ATOM     33  C   UNL     1       7.785  14.465  21.116  0.00  0.00    +0.000 A 
ATOM     34  C   UNL     1       7.282  15.248  22.160  0.00  0.00    +0.000 A 
ENDBRANCH  22  32
BRANCH  27  35
ATOM     35  O   UNL     1      11.073  15.021  18.998  0.00  0.00    +0.000 OA
ATOM     36  H   UNL     1      10.338  15.642  18.877  0.00  0.00    +0.000 HD
ENDBRANCH  27  35
ENDBRANCH  20  24
ENDBRANCH   1  21
TORSDOF 8
ENDMDL
MODEL 3
REMARK VINA RESULT:      -8.7      1.312      1.673
REMARK  Name = 
REMARK  9 active torsions:
REMARK  status: ('A' for Active; 'I' for Inactive)
REMARK    1  A    between atoms: C_1  and  C_2
REMARK    2  A    between atoms: C_5  and  C_6
REMARK    3  A    between atoms: C_8  and  C_9
REMARK    4  A    between atoms: C_10  and  C_11
REMARK    5  A    between atoms: N_13  and  C_14
REMARK    6  A    between atoms: C_18  and  O_19
REMARK    7  A    between atoms: O_19  and  C_20
REMARK    8  A    between atoms: C_20  and  C_21
REMARK    9  A    between atoms: C_30  and  O_31
REMARK                            x       y       z     vdW  Elec       q    Type
REMARK                         _______ _______ _______ _____ _____    ______ ____
ROOT
ATOM      1  C   UNL     1       7.812   7.838  17.930  0.00  0.00    +0.000 C 
ATOM      2  O   UNL     1       8.291   7.087  18.766  0.00  0.00    +0.000 OA
ATOM      3  N   UNL     1       6.832   7.523  17.004  0.00  0.00    +0.000 N 
ATOM      4  H   UNL     1       6.638   8.180  16.261  0.00  0.00    +0.000 HD
ENDROOT
BRANCH   3   5
ATOM      5  C   UNL     1       6.185   6.262  16.922  0.00  0.00    +0.000 A 
ATOM      6  C   UNL     1       5.844   5.686  15.695  0.00  0.00    +0.000 A 
ATOM      7  C   UNL     1       5.126   4.498  15.638  0.00  0.00    +0.000 A 
ATOM      8  C   UNL     1       4.768   3.847  16.812  0.00  0.00    +0.000 A 
ATOM      9  C   UNL     1       5.161   4.359  18.051  0.00  0.00    +0.000 A 
ATOM     10  C   UNL     1       5.869   5.571  18.102  0.00  0.00    +0.000 A 
BRANCH   9  11
ATOM     11  O   UNL     1       4.859   3.778  19.261  0.00  0.00    +0.000 OA
BRANCH  11  12
ATOM     12  C   UNL     1       3.580   4.131  19.803  0.00  0.00    +0.000 C 
BRANCH  12  13
ATOM     13  C   UNL     1       2.855   2.891  20.356  0.00  0.00    +0.000 C 
ATOM     14  C   UNL     1       2.986   1.708  19.381  0.00  0.00    +0.000 C 
ATOM     15  C   UNL     1       2.115   1.879  18.132  0.00  0.00    +0.000 C 
ATOM     16  N   UNL     1       0.714   2.128  18.466  0.00  0.00    +0.000 NA
ATOM     17  C   UNL     1       0.562   3.301  19.330  0.00  0.00    +0.000 C 
ATOM     18  C   UNL     1       1.365   3.156  20.625  0.00  0.00    +0.000 C 
ATOM     19  H   UNL     1       0.338   1.312  18.950  0.00  0.00    +0.000 HD
ENDBRANCH  12  13
ENDBRANCH  11  12
ENDBRANCH   9  11
ENDBRANCH   3   5
BRANCH   1  21
ATOM     20  C   UNL     1       8.934   9.759  18.892  0.00  0.00    +0.000 C 
ATOM     21  C   UNL     1       8.319   9.235  17.816  0.00  0.00    +0.000 C 
BRANCH  20  24
ATOM     22  C   UNL     1       9.881  13.177  20.297  0.00  0.00    +0.000 A 
ATOM     23  C   UNL     1       9.361  11.870  20.178  0.00  0.00    +0.000 A 
ATOM     24  C   UNL     1       9.472  11.119  19.000  0.00  0.00    +0.000 A 
ATOM     25  C   UNL     1      10.187  11.654  17.927  0.00  0.00    +0.000 A 
ATOM     26  C   UNL     1      10.737  12.930  18.012  0.00  0.00    +0.000 A 
ATOM     27  C   UNL     1      10.574  13.684  19.178  0.00  0.00    +0.000 A 
BRANCH  22  32
ATOM     28  C   UNL     1       8.993  16.120  25.254  0.00  0.00    +0.000 C 
ATOM     29  C   UNL     1       9.244  15.363  23.987  0.00  0.00    +0.000 A 
ATOM     30  C   UNL     1      10.126  15.847  23.020  0.00  0.00    +0.000 A 
ATOM     31  C   UNL     1      10.347  15.133  21.837  0.00  0.00    +0.000 A 
ATOM     32  C   UNL     1       9.674  13.932  21.562  0.00  0.00    +0.000 A 
ATOM     33  C   UNL     1       8.791  13.461  22.554  0.00  0.00    +0.000 A 
ATOM     34  C   UNL     1       8.587  14.155  23.751  0.00  0.00    +0.000 A 
ENDBRANCH  22  32
BRANCH  27  35
ATOM     35  O   UNL     1      11.097  14.951  19.202  0.00  0.00    +0.000 OA
ATOM     36  H   UNL     1      12.014  14.915  19.515  0.00  0.00    +0.000 HD
ENDBRANCH  27  35
ENDBRANCH  20  24
ENDBRANCH   1  21
TORSDOF 8
ENDMDL
MODEL 4
REMARK VINA RESULT:      -8.7      1.483      2.046
REMARK  Name = 
REMARK  9 active torsions:
REMARK  status: ('A' for Active; 'I' for Inactive)
REMARK    1  A    between atoms: C_1  and  C_2
REMARK    2  A    between atoms: C_5  and  C_6
REMARK    3  A    between atoms: C_8  and  C_9
REMARK    4  A    between atoms: C_10  and  C_11
REMARK    5  A    between atoms: N_13  and  C_14
REMARK    6  A    between atoms: C_18  and  O_19
REMARK    7  A    between atoms: O_19  and  C_20
REMARK    8  A    between atoms: C_20  and  C_21
REMARK    9  A    between atoms: C_30  and  O_31
REMARK                            x       y       z     vdW  Elec       q    Type
REMARK                         _______ _______ _______ _____ _____    ______ ____
ROOT
ATOM      1  C   UNL     1       7.795   7.969  17.888  0.00  0.00    +0.000 C 
ATOM      2  O   UNL     1       8.403   7.260  18.677  0.00  0.00    +0.000 OA
ATOM      3  N   UNL     1       6.866   7.550  16.951  0.00  0.00    +0.000 N 
ATOM      4  H   UNL     1       6.557   8.208  16.247  0.00  0.00    +0.000 HD
ENDROOT
BRANCH   3   5
ATOM      5  C   UNL     1       6.431   6.208  16.799  0.00  0.00    +0.000 A 
ATOM      6  C   UNL     1       6.816   5.427  15.706  0.00  0.00    +0.000 A 
ATOM      7  C   UNL     1       6.303   4.148  15.526  0.00  0.00    +0.000 A 
ATOM      8  C   UNL     1       5.421   3.616  16.459  0.00  0.00    +0.000 A 
ATOM      9  C   UNL     1       5.079   4.345  17.600  0.00  0.00    +0.000 A 
ATOM     10  C   UNL     1       5.585   5.644  17.766  0.00  0.00    +0.000 A 
BRANCH   9  11
ATOM     11  O   UNL     1       4.223   3.894  18.579  0.00  0.00    +0.000 OA
BRANCH  11  12
ATOM     12  C   UNL     1       3.481   4.917  19.256  0.00  0.00    +0.000 C 
BRANCH  12  13
ATOM     13  C   UNL     1       1.969   4.746  19.023  0.00  0.00    +0.000 C 
ATOM     14  C   UNL     1       1.301   4.110  20.254  0.00  0.00    +0.000 C 
ATOM     15  C   UNL     1       1.628   2.621  20.396  0.00  0.00    +0.000 C 
ATOM     16  N   UNL     1       1.311   1.868  19.183  0.00  0.00    +0.000 NA
ATOM     17  C   UNL     1       2.002   2.411  18.012  0.00  0.00    +0.000 C 
ATOM     18  C   UNL     1       1.662   3.886  17.786  0.00  0.00    +0.000 C 
ATOM     19  H   UNL     1       0.304   1.912  19.019  0.00  0.00    +0.000 HD
ENDBRANCH  12  13
ENDBRANCH  11  12
ENDBRANCH   9  11
ENDBRANCH   3   5
BRANCH   1  21
ATOM     20  C   UNL     1       9.262   9.851  18.308  0.00  0.00    +0.000 C 
ATOM     21  C   UNL     1       8.067   9.434  17.852  0.00  0.00    +0.000 C 
BRANCH  20  24
ATOM     22  C   UNL     1       9.285  13.622  18.893  0.00  0.00    +0.000 A 
ATOM     23  C   UNL     1       8.860  12.279  18.799  0.00  0.00    +0.000 A 
ATOM     24  C   UNL     1       9.713  11.245  18.392  0.00  0.00    +0.000 A 
ATOM     25  C   UNL     1      11.054  11.540  18.138  0.00  0.00    +0.000 A 
ATOM     26  C   UNL     1      11.520  12.848  18.243  0.00  0.00    +0.000 A 
ATOM     27  C   UNL     1      10.642  13.875  18.603  0.00  0.00    +0.000 A 
BRANCH  22  32
ATOM     28  C   UNL     1       5.471  17.786  20.352  0.00  0.00    +0.000 C 
ATOM     29  C   UNL     1       6.437  16.701  19.988  0.00  0.00    +0.000 A 
ATOM     30  C   UNL     1       7.046  15.918  20.970  0.00  0.00    +0.000 A 
ATOM     31  C   UNL     1       7.950  14.911  20.616  0.00  0.00    +0.000 A 
ATOM     32  C   UNL     1       8.305  14.671  19.279  0.00  0.00    +0.000 A 
ATOM     33  C   UNL     1       7.675  15.473  18.305  0.00  0.00    +0.000 A 
ATOM     34  C   UNL     1       6.748  16.462  18.649  0.00  0.00    +0.000 A 
ENDBRANCH  22  32
BRANCH  27  35
ATOM     35  O   UNL     1      11.135  15.153  18.652  0.00  0.00    +0.000 OA
ATOM     36  H   UNL     1      12.074  15.127  18.896  0.00  0.00    +0.000 HD
ENDBRANCH  27  35
ENDBRANCH  20  24
ENDBRANCH   1  21
TORSDOF 8
ENDMDL
MODEL 5
REMARK VINA RESULT:      -8.7      6.311      8.872
REMARK  Name = 
REMARK  9 active torsions:
REMARK  status: ('A' for Active; 'I' for Inactive)
REMARK    1  A    between atoms: C_1  and  C_2
REMARK    2  A    between atoms: C_5  and  C_6
REMARK    3  A    between atoms: C_8  and  C_9
REMARK    4  A    between atoms: C_10  and  C_11
REMARK    5  A    between atoms: N_13  and  C_14
REMARK    6  A    between atoms: C_18  and  O_19
REMARK    7  A    between atoms: O_19  and  C_20
REMARK    8  A    between atoms: C_20  and  C_21
REMARK    9  A    between atoms: C_30  and  O_31
REMARK                            x       y       z     vdW  Elec       q    Type
REMARK                         _______ _______ _______ _____ _____    ______ ____
ROOT
ATOM      1  C   UNL     1       1.936   7.667  19.497  0.00  0.00    +0.000 C 
ATOM      2  O   UNL     1       2.350   7.569  18.352  0.00  0.00    +0.000 OA
ATOM      3  N   UNL     1       1.917   6.668  20.456  0.00  0.00    +0.000 N 
ATOM      4  H   UNL     1       1.399   6.826  21.310  0.00  0.00    +0.000 HD
ENDROOT
BRANCH   3   5
ATOM      5  C   UNL     1       2.437   5.363  20.260  0.00  0.00    +0.000 A 
ATOM      6  C   UNL     1       1.692   4.219  20.558  0.00  0.00    +0.000 A 
ATOM      7  C   UNL     1       2.253   2.952  20.451  0.00  0.00    +0.000 A 
ATOM      8  C   UNL     1       3.562   2.808  20.009  0.00  0.00    +0.000 A 
ATOM      9  C   UNL     1       4.306   3.928  19.631  0.00  0.00    +0.000 A 
ATOM     10  C   UNL     1       3.740   5.207  19.761  0.00  0.00    +0.000 A 
BRANCH   9  11
ATOM     11  O   UNL     1       5.603   3.879  19.174  0.00  0.00    +0.000 OA
BRANCH  11  12
ATOM     12  C   UNL     1       6.328   5.113  19.268  0.00  0.00    +0.000 C 
BRANCH  12  13
ATOM     13  C   UNL     1       7.270   5.289  18.065  0.00  0.00    +0.000 C 
ATOM     14  C   UNL     1       7.395   6.776  17.689  0.00  0.00    +0.000 C 
ATOM     15  C   UNL     1       6.135   7.317  17.007  0.00  0.00    +0.000 C 
ATOM     16  N   UNL     1       5.749   6.516  15.846  0.00  0.00    +0.000 NA
ATOM     17  C   UNL     1       5.547   5.109  16.201  0.00  0.00    +0.000 C 
ATOM     18  C   UNL     1       6.800   4.499  16.832  0.00  0.00    +0.000 C 
ATOM     19  H   UNL     1       6.486   6.574  15.143  0.00  0.00    +0.000 HD
ENDBRANCH  12  13
ENDBRANCH  11  12
ENDBRANCH   9  11
ENDBRANCH   3   5
BRANCH   1  21
ATOM     20  C   UNL     1       0.793   9.751  19.024  0.00  0.00    +0.000 C 
ATOM     21  C   UNL     1       1.341   8.954  19.959  0.00  0.00    +0.000 C 
BRANCH  20  24
ATOM     22  C   UNL     1      -1.461  12.509  20.391  0.00  0.00    +0.000 A 
ATOM     23  C   UNL     1      -0.878  11.246  20.150  0.00  0.00    +0.000 A 
ATOM     24  C   UNL     1       0.189  11.067  19.259  0.00  0.00    +0.000 A 
ATOM     25  C   UNL     1       0.745  12.188  18.641  0.00  0.00    +0.000 A 
ATOM     26  C   UNL     1       0.214  13.456  18.871  0.00  0.00    +0.000 A 
ATOM     27  C   UNL     1      -0.882  13.609  19.725  0.00  0.00    +0.000 A 
BRANCH  22  32
ATOM     28  C   UNL     1      -6.003  12.847  24.034  0.00  0.00    +0.000 C 
ATOM     29  C   UNL     1      -4.843  12.782  23.091  0.00  0.00    +0.000 A 
ATOM     30  C   UNL     1      -5.028  12.883  21.711  0.00  0.00    +0.000 A 
ATOM     31  C   UNL     1      -3.935  12.815  20.841  0.00  0.00    +0.000 A 
ATOM     32  C   UNL     1      -2.627  12.610  21.309  0.00  0.00    +0.000 A 
ATOM     33  C   UNL     1      -2.464  12.514  22.706  0.00  0.00    +0.000 A 
ATOM     34  C   UNL     1      -3.549  12.611  23.584  0.00  0.00    +0.000 A 
ENDBRANCH  22  32
BRANCH  27  35
ATOM     35  O   UNL     1      -1.397  14.869  19.890  0.00  0.00    +0.000 OA
ATOM     36  H   UNL     1      -1.281  15.146  20.812  0.00  0.00    +0.000 HD
ENDBRANCH  27  35
ENDBRANCH  20  24
ENDBRANCH   1  21
TORSDOF 8
ENDMDL
MODEL 6
REMARK VINA RESULT:      -8.7      1.076      1.559
REMARK  Name = 
REMARK  9 active torsions:
REMARK  status: ('A' for Active; 'I' for Inactive)
REMARK    1  A    between atoms: C_1  and  C_2
REMARK    2  A    between atoms: C_5  and  C_6
REMARK    3  A    between atoms: C_8  and  C_9
REMARK    4  A    between atoms: C_10  and  C_11
REMARK    5  A    between atoms: N_13  and  C_14
REMARK    6  A    between atoms: C_18  and  O_19
REMARK    7  A    between atoms: O_19  and  C_20
REMARK    8  A    between atoms: C_20  and  C_21
REMARK    9  A    between atoms: C_30  and  O_31
REMARK                            x       y       z     vdW  Elec       q    Type
REMARK                         _______ _______ _______ _____ _____    ______ ____
ROOT
ATOM      1  C   UNL     1       7.902   7.948  17.897  0.00  0.00    +0.000 C 
ATOM      2  O   UNL     1       8.317   7.251  18.812  0.00  0.00    +0.000 OA
ATOM      3  N   UNL     1       7.111   7.533  16.839  0.00  0.00    +0.000 N 
ATOM      4  H   UNL     1       6.973   8.164  16.061  0.00  0.00    +0.000 HD
ENDROOT
BRANCH   3   5
ATOM      5  C   UNL     1       6.608   6.216  16.686  0.00  0.00    +0.000 A 
ATOM      6  C   UNL     1       7.042   5.374  15.657  0.00  0.00    +0.000 A 
ATOM      7  C   UNL     1       6.468   4.124  15.466  0.00  0.00    +0.000 A 
ATOM      8  C   UNL     1       5.470   3.679  16.325  0.00  0.00    +0.000 A 
ATOM      9  C   UNL     1       5.069   4.467  17.407  0.00  0.00    +0.000 A 
ATOM     10  C   UNL     1       5.639   5.738  17.583  0.00  0.00    +0.000 A 
BRANCH   9  11
ATOM     11  O   UNL     1       4.098   4.104  18.312  0.00  0.00    +0.000 OA
BRANCH  11  12
ATOM     12  C   UNL     1       3.148   3.143  17.831  0.00  0.00    +0.000 C 
BRANCH  12  13
ATOM     13  C   UNL     1       2.784   2.131  18.931  0.00  0.00    +0.000 C 
ATOM     14  C   UNL     1       1.271   1.851  18.930  0.00  0.00    +0.000 C 
ATOM     15  C   UNL     1       0.457   3.022  19.490  0.00  0.00    +0.000 C 
ATOM     16  N   UNL     1       0.912   3.424  20.820  0.00  0.00    +0.000 NA
ATOM     17  C   UNL     1       2.335   3.772  20.824  0.00  0.00    +0.000 C 
ATOM     18  C   UNL     1       3.203   2.613  20.330  0.00  0.00    +0.000 C 
ATOM     19  H   UNL     1       0.762   2.651  21.470  0.00  0.00    +0.000 HD
ENDBRANCH  12  13
ENDBRANCH  11  12
ENDBRANCH   9  11
ENDBRANCH   3   5
BRANCH   1  21
ATOM     20  C   UNL     1       9.134   9.842  18.773  0.00  0.00    +0.000 C 
ATOM     21  C   UNL     1       8.286   9.386  17.833  0.00  0.00    +0.000 C 
BRANCH  20  24
ATOM     22  C   UNL     1       9.912  13.275  20.246  0.00  0.00    +0.000 A 
ATOM     23  C   UNL     1       9.453  11.948  20.100  0.00  0.00    +0.000 A 
ATOM     24  C   UNL     1       9.607  11.224  18.910  0.00  0.00    +0.000 A 
ATOM     25  C   UNL     1      10.304  11.810  17.851  0.00  0.00    +0.000 A 
ATOM     26  C   UNL     1      10.795  13.109  17.964  0.00  0.00    +0.000 A 
ATOM     27  C   UNL     1      10.589  13.833  19.142  0.00  0.00    +0.000 A 
BRANCH  22  32
ATOM     28  C   UNL     1       9.007  16.113  25.260  0.00  0.00    +0.000 C 
ATOM     29  C   UNL     1       9.217  15.389  23.967  0.00  0.00    +0.000 A 
ATOM     30  C   UNL     1       8.455  14.267  23.636  0.00  0.00    +0.000 A 
ATOM     31  C   UNL     1       8.666  13.596  22.427  0.00  0.00    +0.000 A 
ATOM     32  C   UNL     1       9.662  13.996  21.522  0.00  0.00    +0.000 A 
ATOM     33  C   UNL     1      10.416  15.133  21.876  0.00  0.00    +0.000 A 
ATOM     34  C   UNL     1      10.192  15.827  23.070  0.00  0.00    +0.000 A 
ENDBRANCH  22  32
BRANCH  27  35
ATOM     35  O   UNL     1      11.053  15.122  19.192  0.00  0.00    +0.000 OA
ATOM     36  H   UNL     1      11.653  15.278  18.446  0.00  0.00    +0.000 HD
ENDBRANCH  27  35
ENDBRANCH  20  24
ENDBRANCH   1  21
TORSDOF 8
ENDMDL
MODEL 7
REMARK VINA RESULT:      -8.7      1.106      1.299
REMARK  Name = 
REMARK  9 active torsions:
REMARK  status: ('A' for Active; 'I' for Inactive)
REMARK    1  A    between atoms: C_1  and  C_2
REMARK    2  A    between atoms: C_5  and  C_6
REMARK    3  A    between atoms: C_8  and  C_9
REMARK    4  A    between atoms: C_10  and  C_11
REMARK    5  A    between atoms: N_13  and  C_14
REMARK    6  A    between atoms: C_18  and  O_19
REMARK    7  A    between atoms: O_19  and  C_20
REMARK    8  A    between atoms: C_20  and  C_21
REMARK    9  A    between atoms: C_30  and  O_31
REMARK                            x       y       z     vdW  Elec       q    Type
REMARK                         _______ _______ _______ _____ _____    ______ ____
ROOT
ATOM      1  C   UNL     1       7.556   7.772  17.584  0.00  0.00    +0.000 C 
ATOM      2  O   UNL     1       6.756   8.278  16.811  0.00  0.00    +0.000 OA
ATOM      3  N   UNL     1       7.664   6.427  17.894  0.00  0.00    +0.000 N 
ATOM      4  H   UNL     1       8.252   6.155  18.670  0.00  0.00    +0.000 HD
ENDROOT
BRANCH   3   5
ATOM      5  C   UNL     1       6.876   5.405  17.305  0.00  0.00    +0.000 A 
ATOM      6  C   UNL     1       7.250   4.779  16.113  0.00  0.00    +0.000 A 
ATOM      7  C   UNL     1       6.417   3.849  15.502  0.00  0.00    +0.000 A 
ATOM      8  C   UNL     1       5.210   3.503  16.095  0.00  0.00    +0.000 A 
ATOM      9  C   UNL     1       4.845   4.055  17.325  0.00  0.00    +0.000 A 
ATOM     10  C   UNL     1       5.681   5.010  17.927  0.00  0.00    +0.000 A 
BRANCH   9  11
ATOM     11  O   UNL     1       3.675   3.764  17.989  0.00  0.00    +0.000 OA
BRANCH  11  12
ATOM     12  C   UNL     1       3.064   4.875  18.660  0.00  0.00    +0.000 C 
BRANCH  12  13
ATOM     13  C   UNL     1       1.612   4.550  19.052  0.00  0.00    +0.000 C 
ATOM     14  C   UNL     1       1.380   4.828  20.547  0.00  0.00    +0.000 C 
ATOM     15  C   UNL     1       2.045   3.783  21.448  0.00  0.00    +0.000 C 
ATOM     16  N   UNL     1       1.642   2.420  21.102  0.00  0.00    +0.000 NA
ATOM     17  C   UNL     1       1.930   2.110  19.700  0.00  0.00    +0.000 C 
ATOM     18  C   UNL     1       1.238   3.089  18.750  0.00  0.00    +0.000 C 
ATOM     19  H   UNL     1       0.639   2.320  21.262  0.00  0.00    +0.000 HD
ENDBRANCH  12  13
ENDBRANCH  11  12
ENDBRANCH   9  11
ENDBRANCH   3   5
BRANCH   1  21
ATOM     20  C   UNL     1       8.593   9.930  17.959  0.00  0.00    +0.000 C 
ATOM     21  C   UNL     1       8.510   8.640  18.331  0.00  0.00    +0.000 C 
BRANCH  20  24
ATOM     22  C   UNL     1      10.048  12.561  20.308  0.00  0.00    +0.000 A 
ATOM     23  C   UNL     1       9.190  11.596  19.738  0.00  0.00    +0.000 A 
ATOM     24  C   UNL     1       9.489  10.938  18.537  0.00  0.00    +0.000 A 
ATOM     25  C   UNL     1      10.714  11.191  17.918  0.00  0.00    +0.000 A 
ATOM     26  C   UNL     1      11.600  12.118  18.461  0.00  0.00    +0.000 A 
ATOM     27  C   UNL     1      11.263  12.802  19.633  0.00  0.00    +0.000 A 
BRANCH  22  32
ATOM     28  C   UNL     1       8.495  15.333  25.199  0.00  0.00    +0.000 C 
ATOM     29  C   UNL     1       8.872  14.615  23.940  0.00  0.00    +0.000 A 
ATOM     30  C   UNL     1       8.617  13.252  23.783  0.00  0.00    +0.000 A 
ATOM     31  C   UNL     1       8.979  12.593  22.603  0.00  0.00    +0.000 A 
ATOM     32  C   UNL     1       9.635  13.258  21.555  0.00  0.00    +0.000 A 
ATOM     33  C   UNL     1       9.879  14.634  21.735  0.00  0.00    +0.000 A 
ATOM     34  C   UNL     1       9.494  15.307  22.900  0.00  0.00    +0.000 A 
ENDBRANCH  22  32
BRANCH  27  35
ATOM     35  O   UNL     1      12.147  13.735  20.109  0.00  0.00    +0.000 OA
ATOM     36  H   UNL     1      12.656  13.353  20.842  0.00  0.00    +0.000 HD
ENDBRANCH  27  35
ENDBRANCH  20  24
ENDBRANCH   1  21
TORSDOF 8
ENDMDL
MODEL 8
REMARK VINA RESULT:      -8.7      6.273      8.951
REMARK  Name = 
REMARK  9 active torsions:
REMARK  status: ('A' for Active; 'I' for Inactive)
REMARK    1  A    between atoms: C_1  and  C_2
REMARK    2  A    between atoms: C_5  and  C_6
REMARK    3  A    between atoms: C_8  and  C_9
REMARK    4  A    between atoms: C_10  and  C_11
REMARK    5  A    between atoms: N_13  and  C_14
REMARK    6  A    between atoms: C_18  and  O_19
REMARK    7  A    between atoms: O_19  and  C_20
REMARK    8  A    between atoms: C_20  and  C_21
REMARK    9  A    between atoms: C_30  and  O_31
REMARK                            x       y       z     vdW  Elec       q    Type
REMARK                         _______ _______ _______ _____ _____    ______ ____
ROOT
ATOM      1  C   UNL     1       1.782   7.509  20.097  0.00  0.00    +0.000 C 
ATOM      2  O   UNL     1       2.299   7.536  18.990  0.00  0.00    +0.000 OA
ATOM      3  N   UNL     1       1.572   6.388  20.882  0.00  0.00    +0.000 N 
ATOM      4  H   UNL     1       0.987   6.473  21.702  0.00  0.00    +0.000 HD
ENDROOT
BRANCH   3   5
ATOM      5  C   UNL     1       1.984   5.076  20.530  0.00  0.00    +0.000 A 
ATOM      6  C   UNL     1       1.134   3.975  20.659  0.00  0.00    +0.000 A 
ATOM      7  C   UNL     1       1.588   2.687  20.401  0.00  0.00    +0.000 A 
ATOM      8  C   UNL     1       2.894   2.484  19.973  0.00  0.00    +0.000 A 
ATOM      9  C   UNL     1       3.743   3.573  19.762  0.00  0.00    +0.000 A 
ATOM     10  C   UNL     1       3.285   4.870  20.044  0.00  0.00    +0.000 A 
BRANCH   9  11
ATOM     11  O   UNL     1       5.046   3.467  19.331  0.00  0.00    +0.000 OA
BRANCH  11  12
ATOM     12  C   UNL     1       5.264   3.822  17.959  0.00  0.00    +0.000 C 
BRANCH  12  13
ATOM     13  C   UNL     1       6.290   4.963  17.842  0.00  0.00    +0.000 C 
ATOM     14  C   UNL     1       5.612   6.251  17.343  0.00  0.00    +0.000 C 
ATOM     15  C   UNL     1       5.250   6.185  15.856  0.00  0.00    +0.000 C 
ATOM     16  N   UNL     1       6.402   5.845  15.022  0.00  0.00    +0.000 NA
ATOM     17  C   UNL     1       7.014   4.579  15.433  0.00  0.00    +0.000 C 
ATOM     18  C   UNL     1       7.452   4.611  16.898  0.00  0.00    +0.000 C 
ATOM     19  H   UNL     1       7.099   6.587  15.101  0.00  0.00    +0.000 HD
ENDBRANCH  12  13
ENDBRANCH  11  12
ENDBRANCH   9  11
ENDBRANCH   3   5
BRANCH   1  21
ATOM     20  C   UNL     1       0.905   9.756  19.860  0.00  0.00    +0.000 C 
ATOM     21  C   UNL     1       1.266   8.770  20.702  0.00  0.00    +0.000 C 
BRANCH  20  24
ATOM     22  C   UNL     1      -1.268  12.517  21.346  0.00  0.00    +0.000 A 
ATOM     23  C   UNL     1      -0.785  11.248  20.961  0.00  0.00    +0.000 A 
ATOM     24  C   UNL     1       0.409  11.081  20.246  0.00  0.00    +0.000 A 
ATOM     25  C   UNL     1       1.188  12.205  19.966  0.00  0.00    +0.000 A 
ATOM     26  C   UNL     1       0.759  13.473  20.350  0.00  0.00    +0.000 A 
ATOM     27  C   UNL     1      -0.459  13.625  21.020  0.00  0.00    +0.000 A 
BRANCH  22  32
ATOM     28  C   UNL     1      -6.399  12.971  24.082  0.00  0.00    +0.000 C 
ATOM     29  C   UNL     1      -5.080  12.832  23.387  0.00  0.00    +0.000 A 
ATOM     30  C   UNL     1      -3.924  12.495  24.093  0.00  0.00    +0.000 A 
ATOM     31  C   UNL     1      -2.697  12.374  23.432  0.00  0.00    +0.000 A 
ATOM     32  C   UNL     1      -2.571  12.617  22.055  0.00  0.00    +0.000 A 
ATOM     33  C   UNL     1      -3.752  12.952  21.362  0.00  0.00    +0.000 A 
ATOM     34  C   UNL     1      -4.988  13.046  22.011  0.00  0.00    +0.000 A 
ENDBRANCH  22  32
BRANCH  27  35
ATOM     35  O   UNL     1      -0.860  14.896  21.341  0.00  0.00    +0.000 OA
ATOM     36  H   UNL     1      -1.735  14.861  21.761  0.00  0.00    +0.000 HD
ENDBRANCH  27  35
ENDBRANCH  20  24
ENDBRANCH   1  21
TORSDOF 8
ENDMDL
MODEL 9
REMARK VINA RESULT:      -8.6      1.599      1.997
REMARK  Name = 
REMARK  9 active torsions:
REMARK  status: ('A' for Active; 'I' for Inactive)
REMARK    1  A    between atoms: C_1  and  C_2
REMARK    2  A    between atoms: C_5  and  C_6
REMARK    3  A    between atoms: C_8  and  C_9
REMARK    4  A    between atoms: C_10  and  C_11
REMARK    5  A    between atoms: N_13  and  C_14
REMARK    6  A    between atoms: C_18  and  O_19
REMARK    7  A    between atoms: O_19  and  C_20
REMARK    8  A    between atoms: C_20  and  C_21
REMARK    9  A    between atoms: C_30  and  O_31
REMARK                            x       y       z     vdW  Elec       q    Type
REMARK                         _______ _______ _______ _____ _____    ______ ____
ROOT
ATOM      1  C   UNL     1       8.031   7.246  18.398  0.00  0.00    +0.000 C 
ATOM      2  O   UNL     1       8.216   6.282  19.126  0.00  0.00    +0.000 OA
ATOM      3  N   UNL     1       7.350   7.250  17.193  0.00  0.00    +0.000 N 
ATOM      4  H   UNL     1       7.408   8.071  16.606  0.00  0.00    +0.000 HD
ENDROOT
BRANCH   3   5
ATOM      5  C   UNL     1       6.704   6.116  16.636  0.00  0.00    +0.000 A 
ATOM      6  C   UNL     1       6.963   5.684  15.332  0.00  0.00    +0.000 A 
ATOM      7  C   UNL     1       6.250   4.631  14.773  0.00  0.00    +0.000 A 
ATOM      8  C   UNL     1       5.287   3.968  15.523  0.00  0.00    +0.000 A 
ATOM      9  C   UNL     1       5.060   4.328  16.854  0.00  0.00    +0.000 A 
ATOM     10  C   UNL     1       5.770   5.406  17.407  0.00  0.00    +0.000 A 
BRANCH   9  11
ATOM     11  O   UNL     1       4.136   3.722  17.673  0.00  0.00    +0.000 OA
BRANCH  11  12
ATOM     12  C   UNL     1       3.814   4.448  18.868  0.00  0.00    +0.000 C 
BRANCH  12  13
ATOM     13  C   UNL     1       2.379   5.000  18.806  0.00  0.00    +0.000 C 
ATOM     14  C   UNL     1       1.822   5.220  20.223  0.00  0.00    +0.000 C 
ATOM     15  C   UNL     1       1.475   3.905  20.927  0.00  0.00    +0.000 C 
ATOM     16  N   UNL     1       0.569   3.076  20.133  0.00  0.00    +0.000 NA
ATOM     17  C   UNL     1       1.119   2.789  18.807  0.00  0.00    +0.000 C 
ATOM     18  C   UNL     1       1.428   4.072  18.032  0.00  0.00    +0.000 C 
ATOM     19  H   UNL     1      -0.319   3.568  20.021  0.00  0.00    +0.000 HD
ENDBRANCH  12  13
ENDBRANCH  11  12
ENDBRANCH   9  11
ENDBRANCH   3   5
BRANCH   1  21
ATOM     20  C   UNL     1       8.593   9.533  17.827  0.00  0.00    +0.000 C 
ATOM     21  C   UNL     1       8.607   8.571  18.767  0.00  0.00    +0.000 C 
BRANCH  20  24
ATOM     22  C   UNL     1       8.866  13.268  18.555  0.00  0.00    +0.000 A 
ATOM     23  C   UNL     1       8.351  11.963  18.404  0.00  0.00    +0.000 A 
ATOM     24  C   UNL     1       9.138  10.887  17.972  0.00  0.00    +0.000 A 
ATOM     25  C   UNL     1      10.501  11.097  17.751  0.00  0.00    +0.000 A 
ATOM     26  C   UNL     1      11.054  12.365  17.913  0.00  0.00    +0.000 A 
ATOM     27  C   UNL     1      10.242  13.437  18.298  0.00  0.00    +0.000 A 
BRANCH  22  32
ATOM     28  C   UNL     1       5.266  17.544  20.224  0.00  0.00    +0.000 C 
ATOM     29  C   UNL     1       6.201  16.462  19.781  0.00  0.00    +0.000 A 
ATOM     30  C   UNL     1       6.303  16.101  18.437  0.00  0.00    +0.000 A 
ATOM     31  C   UNL     1       7.177  15.084  18.038  0.00  0.00    +0.000 A 
ATOM     32  C   UNL     1       7.953  14.369  18.964  0.00  0.00    +0.000 A 
ATOM     33  C   UNL     1       7.836  14.753  20.315  0.00  0.00    +0.000 A 
ATOM     34  C   UNL     1       6.987  15.788  20.718  0.00  0.00    +0.000 A 
ENDBRANCH  22  32
BRANCH  27  35
ATOM     35  O   UNL     1      10.821  14.675  18.404  0.00  0.00    +0.000 OA
ATOM     36  H   UNL     1      11.728  14.637  18.062  0.00  0.00    +0.000 HD
ENDBRANCH  27  35
ENDBRANCH  20  24
ENDBRANCH   1  21
TORSDOF 8
ENDMDL
