MODEL 1
REMARK VINA RESULT:      -9.1      0.000      0.000
REMARK  Name = 
REMARK  5 active torsions:
REMARK  status: ('A' for Active; 'I' for Inactive)
REMARK    1  A    between atoms: C_2  and  C_3
REMARK    2  A    between atoms: C_2  and  C_10
REMARK    3  A    between atoms: N_13  and  C_14
REMARK    4  A    between atoms: C_14  and  C_15
REMARK    5  A    between atoms: C_15  and  C_16
REMARK                            x       y       z     vdW  Elec       q    Type
REMARK                         _______ _______ _______ _____ _____    ______ ____
ROOT
ATOM      1  C   UNL     1       6.376   4.659  17.691  0.00  0.00    +0.000 C 
ATOM      2  C   UNL     1       7.754   4.998  18.253  0.00  0.00    +0.000 C 
ATOM      3  C   UNL     1       7.901   6.489  18.535  0.00  0.00    +0.000 C 
ATOM      4  N   UNL     1       7.623   7.335  17.367  0.00  0.00    +0.000 NA
ATOM      5  C   UNL     1       6.328   7.017  16.737  0.00  0.00    +0.000 C 
ATOM      6  C   UNL     1       6.158   5.525  16.443  0.00  0.00    +0.000 C 
ENDROOT
BRANCH   1   8
ATOM      7  O   UNL     1       5.367   5.585  19.696  0.00  0.00    +0.000 OA
ATOM      8  C   UNL     1       5.252   4.841  18.725  0.00  0.00    +0.000 C 
BRANCH   8   9
ATOM      9  C   UNL     1       3.937   4.146  18.541  0.00  0.00    +0.000 A 
ATOM     10  C   UNL     1       3.861   2.781  18.876  0.00  0.00    +0.000 A 
ATOM     11  C   UNL     1       2.638   2.109  18.847  0.00  0.00    +0.000 A 
ATOM     12  C   UNL     1       1.494   2.796  18.464  0.00  0.00    +0.000 A 
ATOM     13  F   UNL     1       0.310   2.171  18.482  0.00  0.00    +0.000 F 
ATOM     14  C   UNL     1       1.557   4.129  18.077  0.00  0.00    +0.000 A 
ATOM     15  C   UNL     1       2.778   4.808  18.118  0.00  0.00    +0.000 A 
ENDBRANCH   8   9
ENDBRANCH   1   8
BRANCH   4  16
ATOM     16  C   UNL     1       7.612   8.765  17.747  0.00  0.00    +0.000 C 
BRANCH  16  17
ATOM     17  C   UNL     1       8.798   9.162  18.636  0.00  0.00    +0.000 C 
BRANCH  17  18
ATOM     18  C   UNL     1       9.086  10.666  18.679  0.00  0.00    +0.000 C 
ATOM     19  C   UNL     1      10.224  11.085  17.723  0.00  0.00    +0.000 C 
ATOM     20  C   UNL     1      10.354  12.612  17.644  0.00  0.00    +0.000 C 
ATOM     21  C   UNL     1      10.359  13.185  19.028  0.00  0.00    +0.000 A 
ATOM     22  S   UNL     1      10.918  14.762  19.344  0.00  0.00    +0.000 S 
ATOM     23  C   UNL     1      10.592  14.597  21.017  0.00  0.00    +0.000 A 
ATOM     24  C   UNL     1      10.072  13.357  21.325  0.00  0.00    +0.000 A 
ATOM     25  C   UNL     1       9.915  12.539  20.166  0.00  0.00    +0.000 A 
ATOM     26  C   UNL     1       9.355  11.188  20.098  0.00  0.00    +0.000 C 
ATOM     27  O   UNL     1       9.050  10.566  21.108  0.00  0.00    +0.000 OA
ENDBRANCH  17  18
ENDBRANCH  16  17
ENDBRANCH   4  16
TORSDOF 5
ENDMDL
MODEL 2
REMARK VINA RESULT:      -8.8      1.469      1.780
REMARK  Name = 
REMARK  5 active torsions:
REMARK  status: ('A' for Active; 'I' for Inactive)
REMARK    1  A    between atoms: C_2  and  C_3
REMARK    2  A    between atoms: C_2  and  C_10
REMARK    3  A    between atoms: N_13  and  C_14
REMARK    4  A    between atoms: C_14  and  C_15
REMARK    5  A    between atoms: C_15  and  C_16
REMARK                            x       y       z     vdW  Elec       q    Type
REMARK                         _______ _______ _______ _____ _____    ______ ____
ROOT
ATOM      1  C   UNL     1       5.551   4.800  16.524  0.00  0.00    +0.000 C 
ATOM      2  C   UNL     1       7.061   4.714  16.320  0.00  0.00    +0.000 C 
ATOM      3  C   UNL     1       7.808   5.723  17.185  0.00  0.00    +0.000 C 
ATOM      4  N   UNL     1       7.361   7.108  16.988  0.00  0.00    +0.000 NA
ATOM      5  C   UNL     1       5.899   7.250  17.113  0.00  0.00    +0.000 C 
ATOM      6  C   UNL     1       5.126   6.249  16.251  0.00  0.00    +0.000 C 
ENDROOT
BRANCH   1   8
ATOM      7  O   UNL     1       5.871   4.336  18.885  0.00  0.00    +0.000 OA
ATOM      8  C   UNL     1       5.113   4.322  17.919  0.00  0.00    +0.000 C 
BRANCH   8   9
ATOM      9  C   UNL     1       3.703   3.870  18.154  0.00  0.00    +0.000 A 
ATOM     10  C   UNL     1       3.380   2.534  17.851  0.00  0.00    +0.000 A 
ATOM     11  C   UNL     1       2.122   2.018  18.165  0.00  0.00    +0.000 A 
ATOM     12  C   UNL     1       1.179   2.844  18.763  0.00  0.00    +0.000 A 
ATOM     13  F   UNL     1      -0.013   2.342  19.112  0.00  0.00    +0.000 F 
ATOM     14  C   UNL     1       1.459   4.180  19.019  0.00  0.00    +0.000 A 
ATOM     15  C   UNL     1       2.723   4.695  18.719  0.00  0.00    +0.000 A 
ENDBRANCH   8   9
ENDBRANCH   1   8
BRANCH   4  16
ATOM     16  C   UNL     1       7.998   8.009  17.974  0.00  0.00    +0.000 C 
BRANCH  16  17
ATOM     17  C   UNL     1       7.709   9.492  17.710  0.00  0.00    +0.000 C 
BRANCH  17  18
ATOM     18  C   UNL     1       8.860  10.438  18.067  0.00  0.00    +0.000 C 
ATOM     19  C   UNL     1       9.314  10.299  19.536  0.00  0.00    +0.000 C 
ATOM     20  C   UNL     1      10.588  11.111  19.807  0.00  0.00    +0.000 C 
ATOM     21  C   UNL     1      10.423  12.495  19.257  0.00  0.00    +0.000 A 
ATOM     22  S   UNL     1      11.428  13.780  19.744  0.00  0.00    +0.000 S 
ATOM     23  C   UNL     1      10.611  14.877  18.714  0.00  0.00    +0.000 A 
ATOM     24  C   UNL     1       9.588  14.271  18.016  0.00  0.00    +0.000 A 
ATOM     25  C   UNL     1       9.489  12.878  18.313  0.00  0.00    +0.000 A 
ATOM     26  C   UNL     1       8.558  11.908  17.735  0.00  0.00    +0.000 C 
ATOM     27  O   UNL     1       7.661  12.250  16.974  0.00  0.00    +0.000 OA
ENDBRANCH  17  18
ENDBRANCH  16  17
ENDBRANCH   4  16
TORSDOF 5
ENDMDL
MODEL 3
REMARK VINA RESULT:      -8.6      1.719      2.095
REMARK  Name = 
REMARK  5 active torsions:
REMARK  status: ('A' for Active; 'I' for Inactive)
REMARK    1  A    between atoms: C_2  and  C_3
REMARK    2  A    between atoms: C_2  and  C_10
REMARK    3  A    between atoms: N_13  and  C_14
REMARK    4  A    between atoms: C_14  and  C_15
REMARK    5  A    between atoms: C_15  and  C_16
REMARK                            x       y       z     vdW  Elec       q    Type
REMARK                         _______ _______ _______ _____ _____    ______ ____
ROOT
ATOM      1  C   UNL     1       5.409   5.130  17.101  0.00  0.00    +0.000 C 
ATOM      2  C   UNL     1       6.484   4.656  18.075  0.00  0.00    +0.000 C 
ATOM      3  C   UNL     1       7.171   5.823  18.775  0.00  0.00    +0.000 C 
ATOM      4  N   UNL     1       7.745   6.806  17.847  0.00  0.00    +0.000 NA
ATOM      5  C   UNL     1       6.771   7.263  16.838  0.00  0.00    +0.000 C 
ATOM      6  C   UNL     1       6.070   6.108  16.120  0.00  0.00    +0.000 C 
ENDROOT
BRANCH   1   8
ATOM      7  O   UNL     1       3.865   6.925  17.636  0.00  0.00    +0.000 OA
ATOM      8  C   UNL     1       4.198   5.756  17.813  0.00  0.00    +0.000 C 
BRANCH   8   9
ATOM      9  C   UNL     1       3.339   4.924  18.717  0.00  0.00    +0.000 A 
ATOM     10  C   UNL     1       3.096   5.402  20.018  0.00  0.00    +0.000 A 
ATOM     11  C   UNL     1       2.205   4.738  20.864  0.00  0.00    +0.000 A 
ATOM     12  C   UNL     1       1.573   3.586  20.416  0.00  0.00    +0.000 A 
ATOM     13  F   UNL     1       0.680   2.973  21.203  0.00  0.00    +0.000 F 
ATOM     14  C   UNL     1       1.842   3.067  19.155  0.00  0.00    +0.000 A 
ATOM     15  C   UNL     1       2.723   3.737  18.302  0.00  0.00    +0.000 A 
ENDBRANCH   8   9
ENDBRANCH   1   8
BRANCH   4  16
ATOM     16  C   UNL     1       8.239   7.992  18.581  0.00  0.00    +0.000 C 
BRANCH  16  17
ATOM     17  C   UNL     1       8.066   9.301  17.798  0.00  0.00    +0.000 C 
BRANCH  17  18
ATOM     18  C   UNL     1       9.047  10.411  18.190  0.00  0.00    +0.000 C 
ATOM     19  C   UNL     1       9.439  10.363  19.682  0.00  0.00    +0.000 C 
ATOM     20  C   UNL     1      10.565  11.358  19.996  0.00  0.00    +0.000 C 
ATOM     21  C   UNL     1      10.230  12.693  19.406  0.00  0.00    +0.000 A 
ATOM     22  S   UNL     1      11.010  14.119  19.912  0.00  0.00    +0.000 S 
ATOM     23  C   UNL     1      10.098  15.068  18.817  0.00  0.00    +0.000 A 
ATOM     24  C   UNL     1       9.211  14.307  18.084  0.00  0.00    +0.000 A 
ATOM     25  C   UNL     1       9.301  12.919  18.409  0.00  0.00    +0.000 A 
ATOM     26  C   UNL     1       8.552  11.814  17.808  0.00  0.00    +0.000 C 
ATOM     27  O   UNL     1       7.656  12.009  16.996  0.00  0.00    +0.000 OA
ENDBRANCH  17  18
ENDBRANCH  16  17
ENDBRANCH   4  16
TORSDOF 5
ENDMDL
MODEL 4
REMARK VINA RESULT:      -8.6      5.954      7.983
REMARK  Name = 
REMARK  5 active torsions:
REMARK  status: ('A' for Active; 'I' for Inactive)
REMARK    1  A    between atoms: C_2  and  C_3
REMARK    2  A    between atoms: C_2  and  C_10
REMARK    3  A    between atoms: N_13  and  C_14
REMARK    4  A    between atoms: C_14  and  C_15
REMARK    5  A    between atoms: C_15  and  C_16
REMARK                            x       y       z     vdW  Elec       q    Type
REMARK                         _______ _______ _______ _____ _____    ______ ____
ROOT
ATOM      1  C   UNL     1       2.921   3.669  18.636  0.00  0.00    +0.000 C 
ATOM      2  C   UNL     1       2.247   4.705  17.742  0.00  0.00    +0.000 C 
ATOM      3  C   UNL     1       2.350   6.111  18.324  0.00  0.00    +0.000 C 
ATOM      4  N   UNL     1       1.820   6.219  19.689  0.00  0.00    +0.000 NA
ATOM      5  C   UNL     1       2.387   5.203  20.595  0.00  0.00    +0.000 C 
ATOM      6  C   UNL     1       2.294   3.783  20.032  0.00  0.00    +0.000 C 
ENDROOT
BRANCH   1   8
ATOM      7  O   UNL     1       5.109   3.570  19.681  0.00  0.00    +0.000 OA
ATOM      8  C   UNL     1       4.451   3.823  18.676  0.00  0.00    +0.000 C 
BRANCH   8   9
ATOM      9  C   UNL     1       5.200   4.240  17.447  0.00  0.00    +0.000 A 
ATOM     10  C   UNL     1       6.127   5.293  17.565  0.00  0.00    +0.000 A 
ATOM     11  C   UNL     1       6.945   5.643  16.490  0.00  0.00    +0.000 A 
ATOM     12  C   UNL     1       6.823   4.955  15.291  0.00  0.00    +0.000 A 
ATOM     13  F   UNL     1       7.640   5.253  14.272  0.00  0.00    +0.000 F 
ATOM     14  C   UNL     1       5.876   3.950  15.136  0.00  0.00    +0.000 A 
ATOM     15  C   UNL     1       5.065   3.588  16.215  0.00  0.00    +0.000 A 
ENDBRANCH   8   9
ENDBRANCH   1   8
BRANCH   4  16
ATOM     16  C   UNL     1       2.106   7.555  20.258  0.00  0.00    +0.000 C 
BRANCH  16  17
ATOM     17  C   UNL     1       1.210   7.905  21.453  0.00  0.00    +0.000 C 
BRANCH  17  18
ATOM     18  C   UNL     1       0.173   8.997  21.171  0.00  0.00    +0.000 C 
ATOM     19  C   UNL     1       0.447   9.758  19.856  0.00  0.00    +0.000 C 
ATOM     20  C   UNL     1      -0.710  10.703  19.505  0.00  0.00    +0.000 C 
ATOM     21  C   UNL     1      -1.079  11.509  20.712  0.00  0.00    +0.000 A 
ATOM     22  S   UNL     1      -1.997  12.938  20.591  0.00  0.00    +0.000 S 
ATOM     23  C   UNL     1      -1.949  13.173  22.286  0.00  0.00    +0.000 A 
ATOM     24  C   UNL     1      -1.240  12.181  22.929  0.00  0.00    +0.000 A 
ATOM     25  C   UNL     1      -0.749  11.197  22.017  0.00  0.00    +0.000 A 
ATOM     26  C   UNL     1       0.003   9.983  22.337  0.00  0.00    +0.000 C 
ATOM     27  O   UNL     1       0.388   9.744  23.475  0.00  0.00    +0.000 OA
ENDBRANCH  17  18
ENDBRANCH  16  17
ENDBRANCH   4  16
TORSDOF 5
ENDMDL
MODEL 5
REMARK VINA RESULT:      -8.4      1.368      1.823
REMARK  Name = 
REMARK  5 active torsions:
REMARK  status: ('A' for Active; 'I' for Inactive)
REMARK    1  A    between atoms: C_2  and  C_3
REMARK    2  A    between atoms: C_2  and  C_10
REMARK    3  A    between atoms: N_13  and  C_14
REMARK    4  A    between atoms: C_14  and  C_15
REMARK    5  A    between atoms: C_15  and  C_16
REMARK                            x       y       z     vdW  Elec       q    Type
REMARK                         _______ _______ _______ _____ _____    ______ ____
ROOT
ATOM      1  C   UNL     1       5.952   4.965  17.265  0.00  0.00    +0.000 C 
ATOM      2  C   UNL     1       7.126   4.663  18.192  0.00  0.00    +0.000 C 
ATOM      3  C   UNL     1       7.631   5.919  18.894  0.00  0.00    +0.000 C 
ATOM      4  N   UNL     1       7.998   6.999  17.970  0.00  0.00    +0.000 NA
ATOM      5  C   UNL     1       6.926   7.301  17.003  0.00  0.00    +0.000 C 
ATOM      6  C   UNL     1       6.403   6.055  16.284  0.00  0.00    +0.000 C 
ENDROOT
BRANCH   1   8
ATOM      7  O   UNL     1       4.491   6.510  18.436  0.00  0.00    +0.000 OA
ATOM      8  C   UNL     1       4.679   5.366  18.029  0.00  0.00    +0.000 C 
BRANCH   8   9
ATOM      9  C   UNL     1       3.585   4.366  18.254  0.00  0.00    +0.000 A 
ATOM     10  C   UNL     1       2.468   4.769  19.007  0.00  0.00    +0.000 A 
ATOM     11  C   UNL     1       1.362   3.928  19.145  0.00  0.00    +0.000 A 
ATOM     12  C   UNL     1       1.382   2.676  18.547  0.00  0.00    +0.000 A 
ATOM     13  F   UNL     1       0.305   1.885  18.632  0.00  0.00    +0.000 F 
ATOM     14  C   UNL     1       2.498   2.237  17.845  0.00  0.00    +0.000 A 
ATOM     15  C   UNL     1       3.600   3.082  17.693  0.00  0.00    +0.000 A 
ENDBRANCH   8   9
ENDBRANCH   1   8
BRANCH   4  16
ATOM     16  C   UNL     1       8.311   8.240  18.712  0.00  0.00    +0.000 C 
BRANCH  16  17
ATOM     17  C   UNL     1       8.272   9.496  17.831  0.00  0.00    +0.000 C 
BRANCH  17  18
ATOM     18  C   UNL     1       9.178  10.636  18.307  0.00  0.00    +0.000 C 
ATOM     19  C   UNL     1       9.482  10.566  19.820  0.00  0.00    +0.000 C 
ATOM     20  C   UNL     1      10.542  11.599  20.225  0.00  0.00    +0.000 C 
ATOM     21  C   UNL     1      10.184  12.934  19.647  0.00  0.00    +0.000 A 
ATOM     22  S   UNL     1      10.869  14.378  20.233  0.00  0.00    +0.000 S 
ATOM     23  C   UNL     1       9.983  15.315  19.108  0.00  0.00    +0.000 A 
ATOM     24  C   UNL     1       9.176  14.537  18.304  0.00  0.00    +0.000 A 
ATOM     25  C   UNL     1       9.307  13.147  18.601  0.00  0.00    +0.000 A 
ATOM     26  C   UNL     1       8.645  12.027  17.930  0.00  0.00    +0.000 C 
ATOM     27  O   UNL     1       7.792  12.204  17.070  0.00  0.00    +0.000 OA
ENDBRANCH  17  18
ENDBRANCH  16  17
ENDBRANCH   4  16
TORSDOF 5
ENDMDL
MODEL 6
REMARK VINA RESULT:      -8.4      6.022      7.861
REMARK  Name = 
REMARK  5 active torsions:
REMARK  status: ('A' for Active; 'I' for Inactive)
REMARK    1  A    between atoms: C_2  and  C_3
REMARK    2  A    between atoms: C_2  and  C_10
REMARK    3  A    between atoms: N_13  and  C_14
REMARK    4  A    between atoms: C_14  and  C_15
REMARK    5  A    between atoms: C_15  and  C_16
REMARK                            x       y       z     vdW  Elec       q    Type
REMARK                         _______ _______ _______ _____ _____    ______ ____
ROOT
ATOM      1  C   UNL     1       3.476   3.091  18.309  0.00  0.00    +0.000 C 
ATOM      2  C   UNL     1       2.429   3.990  17.657  0.00  0.00    +0.000 C 
ATOM      3  C   UNL     1       2.129   5.220  18.507  0.00  0.00    +0.000 C 
ATOM      4  N   UNL     1       1.717   4.898  19.879  0.00  0.00    +0.000 NA
ATOM      5  C   UNL     1       2.657   3.981  20.549  0.00  0.00    +0.000 C 
ATOM      6  C   UNL     1       2.972   2.737  19.715  0.00  0.00    +0.000 C 
ENDROOT
BRANCH   1   8
ATOM      7  O   UNL     1       5.516   3.854  19.381  0.00  0.00    +0.000 OA
ATOM      8  C   UNL     1       4.873   3.733  18.341  0.00  0.00    +0.000 C 
BRANCH   8   9
ATOM      9  C   UNL     1       5.525   4.186  17.070  0.00  0.00    +0.000 A 
ATOM     10  C   UNL     1       6.531   5.167  17.158  0.00  0.00    +0.000 A 
ATOM     11  C   UNL     1       7.262   5.538  16.029  0.00  0.00    +0.000 A 
ATOM     12  C   UNL     1       6.975   4.945  14.807  0.00  0.00    +0.000 A 
ATOM     13  F   UNL     1       7.706   5.260  13.731  0.00  0.00    +0.000 F 
ATOM     14  C   UNL     1       5.950   4.015  14.688  0.00  0.00    +0.000 A 
ATOM     15  C   UNL     1       5.225   3.631  15.820  0.00  0.00    +0.000 A 
ENDBRANCH   8   9
ENDBRANCH   1   8
BRANCH   4  16
ATOM     16  C   UNL     1       1.610   6.127  20.696  0.00  0.00    +0.000 C 
BRANCH  16  17
ATOM     17  C   UNL     1       2.109   7.381  19.966  0.00  0.00    +0.000 C 
BRANCH  17  18
ATOM     18  C   UNL     1       1.420   8.681  20.393  0.00  0.00    +0.000 C 
ATOM     19  C   UNL     1       0.292   8.451  21.422  0.00  0.00    +0.000 C 
ATOM     20  C   UNL     1      -0.242   9.780  21.973  0.00  0.00    +0.000 C 
ATOM     21  C   UNL     1      -0.516  10.717  20.837  0.00  0.00    +0.000 A 
ATOM     22  S   UNL     1      -1.506  12.089  21.024  0.00  0.00    +0.000 S 
ATOM     23  C   UNL     1      -1.286  12.535  19.386  0.00  0.00    +0.000 A 
ATOM     24  C   UNL     1      -0.474  11.648  18.710  0.00  0.00    +0.000 A 
ATOM     25  C   UNL     1      -0.006  10.599  19.558  0.00  0.00    +0.000 A 
ATOM     26  C   UNL     1       0.904   9.508  19.205  0.00  0.00    +0.000 C 
ATOM     27  O   UNL     1       1.283   9.332  18.054  0.00  0.00    +0.000 OA
ENDBRANCH  17  18
ENDBRANCH  16  17
ENDBRANCH   4  16
TORSDOF 5
ENDMDL
MODEL 7
REMARK VINA RESULT:      -8.3      5.786      7.417
REMARK  Name = 
REMARK  5 active torsions:
REMARK  status: ('A' for Active; 'I' for Inactive)
REMARK    1  A    between atoms: C_2  and  C_3
REMARK    2  A    between atoms: C_2  and  C_10
REMARK    3  A    between atoms: N_13  and  C_14
REMARK    4  A    between atoms: C_14  and  C_15
REMARK    5  A    between atoms: C_15  and  C_16
REMARK                            x       y       z     vdW  Elec       q    Type
REMARK                         _______ _______ _______ _____ _____    ______ ____
ROOT
ATOM      1  C   UNL     1       3.300   2.470  18.426  0.00  0.00    +0.000 C 
ATOM      2  C   UNL     1       1.877   2.228  18.920  0.00  0.00    +0.000 C 
ATOM      3  C   UNL     1       1.244   3.502  19.471  0.00  0.00    +0.000 C 
ATOM      4  N   UNL     1       2.034   4.136  20.533  0.00  0.00    +0.000 NA
ATOM      5  C   UNL     1       3.441   4.344  20.141  0.00  0.00    +0.000 C 
ATOM      6  C   UNL     1       4.098   3.078  19.587  0.00  0.00    +0.000 C 
ENDROOT
BRANCH   1   8
ATOM      7  O   UNL     1       2.433   3.380  16.350  0.00  0.00    +0.000 OA
ATOM      8  C   UNL     1       3.350   3.351  17.166  0.00  0.00    +0.000 C 
BRANCH   8   9
ATOM      9  C   UNL     1       4.517   4.259  16.925  0.00  0.00    +0.000 A 
ATOM     10  C   UNL     1       4.334   5.639  17.137  0.00  0.00    +0.000 A 
ATOM     11  C   UNL     1       5.413   6.520  17.053  0.00  0.00    +0.000 A 
ATOM     12  C   UNL     1       6.671   6.027  16.736  0.00  0.00    +0.000 A 
ATOM     13  F   UNL     1       7.719   6.859  16.703  0.00  0.00    +0.000 F 
ATOM     14  C   UNL     1       6.862   4.677  16.470  0.00  0.00    +0.000 A 
ATOM     15  C   UNL     1       5.787   3.790  16.567  0.00  0.00    +0.000 A 
ENDBRANCH   8   9
ENDBRANCH   1   8
BRANCH   4  16
ATOM     16  C   UNL     1       1.460   5.449  20.901  0.00  0.00    +0.000 C 
BRANCH  16  17
ATOM     17  C   UNL     1       2.283   6.634  20.380  0.00  0.00    +0.000 C 
BRANCH  17  18
ATOM     18  C   UNL     1       1.449   7.820  19.885  0.00  0.00    +0.000 C 
ATOM     19  C   UNL     1       2.019   8.456  18.598  0.00  0.00    +0.000 C 
ATOM     20  C   UNL     1       1.059   9.506  18.022  0.00  0.00    +0.000 C 
ATOM     21  C   UNL     1       0.613  10.427  19.115  0.00  0.00    +0.000 A 
ATOM     22  S   UNL     1      -0.087  11.943  18.782  0.00  0.00    +0.000 S 
ATOM     23  C   UNL     1      -0.274  12.281  20.450  0.00  0.00    +0.000 A 
ATOM     24  C   UNL     1       0.196  11.255  21.244  0.00  0.00    +0.000 A 
ATOM     25  C   UNL     1       0.694  10.164  20.469  0.00  0.00    +0.000 A 
ATOM     26  C   UNL     1       1.227   8.893  20.961  0.00  0.00    +0.000 C 
ATOM     27  O   UNL     1       1.398   8.685  22.156  0.00  0.00    +0.000 OA
ENDBRANCH  17  18
ENDBRANCH  16  17
ENDBRANCH   4  16
TORSDOF 5
ENDMDL
MODEL 8
REMARK VINA RESULT:      -8.2      5.865      7.726
REMARK  Name = 
REMARK  5 active torsions:
REMARK  status: ('A' for Active; 'I' for Inactive)
REMARK    1  A    between atoms: C_2  and  C_3
REMARK    2  A    between atoms: C_2  and  C_10
REMARK    3  A    between atoms: N_13  and  C_14
REMARK    4  A    between atoms: C_14  and  C_15
REMARK    5  A    between atoms: C_15  and  C_16
REMARK                            x       y       z     vdW  Elec       q    Type
REMARK                         _______ _______ _______ _____ _____    ______ ____
ROOT
ATOM      1  C   UNL     1       3.149   2.632  18.560  0.00  0.00    +0.000 C 
ATOM      2  C   UNL     1       1.720   2.436  19.057  0.00  0.00    +0.000 C 
ATOM      3  C   UNL     1       1.108   3.741  19.552  0.00  0.00    +0.000 C 
ATOM      4  N   UNL     1       1.904   4.406  20.591  0.00  0.00    +0.000 NA
ATOM      5  C   UNL     1       3.316   4.573  20.197  0.00  0.00    +0.000 C 
ATOM      6  C   UNL     1       3.954   3.274  19.699  0.00  0.00    +0.000 C 
ENDROOT
BRANCH   1   8
ATOM      7  O   UNL     1       2.300   3.482  16.451  0.00  0.00    +0.000 OA
ATOM      8  C   UNL     1       3.220   3.459  17.265  0.00  0.00    +0.000 C 
BRANCH   8   9
ATOM      9  C   UNL     1       4.413   4.322  16.984  0.00  0.00    +0.000 A 
ATOM     10  C   UNL     1       4.267   5.714  17.126  0.00  0.00    +0.000 A 
ATOM     11  C   UNL     1       5.370   6.561  17.002  0.00  0.00    +0.000 A 
ATOM     12  C   UNL     1       6.615   6.017  16.715  0.00  0.00    +0.000 A 
ATOM     13  F   UNL     1       7.685   6.818  16.644  0.00  0.00    +0.000 F 
ATOM     14  C   UNL     1       6.769   4.651  16.516  0.00  0.00    +0.000 A 
ATOM     15  C   UNL     1       5.670   3.800  16.654  0.00  0.00    +0.000 A 
ENDBRANCH   8   9
ENDBRANCH   1   8
BRANCH   4  16
ATOM     16  C   UNL     1       1.351   5.743  20.901  0.00  0.00    +0.000 C 
BRANCH  16  17
ATOM     17  C   UNL     1       2.081   6.880  20.173  0.00  0.00    +0.000 C 
BRANCH  17  18
ATOM     18  C   UNL     1       1.593   8.285  20.539  0.00  0.00    +0.000 C 
ATOM     19  C   UNL     1       0.422   8.269  21.545  0.00  0.00    +0.000 C 
ATOM     20  C   UNL     1       0.089   9.683  22.039  0.00  0.00    +0.000 C 
ATOM     21  C   UNL     1      -0.013  10.610  20.867  0.00  0.00    +0.000 A 
ATOM     22  S   UNL     1      -0.782  12.124  20.984  0.00  0.00    +0.000 S 
ATOM     23  C   UNL     1      -0.461  12.472  19.339  0.00  0.00    +0.000 A 
ATOM     24  C   UNL     1       0.217  11.447  18.714  0.00  0.00    +0.000 A 
ATOM     25  C   UNL     1       0.499  10.369  19.607  0.00  0.00    +0.000 A 
ATOM     26  C   UNL     1       1.236   9.138  19.313  0.00  0.00    +0.000 C 
ATOM     27  O   UNL     1       1.608   8.865  18.178  0.00  0.00    +0.000 OA
ENDBRANCH  17  18
ENDBRANCH  16  17
ENDBRANCH   4  16
TORSDOF 5
ENDMDL
MODEL 9
REMARK VINA RESULT:      -8.2      5.809      7.922
REMARK  Name = 
REMARK  5 active torsions:
REMARK  status: ('A' for Active; 'I' for Inactive)
REMARK    1  A    between atoms: C_2  and  C_3
REMARK    2  A    between atoms: C_2  and  C_10
REMARK    3  A    between atoms: N_13  and  C_14
REMARK    4  A    between atoms: C_14  and  C_15
REMARK    5  A    between atoms: C_15  and  C_16
REMARK                            x       y       z     vdW  Elec       q    Type
REMARK                         _______ _______ _______ _____ _____    ______ ____
ROOT
ATOM      1  C   UNL     1       2.680   2.718  19.196  0.00  0.00    +0.000 C 
ATOM      2  C   UNL     1       2.077   3.819  18.329  0.00  0.00    +0.000 C 
ATOM      3  C   UNL     1       2.113   5.174  19.027  0.00  0.00    +0.000 C 
ATOM      4  N   UNL     1       1.464   5.172  20.344  0.00  0.00    +0.000 NA
ATOM      5  C   UNL     1       1.960   4.090  21.214  0.00  0.00    +0.000 C 
ATOM      6  C   UNL     1       1.932   2.718  20.536  0.00  0.00    +0.000 C 
ENDROOT
BRANCH   1   8
ATOM      7  O   UNL     1       4.837   2.184  20.174  0.00  0.00    +0.000 OA
ATOM      8  C   UNL     1       4.199   2.874  19.383  0.00  0.00    +0.000 C 
BRANCH   8   9
ATOM      9  C   UNL     1       4.967   3.852  18.546  0.00  0.00    +0.000 A 
ATOM     10  C   UNL     1       5.697   4.856  19.209  0.00  0.00    +0.000 A 
ATOM     11  C   UNL     1       6.531   5.717  18.495  0.00  0.00    +0.000 A 
ATOM     12  C   UNL     1       6.619   5.590  17.115  0.00  0.00    +0.000 A 
ATOM     13  F   UNL     1       7.455   6.380  16.430  0.00  0.00    +0.000 F 
ATOM     14  C   UNL     1       5.864   4.642  16.436  0.00  0.00    +0.000 A 
ATOM     15  C   UNL     1       5.039   3.769  17.150  0.00  0.00    +0.000 A 
ENDBRANCH   8   9
ENDBRANCH   1   8
BRANCH   4  16
ATOM     16  C   UNL     1       1.685   6.460  21.039  0.00  0.00    +0.000 C 
BRANCH  16  17
ATOM     17  C   UNL     1       1.907   7.634  20.076  0.00  0.00    +0.000 C 
BRANCH  17  18
ATOM     18  C   UNL     1       1.220   8.938  20.494  0.00  0.00    +0.000 C 
ATOM     19  C   UNL     1       0.115   8.720  21.550  0.00  0.00    +0.000 C 
ATOM     20  C   UNL     1      -0.414  10.056  22.089  0.00  0.00    +0.000 C 
ATOM     21  C   UNL     1      -0.717  10.971  20.943  0.00  0.00    +0.000 A 
ATOM     22  S   UNL     1      -1.710  12.342  21.127  0.00  0.00    +0.000 S 
ATOM     23  C   UNL     1      -1.526  12.760  19.477  0.00  0.00    +0.000 A 
ATOM     24  C   UNL     1      -0.724  11.865  18.800  0.00  0.00    +0.000 A 
ATOM     25  C   UNL     1      -0.233  10.833  19.656  0.00  0.00    +0.000 A 
ATOM     26  C   UNL     1       0.675   9.741  19.303  0.00  0.00    +0.000 C 
ATOM     27  O   UNL     1       1.032   9.547  18.148  0.00  0.00    +0.000 OA
ENDBRANCH  17  18
ENDBRANCH  16  17
ENDBRANCH   4  16
TORSDOF 5
ENDMDL
