MODEL 1
REMARK VINA RESULT:      -7.7      0.000      0.000
REMARK  Name = 
REMARK  2 active torsions:
REMARK  status: ('A' for Active; 'I' for Inactive)
REMARK    1  A    between atoms: C_2  and  OXT_3
REMARK    2  A    between atoms: C_2  and  CA_4
REMARK                            x       y       z     vdW  Elec       q    Type
REMARK                         _______ _______ _______ _____ _____    ______ ____
ROOT
ATOM      1  CA  UNL     1       6.771   5.947  17.694  0.00  0.00    +0.000 C 
ATOM      2  N   UNL     1       5.418   5.988  18.350  0.00  0.00    +0.000 NA
ATOM      3  C   UNL     1       4.707   4.680  18.211  0.00  0.00    +0.000 C 
ATOM      4  C   UNL     1       4.493   4.168  16.764  0.00  0.00    +0.000 C 
ATOM      5  C   UNL     1       5.628   4.555  15.879  0.00  0.00    +0.000 A 
ATOM      6  C   UNL     1       6.641   5.378  16.328  0.00  0.00    +0.000 A 
ATOM      7  N   UNL     1       7.502   5.597  15.287  0.00  0.00    +0.000 N 
ATOM      8  C   UNL     1       7.063   4.921  14.167  0.00  0.00    +0.000 A 
ATOM      9  C   UNL     1       7.612   4.856  12.882  0.00  0.00    +0.000 A 
ATOM     10  C   UNL     1       6.952   4.067  11.935  0.00  0.00    +0.000 A 
ATOM     11  C   UNL     1       5.788   3.377  12.267  0.00  0.00    +0.000 A 
ATOM     12 CL   UNL     1       5.007   2.408  11.076  0.00  0.00    +0.000 Cl
ATOM     13  C   UNL     1       5.240   3.456  13.550  0.00  0.00    +0.000 A 
ATOM     14  C   UNL     1       5.891   4.243  14.516  0.00  0.00    +0.000 A 
ATOM     15  H   UNL     1       4.874   6.668  17.810  0.00  0.00    +0.000 HD
ATOM     16  H   UNL     1       8.341   6.162  15.321  0.00  0.00    +0.000 HD
ENDROOT
BRANCH   1  18
ATOM     17  O   UNL     1       7.973   5.329  19.765  0.00  0.00    +0.000 OA
ATOM     18  C   UNL     1       7.753   5.143  18.577  0.00  0.00    +0.000 C 
BRANCH  18  19
ATOM     19  OXT UNL     1       8.305   4.107  17.882  0.00  0.00    +0.000 OA
ATOM     20  HXT UNL     1       9.257   4.067  18.143  0.00  0.00    +0.000 HD
ENDBRANCH  18  19
ENDBRANCH   1  18
TORSDOF 2
ENDMDL
MODEL 2
REMARK VINA RESULT:      -7.6      3.601      5.181
REMARK  Name = 
REMARK  2 active torsions:
REMARK  status: ('A' for Active; 'I' for Inactive)
REMARK    1  A    between atoms: C_2  and  OXT_3
REMARK    2  A    between atoms: C_2  and  CA_4
REMARK                            x       y       z     vdW  Elec       q    Type
REMARK                         _______ _______ _______ _____ _____    ______ ____
ROOT
ATOM      1  CA  UNL     1       1.920   4.023  20.632  0.00  0.00    +0.000 C 
ATOM      2  N   UNL     1       0.639   3.708  19.907  0.00  0.00    +0.000 NA
ATOM      3  C   UNL     1       0.848   2.659  18.864  0.00  0.00    +0.000 C 
ATOM      4  C   UNL     1       1.915   2.970  17.784  0.00  0.00    +0.000 C 
ATOM      5  C   UNL     1       3.041   3.767  18.349  0.00  0.00    +0.000 A 
ATOM      6  C   UNL     1       3.006   4.244  19.643  0.00  0.00    +0.000 A 
ATOM      7  N   UNL     1       4.141   4.976  19.856  0.00  0.00    +0.000 N 
ATOM      8  C   UNL     1       4.918   4.977  18.716  0.00  0.00    +0.000 A 
ATOM      9  C   UNL     1       6.150   5.591  18.467  0.00  0.00    +0.000 A 
ATOM     10  C   UNL     1       6.724   5.404  17.205  0.00  0.00    +0.000 A 
ATOM     11  C   UNL     1       6.081   4.635  16.236  0.00  0.00    +0.000 A 
ATOM     12 CL   UNL     1       6.822   4.419  14.696  0.00  0.00    +0.000 Cl
ATOM     13  C   UNL     1       4.846   4.033  16.490  0.00  0.00    +0.000 A 
ATOM     14  C   UNL     1       4.256   4.208  17.754  0.00  0.00    +0.000 A 
ATOM     15  H   UNL     1       0.394   4.567  19.403  0.00  0.00    +0.000 HD
ATOM     16  H   UNL     1       4.390   5.447  20.717  0.00  0.00    +0.000 HD
ENDROOT
BRANCH   1  18
ATOM     17  O   UNL     1       1.476   2.383  22.429  0.00  0.00    +0.000 OA
ATOM     18  C   UNL     1       2.247   2.883  21.624  0.00  0.00    +0.000 C 
BRANCH  18  19
ATOM     19  OXT UNL     1       3.517   2.418  21.437  0.00  0.00    +0.000 OA
ATOM     20  HXT UNL     1       4.125   3.179  21.604  0.00  0.00    +0.000 HD
ENDBRANCH  18  19
ENDBRANCH   1  18
TORSDOF 2
ENDMDL
MODEL 3
REMARK VINA RESULT:      -7.5      3.646      5.114
REMARK  Name = 
REMARK  2 active torsions:
REMARK  status: ('A' for Active; 'I' for Inactive)
REMARK    1  A    between atoms: C_2  and  OXT_3
REMARK    2  A    between atoms: C_2  and  CA_4
REMARK                            x       y       z     vdW  Elec       q    Type
REMARK                         _______ _______ _______ _____ _____    ______ ____
ROOT
ATOM      1  CA  UNL     1       1.280   4.026  19.759  0.00  0.00    +0.000 C 
ATOM      2  N   UNL     1       0.684   2.716  19.319  0.00  0.00    +0.000 NA
ATOM      3  C   UNL     1       1.747   1.721  18.982  0.00  0.00    +0.000 C 
ATOM      4  C   UNL     1       2.762   2.146  17.890  0.00  0.00    +0.000 C 
ATOM      5  C   UNL     1       3.030   3.611  17.942  0.00  0.00    +0.000 A 
ATOM      6  C   UNL     1       2.328   4.442  18.792  0.00  0.00    +0.000 A 
ATOM      7  N   UNL     1       2.752   5.724  18.578  0.00  0.00    +0.000 N 
ATOM      8  C   UNL     1       3.727   5.738  17.601  0.00  0.00    +0.000 A 
ATOM      9  C   UNL     1       4.438   6.811  17.055  0.00  0.00    +0.000 A 
ATOM     10  C   UNL     1       5.394   6.523  16.075  0.00  0.00    +0.000 A 
ATOM     11  C   UNL     1       5.618   5.211  15.662  0.00  0.00    +0.000 A 
ATOM     12 CL   UNL     1       6.810   4.893  14.458  0.00  0.00    +0.000 Cl
ATOM     13  C   UNL     1       4.896   4.146  16.205  0.00  0.00    +0.000 A 
ATOM     14  C   UNL     1       3.933   4.417  17.193  0.00  0.00    +0.000 A 
ATOM     15  H   UNL     1       0.195   2.921  18.441  0.00  0.00    +0.000 HD
ATOM     16  H   UNL     1       2.416   6.548  19.060  0.00  0.00    +0.000 HD
ENDROOT
BRANCH   1  18
ATOM     17  O   UNL     1       1.654   2.941  21.950  0.00  0.00    +0.000 OA
ATOM     18  C   UNL     1       1.826   3.890  21.199  0.00  0.00    +0.000 C 
BRANCH  18  19
ATOM     19  OXT UNL     1       2.625   4.948  21.525  0.00  0.00    +0.000 OA
ATOM     20  HXT UNL     1       3.479   4.815  21.045  0.00  0.00    +0.000 HD
ENDBRANCH  18  19
ENDBRANCH   1  18
TORSDOF 2
ENDMDL
MODEL 4
REMARK VINA RESULT:      -7.5      3.543      5.506
REMARK  Name = 
REMARK  2 active torsions:
REMARK  status: ('A' for Active; 'I' for Inactive)
REMARK    1  A    between atoms: C_2  and  OXT_3
REMARK    2  A    between atoms: C_2  and  CA_4
REMARK                            x       y       z     vdW  Elec       q    Type
REMARK                         _______ _______ _______ _____ _____    ______ ____
ROOT
ATOM      1  CA  UNL     1       5.670   5.049  15.440  0.00  0.00    +0.000 C 
ATOM      2  N   UNL     1       5.270   6.493  15.300  0.00  0.00    +0.000 NA
ATOM      3  C   UNL     1       5.249   7.182  16.626  0.00  0.00    +0.000 C 
ATOM      4  C   UNL     1       4.328   6.561  17.706  0.00  0.00    +0.000 C 
ATOM      5  C   UNL     1       4.269   5.077  17.579  0.00  0.00    +0.000 A 
ATOM      6  C   UNL     1       4.878   4.420  16.528  0.00  0.00    +0.000 A 
ATOM      7  N   UNL     1       4.610   3.085  16.650  0.00  0.00    +0.000 N 
ATOM      8  C   UNL     1       3.837   2.863  17.772  0.00  0.00    +0.000 A 
ATOM      9  C   UNL     1       3.322   1.670  18.288  0.00  0.00    +0.000 A 
ATOM     10  C   UNL     1       2.576   1.743  19.470  0.00  0.00    +0.000 A 
ATOM     11  C   UNL     1       2.357   2.967  20.099  0.00  0.00    +0.000 A 
ATOM     12 CL   UNL     1       1.440   3.019  21.557  0.00  0.00    +0.000 Cl
ATOM     13  C   UNL     1       2.867   4.156  19.571  0.00  0.00    +0.000 A 
ATOM     14  C   UNL     1       3.621   4.100  18.386  0.00  0.00    +0.000 A 
ATOM     15  H   UNL     1       4.299   6.476  14.971  0.00  0.00    +0.000 HD
ATOM     16  H   UNL     1       4.928   2.356  16.023  0.00  0.00    +0.000 HD
ENDROOT
BRANCH   1  18
ATOM     17  O   UNL     1       7.737   4.412  16.638  0.00  0.00    +0.000 OA
ATOM     18  C   UNL     1       7.193   4.954  15.688  0.00  0.00    +0.000 C 
BRANCH  18  19
ATOM     19  OXT UNL     1       7.895   5.485  14.645  0.00  0.00    +0.000 OA
ATOM     20  HXT UNL     1       7.782   6.465  14.697  0.00  0.00    +0.000 HD
ENDBRANCH  18  19
ENDBRANCH   1  18
TORSDOF 2
ENDMDL
MODEL 5
REMARK VINA RESULT:      -7.5      2.935      5.094
REMARK  Name = 
REMARK  2 active torsions:
REMARK  status: ('A' for Active; 'I' for Inactive)
REMARK    1  A    between atoms: C_2  and  OXT_3
REMARK    2  A    between atoms: C_2  and  CA_4
REMARK                            x       y       z     vdW  Elec       q    Type
REMARK                         _______ _______ _______ _____ _____    ______ ____
ROOT
ATOM      1  CA  UNL     1       7.456   5.047  17.347  0.00  0.00    +0.000 C 
ATOM      2  N   UNL     1       7.559   4.869  15.856  0.00  0.00    +0.000 NA
ATOM      3  C   UNL     1       6.298   5.284  15.171  0.00  0.00    +0.000 C 
ATOM      4  C   UNL     1       5.003   4.563  15.624  0.00  0.00    +0.000 C 
ATOM      5  C   UNL     1       5.048   4.232  17.076  0.00  0.00    +0.000 A 
ATOM      6  C   UNL     1       6.183   4.451  17.829  0.00  0.00    +0.000 A 
ATOM      7  N   UNL     1       5.943   4.004  19.099  0.00  0.00    +0.000 N 
ATOM      8  C   UNL     1       4.660   3.501  19.183  0.00  0.00    +0.000 A 
ATOM      9  C   UNL     1       3.985   2.937  20.270  0.00  0.00    +0.000 A 
ATOM     10  C   UNL     1       2.664   2.523  20.068  0.00  0.00    +0.000 A 
ATOM     11  C   UNL     1       2.054   2.668  18.823  0.00  0.00    +0.000 A 
ATOM     12 CL   UNL     1       0.423   2.154  18.613  0.00  0.00    +0.000 Cl
ATOM     13  C   UNL     1       2.740   3.223  17.740  0.00  0.00    +0.000 A 
ATOM     14  C   UNL     1       4.068   3.647  17.926  0.00  0.00    +0.000 A 
ATOM     15  H   UNL     1       7.646   3.858  15.709  0.00  0.00    +0.000 HD
ATOM     16  H   UNL     1       6.595   4.035  19.872  0.00  0.00    +0.000 HD
ENDROOT
BRANCH   1  18
ATOM     17  O   UNL     1       7.122   7.479  17.053  0.00  0.00    +0.000 OA
ATOM     18  C   UNL     1       7.575   6.547  17.700  0.00  0.00    +0.000 C 
BRANCH  18  19
ATOM     19  OXT UNL     1       8.191   6.722  18.906  0.00  0.00    +0.000 OA
ATOM     20  HXT UNL     1       7.927   5.956  19.472  0.00  0.00    +0.000 HD
ENDBRANCH  18  19
ENDBRANCH   1  18
TORSDOF 2
ENDMDL
MODEL 6
REMARK VINA RESULT:      -7.3      3.602      5.684
REMARK  Name = 
REMARK  2 active torsions:
REMARK  status: ('A' for Active; 'I' for Inactive)
REMARK    1  A    between atoms: C_2  and  OXT_3
REMARK    2  A    between atoms: C_2  and  CA_4
REMARK                            x       y       z     vdW  Elec       q    Type
REMARK                         _______ _______ _______ _____ _____    ______ ____
ROOT
ATOM      1  CA  UNL     1       6.015   5.965  16.441  0.00  0.00    +0.000 C 
ATOM      2  N   UNL     1       6.956   6.733  17.330  0.00  0.00    +0.000 NA
ATOM      3  C   UNL     1       7.413   5.901  18.484  0.00  0.00    +0.000 C 
ATOM      4  C   UNL     1       6.299   5.324  19.395  0.00  0.00    +0.000 C 
ATOM      5  C   UNL     1       5.076   4.993  18.611  0.00  0.00    +0.000 A 
ATOM      6  C   UNL     1       4.972   5.311  17.272  0.00  0.00    +0.000 A 
ATOM      7  N   UNL     1       3.729   4.937  16.842  0.00  0.00    +0.000 N 
ATOM      8  C   UNL     1       3.023   4.374  17.886  0.00  0.00    +0.000 A 
ATOM      9  C   UNL     1       1.723   3.857  17.919  0.00  0.00    +0.000 A 
ATOM     10  C   UNL     1       1.268   3.325  19.129  0.00  0.00    +0.000 A 
ATOM     11  C   UNL     1       2.086   3.318  20.257  0.00  0.00    +0.000 A 
ATOM     12 CL   UNL     1       1.494   2.645  21.730  0.00  0.00    +0.000 Cl
ATOM     13  C   UNL     1       3.379   3.844  20.219  0.00  0.00    +0.000 A 
ATOM     14  C   UNL     1       3.855   4.382  19.009  0.00  0.00    +0.000 A 
ATOM     15  H   UNL     1       6.394   7.492  17.728  0.00  0.00    +0.000 HD
ATOM     16  H   UNL     1       3.368   5.046  15.903  0.00  0.00    +0.000 HD
ENDROOT
BRANCH   1  18
ATOM     17  O   UNL     1       7.745   5.209  14.843  0.00  0.00    +0.000 OA
ATOM     18  C   UNL     1       6.815   4.950  15.593  0.00  0.00    +0.000 C 
BRANCH  18  19
ATOM     19  OXT UNL     1       6.413   3.670  15.847  0.00  0.00    +0.000 OA
ATOM     20  HXT UNL     1       5.652   3.488  15.244  0.00  0.00    +0.000 HD
ENDBRANCH  18  19
ENDBRANCH   1  18
TORSDOF 2
ENDMDL
MODEL 7
REMARK VINA RESULT:      -7.3      3.719      5.070
REMARK  Name = 
REMARK  2 active torsions:
REMARK  status: ('A' for Active; 'I' for Inactive)
REMARK    1  A    between atoms: C_2  and  OXT_3
REMARK    2  A    between atoms: C_2  and  CA_4
REMARK                            x       y       z     vdW  Elec       q    Type
REMARK                         _______ _______ _______ _____ _____    ______ ____
ROOT
ATOM      1  CA  UNL     1       7.381   5.325  17.754  0.00  0.00    +0.000 C 
ATOM      2  N   UNL     1       7.214   6.122  16.489  0.00  0.00    +0.000 NA
ATOM      3  C   UNL     1       6.003   6.995  16.553  0.00  0.00    +0.000 C 
ATOM      4  C   UNL     1       4.655   6.278  16.816  0.00  0.00    +0.000 C 
ATOM      5  C   UNL     1       4.835   5.100  17.711  0.00  0.00    +0.000 A 
ATOM      6  C   UNL     1       6.089   4.683  18.108  0.00  0.00    +0.000 A 
ATOM      7  N   UNL     1       5.940   3.558  18.871  0.00  0.00    +0.000 N 
ATOM      8  C   UNL     1       4.601   3.241  18.981  0.00  0.00    +0.000 A 
ATOM      9  C   UNL     1       3.979   2.184  19.654  0.00  0.00    +0.000 A 
ATOM     10  C   UNL     1       2.582   2.120  19.609  0.00  0.00    +0.000 A 
ATOM     11  C   UNL     1       1.847   3.078  18.913  0.00  0.00    +0.000 A 
ATOM     12 CL   UNL     1       0.127   2.972  18.886  0.00  0.00    +0.000 Cl
ATOM     13  C   UNL     1       2.477   4.124  18.236  0.00  0.00    +0.000 A 
ATOM     14  C   UNL     1       3.880   4.206  18.272  0.00  0.00    +0.000 A 
ATOM     15  H   UNL     1       7.030   5.431  15.754  0.00  0.00    +0.000 HD
ATOM     16  H   UNL     1       6.689   3.031  19.303  0.00  0.00    +0.000 HD
ENDROOT
BRANCH   1  18
ATOM     17  O   UNL     1       8.368   7.367  18.739  0.00  0.00    +0.000 OA
ATOM     18  C   UNL     1       7.911   6.242  18.880  0.00  0.00    +0.000 C 
BRANCH  18  19
ATOM     19  OXT UNL     1       7.728   5.673  20.107  0.00  0.00    +0.000 OA
ATOM     20  HXT UNL     1       6.848   5.982  20.433  0.00  0.00    +0.000 HD
ENDBRANCH  18  19
ENDBRANCH   1  18
TORSDOF 2
ENDMDL
MODEL 8
REMARK VINA RESULT:      -7.2      2.694      3.673
REMARK  Name = 
REMARK  2 active torsions:
REMARK  status: ('A' for Active; 'I' for Inactive)
REMARK    1  A    between atoms: C_2  and  OXT_3
REMARK    2  A    between atoms: C_2  and  CA_4
REMARK                            x       y       z     vdW  Elec       q    Type
REMARK                         _______ _______ _______ _____ _____    ______ ____
ROOT
ATOM      1  CA  UNL     1       3.503   3.952  19.890  0.00  0.00    +0.000 C 
ATOM      2  N   UNL     1       2.038   3.960  19.545  0.00  0.00    +0.000 NA
ATOM      3  C   UNL     1       1.738   3.016  18.426  0.00  0.00    +0.000 C 
ATOM      4  C   UNL     1       2.515   3.250  17.106  0.00  0.00    +0.000 C 
ATOM      5  C   UNL     1       3.890   3.760  17.371  0.00  0.00    +0.000 A 
ATOM      6  C   UNL     1       4.304   4.083  18.646  0.00  0.00    +0.000 A 
ATOM      7  N   UNL     1       5.581   4.568  18.568  0.00  0.00    +0.000 N 
ATOM      8  C   UNL     1       6.005   4.558  17.255  0.00  0.00    +0.000 A 
ATOM      9  C   UNL     1       7.224   4.963  16.700  0.00  0.00    +0.000 A 
ATOM     10  C   UNL     1       7.385   4.820  15.318  0.00  0.00    +0.000 A 
ATOM     11  C   UNL     1       6.362   4.297  14.531  0.00  0.00    +0.000 A 
ATOM     12 CL   UNL     1       6.600   4.128  12.833  0.00  0.00    +0.000 Cl
ATOM     13  C   UNL     1       5.144   3.904  15.092  0.00  0.00    +0.000 A 
ATOM     14  C   UNL     1       4.965   4.038  16.480  0.00  0.00    +0.000 A 
ATOM     15  H   UNL     1       1.849   4.901  19.184  0.00  0.00    +0.000 HD
ATOM     16  H   UNL     1       6.144   4.884  19.348  0.00  0.00    +0.000 HD
ENDROOT
BRANCH   1  18
ATOM     17  O   UNL     1       3.250   2.242  21.659  0.00  0.00    +0.000 OA
ATOM     18  C   UNL     1       3.842   2.666  20.678  0.00  0.00    +0.000 C 
BRANCH  18  19
ATOM     19  OXT UNL     1       4.863   1.980  20.084  0.00  0.00    +0.000 OA
ATOM     20  HXT UNL     1       5.662   2.117  20.649  0.00  0.00    +0.000 HD
ENDBRANCH  18  19
ENDBRANCH   1  18
TORSDOF 2
ENDMDL
MODEL 9
REMARK VINA RESULT:      -7.1      3.127      5.310
REMARK  Name = 
REMARK  2 active torsions:
REMARK  status: ('A' for Active; 'I' for Inactive)
REMARK    1  A    between atoms: C_2  and  OXT_3
REMARK    2  A    between atoms: C_2  and  CA_4
REMARK                            x       y       z     vdW  Elec       q    Type
REMARK                         _______ _______ _______ _____ _____    ______ ____
ROOT
ATOM      1  CA  UNL     1       7.172   5.628  17.783  0.00  0.00    +0.000 C 
ATOM      2  N   UNL     1       7.813   4.707  16.780  0.00  0.00    +0.000 NA
ATOM      3  C   UNL     1       6.862   4.349  15.685  0.00  0.00    +0.000 C 
ATOM      4  C   UNL     1       5.532   3.684  16.123  0.00  0.00    +0.000 C 
ATOM      5  C   UNL     1       5.070   4.214  17.438  0.00  0.00    +0.000 A 
ATOM      6  C   UNL     1       5.846   5.085  18.175  0.00  0.00    +0.000 A 
ATOM      7  N   UNL     1       5.191   5.350  19.346  0.00  0.00    +0.000 N 
ATOM      8  C   UNL     1       3.993   4.665  19.376  0.00  0.00    +0.000 A 
ATOM      9  C   UNL     1       3.003   4.627  20.365  0.00  0.00    +0.000 A 
ATOM     10  C   UNL     1       1.868   3.849  20.115  0.00  0.00    +0.000 A 
ATOM     11  C   UNL     1       1.739   3.138  18.923  0.00  0.00    +0.000 A 
ATOM     12 CL   UNL     1       0.323   2.197  18.646  0.00  0.00    +0.000 Cl
ATOM     13  C   UNL     1       2.737   3.174  17.946  0.00  0.00    +0.000 A 
ATOM     14  C   UNL     1       3.884   3.953  18.179  0.00  0.00    +0.000 A 
ATOM     15  H   UNL     1       8.002   3.838  17.291  0.00  0.00    +0.000 HD
ATOM     16  H   UNL     1       5.519   5.959  20.084  0.00  0.00    +0.000 HD
ENDROOT
BRANCH   1  18
ATOM     17  O   UNL     1       8.000   7.836  17.039  0.00  0.00    +0.000 OA
ATOM     18  C   UNL     1       7.075   7.053  17.191  0.00  0.00    +0.000 C 
BRANCH  18  19
ATOM     19  OXT UNL     1       5.808   7.320  16.758  0.00  0.00    +0.000 OA
ATOM     20  HXT UNL     1       5.195   6.999  17.463  0.00  0.00    +0.000 HD
ENDBRANCH  18  19
ENDBRANCH   1  18
TORSDOF 2
ENDMDL
