MODEL 1
REMARK VINA RESULT:      -6.6      0.000      0.000
REMARK  Name = 
REMARK  4 active torsions:
REMARK  status: ('A' for Active; 'I' for Inactive)
REMARK    1  A    between atoms: C_1  and  C_2
REMARK    2  A    between atoms: C_5  and  C_7
REMARK    3  A    between atoms: C_17  and  C_18
REMARK    4  A    between atoms: C_17  and  C_19
REMARK                            x       y       z     vdW  Elec       q    Type
REMARK                         _______ _______ _______ _____ _____    ______ ____
ROOT
ATOM      1  C   UNL     1       2.190   7.176  19.768  0.00  0.00    +0.000 C 
ATOM      2  C   UNL     1       3.154   6.232  19.166  0.00  0.00    +0.000 A 
ATOM      3  N   UNL     1       4.451   6.551  19.004  0.00  0.00    +0.000 NA
ATOM      4  N   UNL     1       5.024   5.476  18.343  0.00  0.00    +0.000 N 
ATOM      5  C   UNL     1       6.353   5.534  17.845  0.00  0.00    +0.000 C 
ATOM      6  O   UNL     1       6.747   4.512  17.278  0.00  0.00    +0.000 OA
ATOM      7  C   UNL     1       4.101   4.474  18.222  0.00  0.00    +0.000 A 
ATOM      8  C   UNL     1       2.926   4.949  18.712  0.00  0.00    +0.000 A 
ATOM      9  C   UNL     1       1.785   4.038  18.389  0.00  0.00    +0.000 C 
ATOM     10  C   UNL     1       2.478   2.931  17.525  0.00  0.00    +0.000 C 
ATOM     11  C   UNL     1       4.012   3.190  17.491  0.00  0.00    +0.000 C 
ATOM     12  C   UNL     1       1.710   2.576  18.780  0.00  0.00    +0.000 C 
ATOM     13  C   UNL     1       0.350   1.936  18.606  0.00  0.00    +0.000 C 
ATOM     14  C   UNL     1       2.420   2.108  20.026  0.00  0.00    +0.000 C 
ENDROOT
BRANCH   5  15
ATOM     15  C   UNL     1       7.186   6.726  17.975  0.00  0.00    +0.000 A 
ATOM     16  C   UNL     1       8.233   7.090  18.809  0.00  0.00    +0.000 A 
ATOM     17  C   UNL     1       8.626   8.402  18.450  0.00  0.00    +0.000 A 
ATOM     18  C   UNL     1       7.799   8.774  17.420  0.00  0.00    +0.000 A 
ATOM     19  O   UNL     1       6.930   7.776  17.125  0.00  0.00    +0.000 OA
ENDBRANCH   5  15
TORSDOF 1
ENDMDL
MODEL 2
REMARK VINA RESULT:      -6.5      0.908      1.082
REMARK  Name = 
REMARK  4 active torsions:
REMARK  status: ('A' for Active; 'I' for Inactive)
REMARK    1  A    between atoms: C_1  and  C_2
REMARK    2  A    between atoms: C_5  and  C_7
REMARK    3  A    between atoms: C_17  and  C_18
REMARK    4  A    between atoms: C_17  and  C_19
REMARK                            x       y       z     vdW  Elec       q    Type
REMARK                         _______ _______ _______ _____ _____    ______ ____
ROOT
ATOM      1  C   UNL     1       1.862   7.353  18.047  0.00  0.00    +0.000 C 
ATOM      2  C   UNL     1       2.950   6.365  18.187  0.00  0.00    +0.000 A 
ATOM      3  N   UNL     1       4.240   6.737  18.275  0.00  0.00    +0.000 NA
ATOM      4  N   UNL     1       4.971   5.561  18.309  0.00  0.00    +0.000 N 
ATOM      5  C   UNL     1       6.389   5.565  18.224  0.00  0.00    +0.000 C 
ATOM      6  O   UNL     1       6.922   4.454  18.269  0.00  0.00    +0.000 OA
ATOM      7  C   UNL     1       4.115   4.496  18.365  0.00  0.00    +0.000 A 
ATOM      8  C   UNL     1       2.853   4.991  18.264  0.00  0.00    +0.000 A 
ATOM      9  C   UNL     1       1.850   3.902  18.046  0.00  0.00    +0.000 C 
ATOM     10  C   UNL     1       2.756   2.629  17.950  0.00  0.00    +0.000 C 
ATOM     11  C   UNL     1       4.233   3.026  18.241  0.00  0.00    +0.000 C 
ATOM     12  C   UNL     1       1.643   2.721  18.971  0.00  0.00    +0.000 C 
ATOM     13  C   UNL     1       0.390   1.914  18.708  0.00  0.00    +0.000 C 
ATOM     14  C   UNL     1       1.939   2.875  20.441  0.00  0.00    +0.000 C 
ENDROOT
BRANCH   5  15
ATOM     15  C   UNL     1       7.160   6.796  18.074  0.00  0.00    +0.000 A 
ATOM     16  C   UNL     1       7.146   7.843  17.164  0.00  0.00    +0.000 A 
ATOM     17  C   UNL     1       8.160   8.754  17.548  0.00  0.00    +0.000 A 
ATOM     18  C   UNL     1       8.744   8.217  18.668  0.00  0.00    +0.000 A 
ATOM     19  O   UNL     1       8.151   7.042  18.995  0.00  0.00    +0.000 OA
ENDBRANCH   5  15
TORSDOF 1
ENDMDL
MODEL 3
REMARK VINA RESULT:      -6.4      3.052      5.930
REMARK  Name = 
REMARK  4 active torsions:
REMARK  status: ('A' for Active; 'I' for Inactive)
REMARK    1  A    between atoms: C_1  and  C_2
REMARK    2  A    between atoms: C_5  and  C_7
REMARK    3  A    between atoms: C_17  and  C_18
REMARK    4  A    between atoms: C_17  and  C_19
REMARK                            x       y       z     vdW  Elec       q    Type
REMARK                         _______ _______ _______ _____ _____    ______ ____
ROOT
ATOM      1  C   UNL     1       4.061   7.362  17.254  0.00  0.00    +0.000 C 
ATOM      2  C   UNL     1       4.200   5.893  17.185  0.00  0.00    +0.000 A 
ATOM      3  N   UNL     1       3.452   5.073  17.945  0.00  0.00    +0.000 NA
ATOM      4  N   UNL     1       3.907   3.792  17.679  0.00  0.00    +0.000 N 
ATOM      5  C   UNL     1       3.465   2.674  18.437  0.00  0.00    +0.000 C 
ATOM      6  O   UNL     1       3.942   1.589  18.099  0.00  0.00    +0.000 OA
ATOM      7  C   UNL     1       4.835   3.839  16.675  0.00  0.00    +0.000 A 
ATOM      8  C   UNL     1       5.039   5.150  16.380  0.00  0.00    +0.000 A 
ATOM      9  C   UNL     1       6.225   5.336  15.486  0.00  0.00    +0.000 C 
ATOM     10  C   UNL     1       6.768   3.874  15.348  0.00  0.00    +0.000 C 
ATOM     11  C   UNL     1       5.799   2.894  16.070  0.00  0.00    +0.000 C 
ATOM     12  C   UNL     1       6.392   4.686  14.128  0.00  0.00    +0.000 C 
ATOM     13  C   UNL     1       7.519   5.243  13.287  0.00  0.00    +0.000 C 
ATOM     14  C   UNL     1       5.166   4.354  13.314  0.00  0.00    +0.000 C 
ENDROOT
BRANCH   5  15
ATOM     15  C   UNL     1       2.529   2.805  19.550  0.00  0.00    +0.000 A 
ATOM     16  C   UNL     1       1.148   2.877  19.652  0.00  0.00    +0.000 A 
ATOM     17  C   UNL     1       0.829   3.014  21.025  0.00  0.00    +0.000 A 
ATOM     18  C   UNL     1       2.029   3.024  21.691  0.00  0.00    +0.000 A 
ATOM     19  O   UNL     1       3.058   2.898  20.816  0.00  0.00    +0.000 OA
ENDBRANCH   5  15
TORSDOF 1
ENDMDL
MODEL 4
REMARK VINA RESULT:      -6.4      3.121      5.752
REMARK  Name = 
REMARK  4 active torsions:
REMARK  status: ('A' for Active; 'I' for Inactive)
REMARK    1  A    between atoms: C_1  and  C_2
REMARK    2  A    between atoms: C_5  and  C_7
REMARK    3  A    between atoms: C_17  and  C_18
REMARK    4  A    between atoms: C_17  and  C_19
REMARK                            x       y       z     vdW  Elec       q    Type
REMARK                         _______ _______ _______ _____ _____    ______ ____
ROOT
ATOM      1  C   UNL     1       2.151   3.481  20.977  0.00  0.00    +0.000 C 
ATOM      2  C   UNL     1       2.380   4.797  20.347  0.00  0.00    +0.000 A 
ATOM      3  N   UNL     1       1.917   5.935  20.895  0.00  0.00    +0.000 NA
ATOM      4  N   UNL     1       2.242   6.944  20.001  0.00  0.00    +0.000 N 
ATOM      5  C   UNL     1       1.752   8.267  20.165  0.00  0.00    +0.000 C 
ATOM      6  O   UNL     1       2.116   9.072  19.305  0.00  0.00    +0.000 OA
ATOM      7  C   UNL     1       3.002   6.425  18.989  0.00  0.00    +0.000 A 
ATOM      8  C   UNL     1       3.072   5.082  19.187  0.00  0.00    +0.000 A 
ATOM      9  C   UNL     1       3.651   4.379  18.001  0.00  0.00    +0.000 C 
ATOM     10  C   UNL     1       3.857   5.554  16.987  0.00  0.00    +0.000 C 
ATOM     11  C   UNL     1       3.500   6.901  17.679  0.00  0.00    +0.000 C 
ATOM     12  C   UNL     1       5.013   4.671  17.405  0.00  0.00    +0.000 C 
ATOM     13  C   UNL     1       5.506   3.649  16.404  0.00  0.00    +0.000 C 
ATOM     14  C   UNL     1       6.112   5.191  18.297  0.00  0.00    +0.000 C 
ENDROOT
BRANCH   5  15
ATOM     15  C   UNL     1       0.864   8.642  21.261  0.00  0.00    +0.000 A 
ATOM     16  C   UNL     1      -0.499   8.524  21.488  0.00  0.00    +0.000 A 
ATOM     17  C   UNL     1      -0.771   9.097  22.754  0.00  0.00    +0.000 A 
ATOM     18  C   UNL     1       0.436   9.540  23.234  0.00  0.00    +0.000 A 
ATOM     19  O   UNL     1       1.427   9.272  22.347  0.00  0.00    +0.000 OA
ENDBRANCH   5  15
TORSDOF 1
ENDMDL
MODEL 5
REMARK VINA RESULT:      -6.3      3.133      5.764
REMARK  Name = 
REMARK  4 active torsions:
REMARK  status: ('A' for Active; 'I' for Inactive)
REMARK    1  A    between atoms: C_1  and  C_2
REMARK    2  A    between atoms: C_5  and  C_7
REMARK    3  A    between atoms: C_17  and  C_18
REMARK    4  A    between atoms: C_17  and  C_19
REMARK                            x       y       z     vdW  Elec       q    Type
REMARK                         _______ _______ _______ _____ _____    ______ ____
ROOT
ATOM      1  C   UNL     1       2.495   4.791  20.291  0.00  0.00    +0.000 C 
ATOM      2  C   UNL     1       2.781   5.926  19.391  0.00  0.00    +0.000 A 
ATOM      3  N   UNL     1       2.142   7.104  19.509  0.00  0.00    +0.000 NA
ATOM      4  N   UNL     1       2.599   7.888  18.463  0.00  0.00    +0.000 N 
ATOM      5  C   UNL     1       2.009   9.146  18.164  0.00  0.00    +0.000 C 
ATOM      6  O   UNL     1       2.508   9.747  17.211  0.00  0.00    +0.000 OA
ATOM      7  C   UNL     1       3.594   7.225  17.799  0.00  0.00    +0.000 A 
ATOM      8  C   UNL     1       3.696   5.990  18.360  0.00  0.00    +0.000 A 
ATOM      9  C   UNL     1       4.565   5.085  17.546  0.00  0.00    +0.000 C 
ATOM     10  C   UNL     1       4.923   5.986  16.316  0.00  0.00    +0.000 C 
ATOM     11  C   UNL     1       4.343   7.413  16.536  0.00  0.00    +0.000 C 
ATOM     12  C   UNL     1       6.006   5.373  17.177  0.00  0.00    +0.000 C 
ATOM     13  C   UNL     1       6.768   4.197  16.606  0.00  0.00    +0.000 C 
ATOM     14  C   UNL     1       6.847   6.222  18.098  0.00  0.00    +0.000 C 
ENDROOT
BRANCH   5  15
ATOM     15  C   UNL     1       0.879   9.678  18.920  0.00  0.00    +0.000 A 
ATOM     16  C   UNL     1       0.662   9.977  20.257  0.00  0.00    +0.000 A 
ATOM     17  C   UNL     1      -0.664  10.460  20.374  0.00  0.00    +0.000 A 
ATOM     18  C   UNL     1      -1.191  10.427  19.108  0.00  0.00    +0.000 A 
ATOM     19  O   UNL     1      -0.273   9.960  18.224  0.00  0.00    +0.000 OA
ENDBRANCH   5  15
TORSDOF 1
ENDMDL
MODEL 6
REMARK VINA RESULT:      -6.3      2.877      6.052
REMARK  Name = 
REMARK  4 active torsions:
REMARK  status: ('A' for Active; 'I' for Inactive)
REMARK    1  A    between atoms: C_1  and  C_2
REMARK    2  A    between atoms: C_5  and  C_7
REMARK    3  A    between atoms: C_17  and  C_18
REMARK    4  A    between atoms: C_17  and  C_19
REMARK                            x       y       z     vdW  Elec       q    Type
REMARK                         _______ _______ _______ _____ _____    ______ ____
ROOT
ATOM      1  C   UNL     1       7.005   5.503  19.365  0.00  0.00    +0.000 C 
ATOM      2  C   UNL     1       5.938   4.867  18.566  0.00  0.00    +0.000 A 
ATOM      3  N   UNL     1       4.783   4.458  19.122  0.00  0.00    +0.000 NA
ATOM      4  N   UNL     1       4.071   3.844  18.104  0.00  0.00    +0.000 N 
ATOM      5  C   UNL     1       2.869   3.132  18.364  0.00  0.00    +0.000 C 
ATOM      6  O   UNL     1       2.329   2.634  17.374  0.00  0.00    +0.000 OA
ATOM      7  C   UNL     1       4.744   3.995  16.923  0.00  0.00    +0.000 A 
ATOM      8  C   UNL     1       5.922   4.612  17.210  0.00  0.00    +0.000 A 
ATOM      9  C   UNL     1       6.854   4.590  16.040  0.00  0.00    +0.000 C 
ATOM     10  C   UNL     1       6.045   3.761  14.986  0.00  0.00    +0.000 C 
ATOM     11  C   UNL     1       4.631   3.446  15.554  0.00  0.00    +0.000 C 
ATOM     12  C   UNL     1       6.536   5.158  14.672  0.00  0.00    +0.000 C 
ATOM     13  C   UNL     1       7.722   5.286  13.741  0.00  0.00    +0.000 C 
ATOM     14  C   UNL     1       5.578   6.317  14.559  0.00  0.00    +0.000 C 
ENDROOT
BRANCH   5  15
ATOM     15  C   UNL     1       2.324   2.983  19.710  0.00  0.00    +0.000 A 
ATOM     16  C   UNL     1       1.096   3.253  20.294  0.00  0.00    +0.000 A 
ATOM     17  C   UNL     1       1.187   2.898  21.662  0.00  0.00    +0.000 A 
ATOM     18  C   UNL     1       2.465   2.434  21.846  0.00  0.00    +0.000 A 
ATOM     19  O   UNL     1       3.159   2.478  20.680  0.00  0.00    +0.000 OA
ENDBRANCH   5  15
TORSDOF 1
ENDMDL
MODEL 7
REMARK VINA RESULT:      -6.2      2.755      5.476
REMARK  Name = 
REMARK  4 active torsions:
REMARK  status: ('A' for Active; 'I' for Inactive)
REMARK    1  A    between atoms: C_1  and  C_2
REMARK    2  A    between atoms: C_5  and  C_7
REMARK    3  A    between atoms: C_17  and  C_18
REMARK    4  A    between atoms: C_17  and  C_19
REMARK                            x       y       z     vdW  Elec       q    Type
REMARK                         _______ _______ _______ _____ _____    ______ ____
ROOT
ATOM      1  C   UNL     1       2.777   3.456  19.578  0.00  0.00    +0.000 C 
ATOM      2  C   UNL     1       3.051   4.792  19.012  0.00  0.00    +0.000 A 
ATOM      3  N   UNL     1       2.503   5.907  19.528  0.00  0.00    +0.000 NA
ATOM      4  N   UNL     1       2.909   6.944  18.704  0.00  0.00    +0.000 N 
ATOM      5  C   UNL     1       2.377   8.254  18.840  0.00  0.00    +0.000 C 
ATOM      6  O   UNL     1       2.822   9.087  18.048  0.00  0.00    +0.000 OA
ATOM      7  C   UNL     1       3.793   6.466  17.776  0.00  0.00    +0.000 A 
ATOM      8  C   UNL     1       3.867   5.120  17.948  0.00  0.00    +0.000 A 
ATOM      9  C   UNL     1       4.596   4.458  16.822  0.00  0.00    +0.000 C 
ATOM     10  C   UNL     1       4.895   5.663  15.867  0.00  0.00    +0.000 C 
ATOM     11  C   UNL     1       4.431   6.985  16.545  0.00  0.00    +0.000 C 
ATOM     12  C   UNL     1       6.012   4.790  16.397  0.00  0.00    +0.000 C 
ATOM     13  C   UNL     1       6.639   3.803  15.437  0.00  0.00    +0.000 C 
ATOM     14  C   UNL     1       6.988   5.307  17.424  0.00  0.00    +0.000 C 
ENDROOT
BRANCH   5  15
ATOM     15  C   UNL     1       1.359   8.584  19.833  0.00  0.00    +0.000 A 
ATOM     16  C   UNL     1       1.055   8.115  21.103  0.00  0.00    +0.000 A 
ATOM     17  C   UNL     1      -0.074   8.836  21.563  0.00  0.00    +0.000 A 
ATOM     18  C   UNL     1      -0.405   9.703  20.553  0.00  0.00    +0.000 A 
ATOM     19  O   UNL     1       0.448   9.563  19.508  0.00  0.00    +0.000 OA
ENDBRANCH   5  15
TORSDOF 1
ENDMDL
MODEL 8
REMARK VINA RESULT:      -6.2      3.431      5.141
REMARK  Name = 
REMARK  4 active torsions:
REMARK  status: ('A' for Active; 'I' for Inactive)
REMARK    1  A    between atoms: C_1  and  C_2
REMARK    2  A    between atoms: C_5  and  C_7
REMARK    3  A    between atoms: C_17  and  C_18
REMARK    4  A    between atoms: C_17  and  C_19
REMARK                            x       y       z     vdW  Elec       q    Type
REMARK                         _______ _______ _______ _____ _____    ______ ____
ROOT
ATOM      1  C   UNL     1       4.442   7.022  16.900  0.00  0.00    +0.000 C 
ATOM      2  C   UNL     1       3.470   6.922  18.007  0.00  0.00    +0.000 A 
ATOM      3  N   UNL     1       2.737   7.978  18.405  0.00  0.00    +0.000 NA
ATOM      4  N   UNL     1       2.012   7.542  19.502  0.00  0.00    +0.000 N 
ATOM      5  C   UNL     1       1.254   8.444  20.297  0.00  0.00    +0.000 C 
ATOM      6  O   UNL     1       0.652   7.931  21.243  0.00  0.00    +0.000 OA
ATOM      7  C   UNL     1       2.219   6.202  19.680  0.00  0.00    +0.000 A 
ATOM      8  C   UNL     1       3.147   5.815  18.765  0.00  0.00    +0.000 A 
ATOM      9  C   UNL     1       3.648   4.432  19.038  0.00  0.00    +0.000 C 
ATOM     10  C   UNL     1       2.898   4.063  20.363  0.00  0.00    +0.000 C 
ATOM     11  C   UNL     1       1.905   5.205  20.728  0.00  0.00    +0.000 C 
ATOM     12  C   UNL     1       2.772   3.199  19.127  0.00  0.00    +0.000 C 
ATOM     13  C   UNL     1       3.519   1.883  19.119  0.00  0.00    +0.000 C 
ATOM     14  C   UNL     1       1.489   3.147  18.336  0.00  0.00    +0.000 C 
ENDROOT
BRANCH   5  15
ATOM     15  C   UNL     1       1.209   9.877  20.026  0.00  0.00    +0.000 A 
ATOM     16  C   UNL     1       1.124  10.644  18.873  0.00  0.00    +0.000 A 
ATOM     17  C   UNL     1       1.135  12.004  19.264  0.00  0.00    +0.000 A 
ATOM     18  C   UNL     1       1.230  12.001  20.633  0.00  0.00    +0.000 A 
ATOM     19  O   UNL     1       1.275  10.730  21.103  0.00  0.00    +0.000 OA
ENDBRANCH   5  15
TORSDOF 1
ENDMDL
MODEL 9
REMARK VINA RESULT:      -5.9      3.824      6.952
REMARK  Name = 
REMARK  4 active torsions:
REMARK  status: ('A' for Active; 'I' for Inactive)
REMARK    1  A    between atoms: C_1  and  C_2
REMARK    2  A    between atoms: C_5  and  C_7
REMARK    3  A    between atoms: C_17  and  C_18
REMARK    4  A    between atoms: C_17  and  C_19
REMARK                            x       y       z     vdW  Elec       q    Type
REMARK                         _______ _______ _______ _____ _____    ______ ____
ROOT
ATOM      1  C   UNL     1       0.075   9.260  22.813  0.00  0.00    +0.000 C 
ATOM      2  C   UNL     1       0.623   9.039  21.460  0.00  0.00    +0.000 A 
ATOM      3  N   UNL     1       1.052   7.829  21.057  0.00  0.00    +0.000 NA
ATOM      4  N   UNL     1       1.568   8.016  19.784  0.00  0.00    +0.000 N 
ATOM      5  C   UNL     1       2.275   6.985  19.110  0.00  0.00    +0.000 C 
ATOM      6  O   UNL     1       2.681   7.275  17.983  0.00  0.00    +0.000 OA
ATOM      7  C   UNL     1       1.335   9.304  19.385  0.00  0.00    +0.000 A 
ATOM      8  C   UNL     1       0.767   9.953  20.436  0.00  0.00    +0.000 A 
ATOM      9  C   UNL     1       0.713  11.430  20.207  0.00  0.00    +0.000 C 
ATOM     10  C   UNL     1       1.438  11.579  18.827  0.00  0.00    +0.000 C 
ATOM     11  C   UNL     1       1.770  10.167  18.264  0.00  0.00    +0.000 C 
ATOM     12  C   UNL     1       0.030  12.097  19.030  0.00  0.00    +0.000 C 
ATOM     13  C   UNL     1      -0.149  13.594  19.159  0.00  0.00    +0.000 C 
ATOM     14  C   UNL     1      -1.153  11.420  18.384  0.00  0.00    +0.000 C 
ENDROOT
BRANCH   5  15
ATOM     15  C   UNL     1       2.522   5.680  19.718  0.00  0.00    +0.000 A 
ATOM     16  C   UNL     1       1.954   4.979  20.771  0.00  0.00    +0.000 A 
ATOM     17  C   UNL     1       2.648   3.750  20.887  0.00  0.00    +0.000 A 
ATOM     18  C   UNL     1       3.606   3.764  19.905  0.00  0.00    +0.000 A 
ATOM     19  O   UNL     1       3.540   4.918  19.195  0.00  0.00    +0.000 OA
ENDBRANCH   5  15
TORSDOF 1
ENDMDL
