MODEL 1
REMARK VINA RESULT:      -8.1      0.000      0.000
REMARK  Name = 
REMARK  6 active torsions:
REMARK  status: ('A' for Active; 'I' for Inactive)
REMARK    1  A    between atoms: C_1  and  C_2
REMARK    2  A    between atoms: C_4  and  C_5
REMARK    3  A    between atoms: C_13  and  C_14
REMARK    4  A    between atoms: C_14  and  N_15
REMARK    5  A    between atoms: C_19  and  C_20
REMARK    6  A    between atoms: N_22  and  C_23
REMARK                            x       y       z     vdW  Elec       q    Type
REMARK                         _______ _______ _______ _____ _____    ______ ____
ROOT
ATOM      1  C   UNL     1       3.394   5.308  17.582  0.00  0.00    +0.000 C 
ENDROOT
BRANCH   1   7
ATOM      2  C   UNL     1       2.670   4.078  20.673  0.00  0.00    +0.000 C 
ATOM      3  C   UNL     1       2.421   5.364  20.004  0.00  0.00    +0.000 A 
ATOM      4  O   UNL     1       1.827   6.336  20.756  0.00  0.00    +0.000 OA
ATOM      5  C   UNL     1       1.743   7.420  19.923  0.00  0.00    +0.000 A 
ATOM      6  N   UNL     1       2.218   7.199  18.713  0.00  0.00    +0.000 NA
ATOM      7  C   UNL     1       2.668   5.888  18.752  0.00  0.00    +0.000 A 
BRANCH   5   8
ATOM      8  C   UNL     1       1.164   8.633  20.497  0.00  0.00    +0.000 A 
ATOM      9  C   UNL     1       0.880   9.754  19.700  0.00  0.00    +0.000 A 
ATOM     10  C   UNL     1       0.339  10.917  20.259  0.00  0.00    +0.000 A 
ATOM     11  C   UNL     1       0.074  10.966  21.625  0.00  0.00    +0.000 A 
ATOM     12 CL   UNL     1      -0.577  12.400  22.315  0.00  0.00    +0.000 Cl
ATOM     13  C   UNL     1       0.335   9.861  22.433  0.00  0.00    +0.000 A 
ATOM     14  C   UNL     1       0.876   8.698  21.870  0.00  0.00    +0.000 A 
ENDBRANCH   5   8
ENDBRANCH   1   7
BRANCH   1  15
ATOM     15  N   UNL     1       4.858   5.595  17.546  0.00  0.00    +0.000 NA
ATOM     16  C   UNL     1       5.586   4.654  18.415  0.00  0.00    +0.000 C 
ATOM     17  C   UNL     1       7.101   4.725  18.224  0.00  0.00    +0.000 C 
ATOM     18  C   UNL     1       7.499   4.465  16.777  0.00  0.00    +0.000 C 
ATOM     19  C   UNL     1       6.786   5.440  15.839  0.00  0.00    +0.000 C 
ATOM     20  C   UNL     1       5.271   5.454  16.126  0.00  0.00    +0.000 C 
BRANCH  19  21
ATOM     21  C   UNL     1       6.993   5.051  14.370  0.00  0.00    +0.000 C 
ATOM     22  O   UNL     1       7.853   5.568  13.661  0.00  0.00    +0.000 OA
ATOM     23  N   UNL     1       6.146   4.066  13.896  0.00  0.00    +0.000 N 
ATOM     24  H   UNL     1       5.466   3.645  14.515  0.00  0.00    +0.000 HD
BRANCH  23  25
ATOM     25  C   UNL     1       6.166   3.665  12.522  0.00  0.00    +0.000 C 
ATOM     26  C   UNL     1       5.720   2.286  12.125  0.00  0.00    +0.000 C 
ATOM     27  C   UNL     1       4.896   3.479  11.737  0.00  0.00    +0.000 C 
ENDBRANCH  23  25
ENDBRANCH  19  21
ENDBRANCH   1  15
TORSDOF 5
ENDMDL
MODEL 2
REMARK VINA RESULT:      -7.8      1.027      1.461
REMARK  Name = 
REMARK  6 active torsions:
REMARK  status: ('A' for Active; 'I' for Inactive)
REMARK    1  A    between atoms: C_1  and  C_2
REMARK    2  A    between atoms: C_4  and  C_5
REMARK    3  A    between atoms: C_13  and  C_14
REMARK    4  A    between atoms: C_14  and  N_15
REMARK    5  A    between atoms: C_19  and  C_20
REMARK    6  A    between atoms: N_22  and  C_23
REMARK                            x       y       z     vdW  Elec       q    Type
REMARK                         _______ _______ _______ _____ _____    ______ ____
ROOT
ATOM      1  C   UNL     1       3.402   5.342  17.677  0.00  0.00    +0.000 C 
ENDROOT
BRANCH   1   7
ATOM      2  C   UNL     1       2.293   5.047  20.882  0.00  0.00    +0.000 C 
ATOM      3  C   UNL     1       2.213   6.111  19.869  0.00  0.00    +0.000 A 
ATOM      4  O   UNL     1       1.632   7.282  20.262  0.00  0.00    +0.000 OA
ATOM      5  C   UNL     1       1.715   8.099  19.167  0.00  0.00    +0.000 A 
ATOM      6  N   UNL     1       2.282   7.530  18.121  0.00  0.00    +0.000 NA
ATOM      7  C   UNL     1       2.619   6.258  18.560  0.00  0.00    +0.000 A 
BRANCH   5   8
ATOM      8  C   UNL     1       1.186   9.451  19.326  0.00  0.00    +0.000 A 
ATOM      9  C   UNL     1       0.143   9.727  20.225  0.00  0.00    +0.000 A 
ATOM     10  C   UNL     1      -0.367  11.022  20.362  0.00  0.00    +0.000 A 
ATOM     11  C   UNL     1       0.166  12.057  19.598  0.00  0.00    +0.000 A 
ATOM     12 CL   UNL     1      -0.471  13.647  19.755  0.00  0.00    +0.000 Cl
ATOM     13  C   UNL     1       1.210  11.810  18.709  0.00  0.00    +0.000 A 
ATOM     14  C   UNL     1       1.719  10.512  18.576  0.00  0.00    +0.000 A 
ENDBRANCH   5   8
ENDBRANCH   1   7
BRANCH   1  15
ATOM     15  N   UNL     1       4.872   5.602  17.646  0.00  0.00    +0.000 NA
ATOM     16  C   UNL     1       5.580   4.635  18.503  0.00  0.00    +0.000 C 
ATOM     17  C   UNL     1       7.097   4.681  18.316  0.00  0.00    +0.000 C 
ATOM     18  C   UNL     1       7.492   4.434  16.865  0.00  0.00    +0.000 C 
ATOM     19  C   UNL     1       6.799   5.436  15.941  0.00  0.00    +0.000 C 
ATOM     20  C   UNL     1       5.285   5.474  16.226  0.00  0.00    +0.000 C 
BRANCH  19  21
ATOM     21  C   UNL     1       7.001   5.065  14.466  0.00  0.00    +0.000 C 
ATOM     22  O   UNL     1       7.991   5.410  13.825  0.00  0.00    +0.000 OA
ATOM     23  N   UNL     1       5.992   4.303  13.907  0.00  0.00    +0.000 N 
ATOM     24  H   UNL     1       5.204   4.016  14.472  0.00  0.00    +0.000 HD
BRANCH  23  25
ATOM     25  C   UNL     1       6.004   3.957  12.518  0.00  0.00    +0.000 C 
ATOM     26  C   UNL     1       6.234   2.535  12.089  0.00  0.00    +0.000 C 
ATOM     27  C   UNL     1       4.887   3.167  11.893  0.00  0.00    +0.000 C 
ENDBRANCH  23  25
ENDBRANCH  19  21
ENDBRANCH   1  15
TORSDOF 5
ENDMDL
MODEL 3
REMARK VINA RESULT:      -7.6      0.484      1.062
REMARK  Name = 
REMARK  6 active torsions:
REMARK  status: ('A' for Active; 'I' for Inactive)
REMARK    1  A    between atoms: C_1  and  C_2
REMARK    2  A    between atoms: C_4  and  C_5
REMARK    3  A    between atoms: C_13  and  C_14
REMARK    4  A    between atoms: C_14  and  N_15
REMARK    5  A    between atoms: C_19  and  C_20
REMARK    6  A    between atoms: N_22  and  C_23
REMARK                            x       y       z     vdW  Elec       q    Type
REMARK                         _______ _______ _______ _____ _____    ______ ____
ROOT
ATOM      1  C   UNL     1       3.463   4.832  18.069  0.00  0.00    +0.000 C 
ENDROOT
BRANCH   1   7
ATOM      2  C   UNL     1       1.903   3.682  20.868  0.00  0.00    +0.000 C 
ATOM      3  C   UNL     1       2.006   5.003  20.228  0.00  0.00    +0.000 A 
ATOM      4  O   UNL     1       1.420   6.045  20.887  0.00  0.00    +0.000 OA
ATOM      5  C   UNL     1       1.688   7.142  20.113  0.00  0.00    +0.000 A 
ATOM      6  N   UNL     1       2.374   6.869  19.021  0.00  0.00    +0.000 NA
ATOM      7  C   UNL     1       2.598   5.502  19.087  0.00  0.00    +0.000 A 
BRANCH   5   8
ATOM      8  C   UNL     1       1.193   8.423  20.614  0.00  0.00    +0.000 A 
ATOM      9  C   UNL     1       0.935   8.624  21.980  0.00  0.00    +0.000 A 
ATOM     10  C   UNL     1       0.448   9.849  22.448  0.00  0.00    +0.000 A 
ATOM     11  C   UNL     1       0.217  10.888  21.551  0.00  0.00    +0.000 A 
ATOM     12 CL   UNL     1      -0.396  12.389  22.125  0.00  0.00    +0.000 Cl
ATOM     13  C   UNL     1       0.478  10.716  20.193  0.00  0.00    +0.000 A 
ATOM     14  C   UNL     1       0.966   9.488  19.727  0.00  0.00    +0.000 A 
ENDBRANCH   5   8
ENDBRANCH   1   7
BRANCH   1  15
ATOM     15  N   UNL     1       4.841   5.392  17.948  0.00  0.00    +0.000 NA
ATOM     16  C   UNL     1       5.759   4.693  18.863  0.00  0.00    +0.000 C 
ATOM     17  C   UNL     1       7.226   5.038  18.605  0.00  0.00    +0.000 C 
ATOM     18  C   UNL     1       7.633   4.729  17.169  0.00  0.00    +0.000 C 
ATOM     19  C   UNL     1       6.720   5.460  16.183  0.00  0.00    +0.000 C 
ATOM     20  C   UNL     1       5.240   5.206  16.530  0.00  0.00    +0.000 C 
BRANCH  19  21
ATOM     21  C   UNL     1       6.964   4.987  14.745  0.00  0.00    +0.000 C 
ATOM     22  O   UNL     1       7.845   5.461  14.031  0.00  0.00    +0.000 OA
ATOM     23  N   UNL     1       6.127   3.978  14.305  0.00  0.00    +0.000 N 
ATOM     24  H   UNL     1       5.429   3.594  14.929  0.00  0.00    +0.000 HD
BRANCH  23  25
ATOM     25  C   UNL     1       6.181   3.499  12.958  0.00  0.00    +0.000 C 
ATOM     26  C   UNL     1       5.037   2.714  12.382  0.00  0.00    +0.000 C 
ATOM     27  C   UNL     1       5.326   4.096  11.874  0.00  0.00    +0.000 C 
ENDBRANCH  23  25
ENDBRANCH  19  21
ENDBRANCH   1  15
TORSDOF 5
ENDMDL
MODEL 4
REMARK VINA RESULT:      -7.6      1.616      1.933
REMARK  Name = 
REMARK  6 active torsions:
REMARK  status: ('A' for Active; 'I' for Inactive)
REMARK    1  A    between atoms: C_1  and  C_2
REMARK    2  A    between atoms: C_4  and  C_5
REMARK    3  A    between atoms: C_13  and  C_14
REMARK    4  A    between atoms: C_14  and  N_15
REMARK    5  A    between atoms: C_19  and  C_20
REMARK    6  A    between atoms: N_22  and  C_23
REMARK                            x       y       z     vdW  Elec       q    Type
REMARK                         _______ _______ _______ _____ _____    ______ ____
ROOT
ATOM      1  C   UNL     1       3.330   5.747  17.549  0.00  0.00    +0.000 C 
ENDROOT
BRANCH   1   7
ATOM      2  C   UNL     1       2.147   5.917  20.737  0.00  0.00    +0.000 C 
ATOM      3  C   UNL     1       2.164   6.856  19.604  0.00  0.00    +0.000 A 
ATOM      4  O   UNL     1       1.664   8.105  19.841  0.00  0.00    +0.000 OA
ATOM      5  C   UNL     1       1.827   8.776  18.659  0.00  0.00    +0.000 A 
ATOM      6  N   UNL     1       2.368   8.047  17.703  0.00  0.00    +0.000 NA
ATOM      7  C   UNL     1       2.602   6.816  18.297  0.00  0.00    +0.000 A 
BRANCH   5   8
ATOM      8  C   UNL     1       1.396  10.172  18.644  0.00  0.00    +0.000 A 
ATOM      9  C   UNL     1       2.282  11.207  18.298  0.00  0.00    +0.000 A 
ATOM     10  C   UNL     1       1.865  12.542  18.299  0.00  0.00    +0.000 A 
ATOM     11  C   UNL     1       0.553  12.855  18.645  0.00  0.00    +0.000 A 
ATOM     12 CL   UNL     1       0.046  14.498  18.661  0.00  0.00    +0.000 Cl
ATOM     13  C   UNL     1      -0.346  11.845  18.979  0.00  0.00    +0.000 A 
ATOM     14  C   UNL     1       0.074  10.508  18.976  0.00  0.00    +0.000 A 
ENDBRANCH   5   8
ENDBRANCH   1   7
BRANCH   1  15
ATOM     15  N   UNL     1       4.818   5.857  17.584  0.00  0.00    +0.000 NA
ATOM     16  C   UNL     1       5.387   4.825  18.468  0.00  0.00    +0.000 C 
ATOM     17  C   UNL     1       6.907   4.717  18.347  0.00  0.00    +0.000 C 
ATOM     18  C   UNL     1       7.340   4.431  16.914  0.00  0.00    +0.000 C 
ATOM     19  C   UNL     1       6.792   5.497  15.964  0.00  0.00    +0.000 C 
ATOM     20  C   UNL     1       5.278   5.688  16.183  0.00  0.00    +0.000 C 
BRANCH  19  21
ATOM     21  C   UNL     1       7.021   5.107  14.499  0.00  0.00    +0.000 C 
ATOM     22  O   UNL     1       7.878   5.638  13.796  0.00  0.00    +0.000 OA
ATOM     23  N   UNL     1       6.198   4.103  14.021  0.00  0.00    +0.000 N 
ATOM     24  H   UNL     1       5.521   3.671  14.635  0.00  0.00    +0.000 HD
BRANCH  23  25
ATOM     25  C   UNL     1       6.239   3.697  12.649  0.00  0.00    +0.000 C 
ATOM     26  C   UNL     1       5.822   2.309  12.253  0.00  0.00    +0.000 C 
ATOM     27  C   UNL     1       4.981   3.485  11.852  0.00  0.00    +0.000 C 
ENDBRANCH  23  25
ENDBRANCH  19  21
ENDBRANCH   1  15
TORSDOF 5
ENDMDL
MODEL 5
REMARK VINA RESULT:      -7.5      4.453      7.592
REMARK  Name = 
REMARK  6 active torsions:
REMARK  status: ('A' for Active; 'I' for Inactive)
REMARK    1  A    between atoms: C_1  and  C_2
REMARK    2  A    between atoms: C_4  and  C_5
REMARK    3  A    between atoms: C_13  and  C_14
REMARK    4  A    between atoms: C_14  and  N_15
REMARK    5  A    between atoms: C_19  and  C_20
REMARK    6  A    between atoms: N_22  and  C_23
REMARK                            x       y       z     vdW  Elec       q    Type
REMARK                         _______ _______ _______ _____ _____    ______ ____
ROOT
ATOM      1  C   UNL     1       6.470   5.883  16.509  0.00  0.00    +0.000 C 
ENDROOT
BRANCH   1   7
ATOM      2  C   UNL     1       8.203   5.353  19.391  0.00  0.00    +0.000 C 
ATOM      3  C   UNL     1       7.915   6.546  18.579  0.00  0.00    +0.000 A 
ATOM      4  O   UNL     1       8.492   7.714  18.988  0.00  0.00    +0.000 OA
ATOM      5  C   UNL     1       8.101   8.640  18.059  0.00  0.00    +0.000 A 
ATOM      6  N   UNL     1       7.315   8.153  17.119  0.00  0.00    +0.000 NA
ATOM      7  C   UNL     1       7.197   6.807  17.431  0.00  0.00    +0.000 A 
BRANCH   5   8
ATOM      8  C   UNL     1       8.614   9.997  18.243  0.00  0.00    +0.000 A 
ATOM      9  C   UNL     1       8.111  11.075  17.497  0.00  0.00    +0.000 A 
ATOM     10  C   UNL     1       8.617  12.368  17.668  0.00  0.00    +0.000 A 
ATOM     11  C   UNL     1       9.632  12.594  18.594  0.00  0.00    +0.000 A 
ATOM     12 CL   UNL     1      10.265  14.180  18.795  0.00  0.00    +0.000 Cl
ATOM     13  C   UNL     1      10.137  11.541  19.355  0.00  0.00    +0.000 A 
ATOM     14  C   UNL     1       9.628  10.248  19.181  0.00  0.00    +0.000 A 
ENDBRANCH   5   8
ENDBRANCH   1   7
BRANCH   1  15
ATOM     15  N   UNL     1       5.206   5.311  17.060  0.00  0.00    +0.000 NA
ATOM     16  C   UNL     1       5.496   4.461  18.227  0.00  0.00    +0.000 C 
ATOM     17  C   UNL     1       4.235   4.056  18.991  0.00  0.00    +0.000 C 
ATOM     18  C   UNL     1       3.442   5.273  19.454  0.00  0.00    +0.000 C 
ATOM     19  C   UNL     1       3.095   6.171  18.266  0.00  0.00    +0.000 C 
ATOM     20  C   UNL     1       4.355   6.470  17.429  0.00  0.00    +0.000 C 
BRANCH  19  21
ATOM     21  C   UNL     1       2.501   7.506  18.733  0.00  0.00    +0.000 C 
ATOM     22  O   UNL     1       2.416   8.488  17.999  0.00  0.00    +0.000 OA
ATOM     23  N   UNL     1       2.053   7.526  20.041  0.00  0.00    +0.000 N 
ATOM     24  H   UNL     1       2.115   6.691  20.608  0.00  0.00    +0.000 HD
BRANCH  23  25
ATOM     25  C   UNL     1       1.556   8.728  20.639  0.00  0.00    +0.000 C 
ATOM     26  C   UNL     1       0.144   8.796  21.150  0.00  0.00    +0.000 C 
ATOM     27  C   UNL     1       1.291   8.822  22.117  0.00  0.00    +0.000 C 
ENDBRANCH  23  25
ENDBRANCH  19  21
ENDBRANCH   1  15
TORSDOF 5
ENDMDL
MODEL 6
REMARK VINA RESULT:      -7.5      4.419      7.551
REMARK  Name = 
REMARK  6 active torsions:
REMARK  status: ('A' for Active; 'I' for Inactive)
REMARK    1  A    between atoms: C_1  and  C_2
REMARK    2  A    between atoms: C_4  and  C_5
REMARK    3  A    between atoms: C_13  and  C_14
REMARK    4  A    between atoms: C_14  and  N_15
REMARK    5  A    between atoms: C_19  and  C_20
REMARK    6  A    between atoms: N_22  and  C_23
REMARK                            x       y       z     vdW  Elec       q    Type
REMARK                         _______ _______ _______ _____ _____    ______ ____
ROOT
ATOM      1  C   UNL     1       6.477   5.959  16.308  0.00  0.00    +0.000 C 
ENDROOT
BRANCH   1   7
ATOM      2  C   UNL     1       8.092   5.225  19.214  0.00  0.00    +0.000 C 
ATOM      3  C   UNL     1       7.850   6.470  18.469  0.00  0.00    +0.000 A 
ATOM      4  O   UNL     1       8.426   7.602  18.971  0.00  0.00    +0.000 OA
ATOM      5  C   UNL     1       8.082   8.590  18.088  0.00  0.00    +0.000 A 
ATOM      6  N   UNL     1       7.328   8.174  17.090  0.00  0.00    +0.000 NA
ATOM      7  C   UNL     1       7.181   6.812  17.313  0.00  0.00    +0.000 A 
BRANCH   5   8
ATOM      8  C   UNL     1       8.605   9.924  18.374  0.00  0.00    +0.000 A 
ATOM      9  C   UNL     1       9.443  10.160  19.477  0.00  0.00    +0.000 A 
ATOM     10  C   UNL     1       9.928  11.443  19.752  0.00  0.00    +0.000 A 
ATOM     11  C   UNL     1       9.579  12.505  18.921  0.00  0.00    +0.000 A 
ATOM     12 CL   UNL     1      10.163  14.085  19.268  0.00  0.00    +0.000 Cl
ATOM     13  C   UNL     1       8.760  12.292  17.814  0.00  0.00    +0.000 A 
ATOM     14  C   UNL     1       8.277  11.006  17.541  0.00  0.00    +0.000 A 
ENDBRANCH   5   8
ENDBRANCH   1   7
BRANCH   1  15
ATOM     15  N   UNL     1       5.131   5.471  16.730  0.00  0.00    +0.000 NA
ATOM     16  C   UNL     1       5.263   4.461  17.794  0.00  0.00    +0.000 C 
ATOM     17  C   UNL     1       3.925   4.113  18.447  0.00  0.00    +0.000 C 
ATOM     18  C   UNL     1       3.242   5.347  19.023  0.00  0.00    +0.000 C 
ATOM     19  C   UNL     1       3.060   6.414  17.942  0.00  0.00    +0.000 C 
ATOM     20  C   UNL     1       4.389   6.667  17.204  0.00  0.00    +0.000 C 
BRANCH  19  21
ATOM     21  C   UNL     1       2.586   7.742  18.546  0.00  0.00    +0.000 C 
ATOM     22  O   UNL     1       2.678   8.813  17.950  0.00  0.00    +0.000 OA
ATOM     23  N   UNL     1       2.035   7.651  19.812  0.00  0.00    +0.000 N 
ATOM     24  H   UNL     1       1.952   6.749  20.262  0.00  0.00    +0.000 HD
BRANCH  23  25
ATOM     25  C   UNL     1       1.630   8.820  20.533  0.00  0.00    +0.000 C 
ATOM     26  C   UNL     1       0.246   9.378  20.362  0.00  0.00    +0.000 C 
ATOM     27  C   UNL     1       0.641   8.744  21.664  0.00  0.00    +0.000 C 
ENDBRANCH  23  25
ENDBRANCH  19  21
ENDBRANCH   1  15
TORSDOF 5
ENDMDL
MODEL 7
REMARK VINA RESULT:      -7.4      4.624      7.812
REMARK  Name = 
REMARK  6 active torsions:
REMARK  status: ('A' for Active; 'I' for Inactive)
REMARK    1  A    between atoms: C_1  and  C_2
REMARK    2  A    between atoms: C_4  and  C_5
REMARK    3  A    between atoms: C_13  and  C_14
REMARK    4  A    between atoms: C_14  and  N_15
REMARK    5  A    between atoms: C_19  and  C_20
REMARK    6  A    between atoms: N_22  and  C_23
REMARK                            x       y       z     vdW  Elec       q    Type
REMARK                         _______ _______ _______ _____ _____    ______ ____
ROOT
ATOM      1  C   UNL     1       5.999   6.473  16.581  0.00  0.00    +0.000 C 
ENDROOT
BRANCH   1   7
ATOM      2  C   UNL     1       8.146   5.304  18.951  0.00  0.00    +0.000 C 
ATOM      3  C   UNL     1       7.833   6.644  18.431  0.00  0.00    +0.000 A 
ATOM      4  O   UNL     1       8.577   7.677  18.925  0.00  0.00    +0.000 OA
ATOM      5  C   UNL     1       8.119   8.785  18.264  0.00  0.00    +0.000 A 
ATOM      6  N   UNL     1       7.142   8.532  17.414  0.00  0.00    +0.000 NA
ATOM      7  C   UNL     1       6.956   7.160  17.500  0.00  0.00    +0.000 A 
BRANCH   5   8
ATOM      8  C   UNL     1       8.778  10.049  18.585  0.00  0.00    +0.000 A 
ATOM      9  C   UNL     1       8.841  11.098  17.653  0.00  0.00    +0.000 A 
ATOM     10  C   UNL     1       9.486  12.299  17.963  0.00  0.00    +0.000 A 
ATOM     11  C   UNL     1      10.073  12.463  19.215  0.00  0.00    +0.000 A 
ATOM     12 CL   UNL     1      10.879  13.935  19.591  0.00  0.00    +0.000 Cl
ATOM     13  C   UNL     1      10.011  11.442  20.160  0.00  0.00    +0.000 A 
ATOM     14  C   UNL     1       9.364  10.240  19.846  0.00  0.00    +0.000 A 
ENDBRANCH   5   8
ENDBRANCH   1   7
BRANCH   1  15
ATOM     15  N   UNL     1       4.714   6.050  17.213  0.00  0.00    +0.000 NA
ATOM     16  C   UNL     1       4.964   5.478  18.547  0.00  0.00    +0.000 C 
ATOM     17  C   UNL     1       3.680   5.266  19.348  0.00  0.00    +0.000 C 
ATOM     18  C   UNL     1       2.895   6.562  19.508  0.00  0.00    +0.000 C 
ATOM     19  C   UNL     1       2.589   7.177  18.142  0.00  0.00    +0.000 C 
ATOM     20  C   UNL     1       3.872   7.271  17.293  0.00  0.00    +0.000 C 
BRANCH  19  21
ATOM     21  C   UNL     1       2.005   8.588  18.285  0.00  0.00    +0.000 C 
ATOM     22  O   UNL     1       2.067   9.427  17.389  0.00  0.00    +0.000 OA
ATOM     23  N   UNL     1       1.388   8.851  19.495  0.00  0.00    +0.000 N 
ATOM     24  H   UNL     1       1.333   8.128  20.200  0.00  0.00    +0.000 HD
BRANCH  23  25
ATOM     25  C   UNL     1       0.875  10.151  19.802  0.00  0.00    +0.000 C 
ATOM     26  C   UNL     1      -0.530  10.524  19.424  0.00  0.00    +0.000 C 
ATOM     27  C   UNL     1      -0.165  10.356  20.870  0.00  0.00    +0.000 C 
ENDBRANCH  23  25
ENDBRANCH  19  21
ENDBRANCH   1  15
TORSDOF 5
ENDMDL
MODEL 8
REMARK VINA RESULT:      -7.4      1.173      1.363
REMARK  Name = 
REMARK  6 active torsions:
REMARK  status: ('A' for Active; 'I' for Inactive)
REMARK    1  A    between atoms: C_1  and  C_2
REMARK    2  A    between atoms: C_4  and  C_5
REMARK    3  A    between atoms: C_13  and  C_14
REMARK    4  A    between atoms: C_14  and  N_15
REMARK    5  A    between atoms: C_19  and  C_20
REMARK    6  A    between atoms: N_22  and  C_23
REMARK                            x       y       z     vdW  Elec       q    Type
REMARK                         _______ _______ _______ _____ _____    ______ ____
ROOT
ATOM      1  C   UNL     1       3.125   5.558  18.126  0.00  0.00    +0.000 C 
ENDROOT
BRANCH   1   7
ATOM      2  C   UNL     1       2.125   4.337  21.142  0.00  0.00    +0.000 C 
ATOM      3  C   UNL     1       1.985   5.639  20.473  0.00  0.00    +0.000 A 
ATOM      4  O   UNL     1       1.385   6.632  21.193  0.00  0.00    +0.000 OA
ATOM      5  C   UNL     1       1.412   7.726  20.370  0.00  0.00    +0.000 A 
ATOM      6  N   UNL     1       1.961   7.494  19.194  0.00  0.00    +0.000 NA
ATOM      7  C   UNL     1       2.345   6.162  19.249  0.00  0.00    +0.000 A 
BRANCH   5   8
ATOM      8  C   UNL     1       0.852   8.960  20.916  0.00  0.00    +0.000 A 
ATOM      9  C   UNL     1       0.843  10.151  20.171  0.00  0.00    +0.000 A 
ATOM     10  C   UNL     1       0.317  11.331  20.706  0.00  0.00    +0.000 A 
ATOM     11  C   UNL     1      -0.209  11.330  21.995  0.00  0.00    +0.000 A 
ATOM     12 CL   UNL     1      -0.841  12.785  22.658  0.00  0.00    +0.000 Cl
ATOM     13  C   UNL     1      -0.222  10.158  22.748  0.00  0.00    +0.000 A 
ATOM     14  C   UNL     1       0.305   8.977  22.209  0.00  0.00    +0.000 A 
ENDBRANCH   5   8
ENDBRANCH   1   7
BRANCH   1  15
ATOM     15  N   UNL     1       4.567   5.941  18.084  0.00  0.00    +0.000 NA
ATOM     16  C   UNL     1       5.293   5.319  19.204  0.00  0.00    +0.000 C 
ATOM     17  C   UNL     1       6.810   5.458  19.074  0.00  0.00    +0.000 C 
ATOM     18  C   UNL     1       7.320   4.863  17.767  0.00  0.00    +0.000 C 
ATOM     19  C   UNL     1       6.609   5.501  16.572  0.00  0.00    +0.000 C 
ATOM     20  C   UNL     1       5.081   5.470  16.773  0.00  0.00    +0.000 C 
BRANCH  19  21
ATOM     21  C   UNL     1       6.938   4.762  15.269  0.00  0.00    +0.000 C 
ATOM     22  O   UNL     1       6.664   3.578  15.091  0.00  0.00    +0.000 OA
ATOM     23  N   UNL     1       7.557   5.527  14.298  0.00  0.00    +0.000 N 
ATOM     24  H   UNL     1       7.744   6.506  14.470  0.00  0.00    +0.000 HD
BRANCH  23  25
ATOM     25  C   UNL     1       8.001   4.949  13.066  0.00  0.00    +0.000 C 
ATOM     26  C   UNL     1       7.007   4.405  12.079  0.00  0.00    +0.000 C 
ATOM     27  C   UNL     1       7.788   5.642  11.748  0.00  0.00    +0.000 C 
ENDBRANCH  23  25
ENDBRANCH  19  21
ENDBRANCH   1  15
TORSDOF 5
ENDMDL
MODEL 9
REMARK VINA RESULT:      -7.3      2.891      4.604
REMARK  Name = 
REMARK  6 active torsions:
REMARK  status: ('A' for Active; 'I' for Inactive)
REMARK    1  A    between atoms: C_1  and  C_2
REMARK    2  A    between atoms: C_4  and  C_5
REMARK    3  A    between atoms: C_13  and  C_14
REMARK    4  A    between atoms: C_14  and  N_15
REMARK    5  A    between atoms: C_19  and  C_20
REMARK    6  A    between atoms: N_22  and  C_23
REMARK                            x       y       z     vdW  Elec       q    Type
REMARK                         _______ _______ _______ _____ _____    ______ ____
ROOT
ATOM      1  C   UNL     1       5.052   4.176  19.323  0.00  0.00    +0.000 C 
ENDROOT
BRANCH   1   7
ATOM      2  C   UNL     1       2.280   3.553  17.447  0.00  0.00    +0.000 C 
ATOM      3  C   UNL     1       2.757   4.720  18.205  0.00  0.00    +0.000 A 
ATOM      4  O   UNL     1       1.919   5.798  18.254  0.00  0.00    +0.000 OA
ATOM      5  C   UNL     1       2.572   6.713  19.034  0.00  0.00    +0.000 A 
ATOM      6  N   UNL     1       3.751   6.305  19.461  0.00  0.00    +0.000 NA
ATOM      7  C   UNL     1       3.879   5.022  18.948  0.00  0.00    +0.000 A 
BRANCH   5   8
ATOM      8  C   UNL     1       1.871   7.971  19.281  0.00  0.00    +0.000 A 
ATOM      9  C   UNL     1       1.371   8.292  20.554  0.00  0.00    +0.000 A 
ATOM     10  C   UNL     1       0.689   9.492  20.778  0.00  0.00    +0.000 A 
ATOM     11  C   UNL     1       0.502  10.386  19.727  0.00  0.00    +0.000 A 
ATOM     12 CL   UNL     1      -0.350  11.855  19.999  0.00  0.00    +0.000 Cl
ATOM     13  C   UNL     1       1.000  10.095  18.459  0.00  0.00    +0.000 A 
ATOM     14  C   UNL     1       1.684   8.892  18.238  0.00  0.00    +0.000 A 
ENDBRANCH   5   8
ENDBRANCH   1   7
BRANCH   1  15
ATOM     15  N   UNL     1       6.278   4.401  18.502  0.00  0.00    +0.000 NA
ATOM     16  C   UNL     1       6.041   3.996  17.107  0.00  0.00    +0.000 C 
ATOM     17  C   UNL     1       7.161   4.438  16.165  0.00  0.00    +0.000 C 
ATOM     18  C   UNL     1       7.371   5.947  16.209  0.00  0.00    +0.000 C 
ATOM     19  C   UNL     1       7.648   6.409  17.640  0.00  0.00    +0.000 C 
ATOM     20  C   UNL     1       6.582   5.852  18.603  0.00  0.00    +0.000 C 
BRANCH  19  21
ATOM     21  C   UNL     1       7.636   7.939  17.743  0.00  0.00    +0.000 C 
ATOM     22  O   UNL     1       6.824   8.638  17.141  0.00  0.00    +0.000 OA
ATOM     23  N   UNL     1       8.600   8.482  18.573  0.00  0.00    +0.000 N 
ATOM     24  H   UNL     1       9.235   7.874  19.073  0.00  0.00    +0.000 HD
BRANCH  23  25
ATOM     25  C   UNL     1       8.763   9.899  18.697  0.00  0.00    +0.000 C 
ATOM     26  C   UNL     1       9.367  10.489  19.940  0.00  0.00    +0.000 C 
ATOM     27  C   UNL     1      10.121  10.543  18.643  0.00  0.00    +0.000 C 
ENDBRANCH  23  25
ENDBRANCH  19  21
ENDBRANCH   1  15
TORSDOF 5
ENDMDL
