MODEL 1
REMARK VINA RESULT:      -7.9      0.000      0.000
REMARK  Name = 
REMARK  4 active torsions:
REMARK  status: ('A' for Active; 'I' for Inactive)
REMARK    1  A    between atoms: C_1  and  C_2
REMARK    2  A    between atoms: C_2  and  C_3
REMARK    3  A    between atoms: N_5  and  C_6
REMARK    4  A    between atoms: C_6  and  C_7
REMARK                            x       y       z     vdW  Elec       q    Type
REMARK                         _______ _______ _______ _____ _____    ______ ____
ROOT
ATOM      1  C   UNL     1       7.213   6.060  18.868  0.00  0.00    +0.000 C 
ATOM      2  O   UNL     1       7.756   5.391  19.752  0.00  0.00    +0.000 OA
ATOM      3  N   UNL     1       5.822   5.946  18.605  0.00  0.00    +0.000 N 
ATOM      4  C   UNL     1       5.252   6.727  17.544  0.00  0.00    +0.000 C 
ATOM      5  C   UNL     1       3.771   6.952  17.566  0.00  0.00    +0.000 C 
ATOM      6  C   UNL     1       2.884   5.994  18.328  0.00  0.00    +0.000 C 
ATOM      7  C   UNL     1       3.487   4.728  18.975  0.00  0.00    +0.000 C 
ATOM      8  C   UNL     1       3.158   3.486  18.077  0.00  0.00    +0.000 C 
ATOM      9  C   UNL     1       1.667   3.087  17.912  0.00  0.00    +0.000 C 
ATOM     10  C   UNL     1       1.091   2.292  19.086  0.00  0.00    +0.000 C 
ATOM     11  C   UNL     1       0.642   3.116  20.287  0.00  0.00    +0.000 C 
ATOM     12  C   UNL     1       1.279   4.490  20.443  0.00  0.00    +0.000 C 
ATOM     13  C   UNL     1       2.815   4.511  20.383  0.00  0.00    +0.000 C 
ATOM     14  C   UNL     1       5.052   4.844  19.220  0.00  0.00    +0.000 C 
ENDROOT
BRANCH   1  15
ATOM     15  C   UNL     1       8.046   7.106  18.063  0.00  0.00    +0.000 C 
BRANCH  15  18
ATOM     16  C   UNL     1       8.664   9.475  18.602  0.00  0.00    +0.000 C 
ATOM     17  O   UNL     1       8.090   9.949  17.631  0.00  0.00    +0.000 OA
ATOM     18  N   UNL     1       8.696   8.125  18.890  0.00  0.00    +0.000 N 
ATOM     19  H   UNL     1       9.259   7.794  19.663  0.00  0.00    +0.000 HD
BRANCH  16  21
ATOM     20  C   UNL     1      10.371  11.331  18.984  0.00  0.00    +0.000 C 
ATOM     21  C   UNL     1       9.421  10.323  19.618  0.00  0.00    +0.000 C 
ENDBRANCH  16  21
ENDBRANCH  15  18
ENDBRANCH   1  15
TORSDOF 3
ENDMDL
MODEL 2
REMARK VINA RESULT:      -7.1      3.220      4.268
REMARK  Name = 
REMARK  4 active torsions:
REMARK  status: ('A' for Active; 'I' for Inactive)
REMARK    1  A    between atoms: C_1  and  C_2
REMARK    2  A    between atoms: C_2  and  C_3
REMARK    3  A    between atoms: N_5  and  C_6
REMARK    4  A    between atoms: C_6  and  C_7
REMARK                            x       y       z     vdW  Elec       q    Type
REMARK                         _______ _______ _______ _____ _____    ______ ____
ROOT
ATOM      1  C   UNL     1       6.904   4.826  16.826  0.00  0.00    +0.000 C 
ATOM      2  O   UNL     1       7.654   4.025  17.392  0.00  0.00    +0.000 OA
ATOM      3  N   UNL     1       5.567   5.020  17.262  0.00  0.00    +0.000 N 
ATOM      4  C   UNL     1       4.733   5.942  16.545  0.00  0.00    +0.000 C 
ATOM      5  C   UNL     1       3.524   6.478  17.251  0.00  0.00    +0.000 C 
ATOM      6  C   UNL     1       2.935   5.705  18.408  0.00  0.00    +0.000 C 
ATOM      7  C   UNL     1       3.501   4.318  18.782  0.00  0.00    +0.000 C 
ATOM      8  C   UNL     1       2.536   3.207  18.238  0.00  0.00    +0.000 C 
ATOM      9  C   UNL     1       1.102   3.142  18.829  0.00  0.00    +0.000 C 
ATOM     10  C   UNL     1       1.009   2.448  20.189  0.00  0.00    +0.000 C 
ATOM     11  C   UNL     1       1.368   3.306  21.397  0.00  0.00    +0.000 C 
ATOM     12  C   UNL     1       2.268   4.506  21.134  0.00  0.00    +0.000 C 
ATOM     13  C   UNL     1       3.555   4.199  20.351  0.00  0.00    +0.000 C 
ATOM     14  C   UNL     1       4.978   4.087  18.246  0.00  0.00    +0.000 C 
ENDROOT
BRANCH   1  15
ATOM     15  C   UNL     1       7.445   5.697  15.649  0.00  0.00    +0.000 C 
BRANCH  15  18
ATOM     16  C   UNL     1       7.956   5.376  13.215  0.00  0.00    +0.000 C 
ATOM     17  O   UNL     1       8.986   6.035  13.244  0.00  0.00    +0.000 OA
ATOM     18  N   UNL     1       7.153   5.160  14.317  0.00  0.00    +0.000 N 
ATOM     19  H   UNL     1       6.271   4.676  14.204  0.00  0.00    +0.000 HD
BRANCH  16  21
ATOM     20  C   UNL     1       6.424   3.598  12.219  0.00  0.00    +0.000 C 
ATOM     21  C   UNL     1       7.426   4.712  11.949  0.00  0.00    +0.000 C 
ENDBRANCH  16  21
ENDBRANCH  15  18
ENDBRANCH   1  15
TORSDOF 3
ENDMDL
MODEL 3
REMARK VINA RESULT:      -7.0      3.100      4.374
REMARK  Name = 
REMARK  4 active torsions:
REMARK  status: ('A' for Active; 'I' for Inactive)
REMARK    1  A    between atoms: C_1  and  C_2
REMARK    2  A    between atoms: C_2  and  C_3
REMARK    3  A    between atoms: N_5  and  C_6
REMARK    4  A    between atoms: C_6  and  C_7
REMARK                            x       y       z     vdW  Elec       q    Type
REMARK                         _______ _______ _______ _____ _____    ______ ____
ROOT
ATOM      1  C   UNL     1       6.767   4.983  16.898  0.00  0.00    +0.000 C 
ATOM      2  O   UNL     1       7.486   4.061  17.295  0.00  0.00    +0.000 OA
ATOM      3  N   UNL     1       5.453   5.165  17.403  0.00  0.00    +0.000 N 
ATOM      4  C   UNL     1       4.653   6.237  16.879  0.00  0.00    +0.000 C 
ATOM      5  C   UNL     1       3.491   6.701  17.703  0.00  0.00    +0.000 C 
ATOM      6  C   UNL     1       2.887   5.770  18.729  0.00  0.00    +0.000 C 
ATOM      7  C   UNL     1       3.385   4.313  18.842  0.00  0.00    +0.000 C 
ATOM      8  C   UNL     1       2.350   3.361  18.146  0.00  0.00    +0.000 C 
ATOM      9  C   UNL     1       0.928   3.266  18.761  0.00  0.00    +0.000 C 
ATOM     10  C   UNL     1       0.828   2.352  19.984  0.00  0.00    +0.000 C 
ATOM     11  C   UNL     1       1.258   2.970  21.309  0.00  0.00    +0.000 C 
ATOM     12  C   UNL     1       2.216   4.152  21.228  0.00  0.00    +0.000 C 
ATOM     13  C   UNL     1       3.467   3.922  20.365  0.00  0.00    +0.000 C 
ATOM     14  C   UNL     1       4.835   4.106  18.229  0.00  0.00    +0.000 C 
ENDROOT
BRANCH   1  15
ATOM     15  C   UNL     1       7.328   6.017  15.872  0.00  0.00    +0.000 C 
BRANCH  15  18
ATOM     16  C   UNL     1       6.697   4.724  13.817  0.00  0.00    +0.000 C 
ATOM     17  O   UNL     1       5.566   4.469  14.207  0.00  0.00    +0.000 OA
ATOM     18  N   UNL     1       7.611   5.459  14.547  0.00  0.00    +0.000 N 
ATOM     19  H   UNL     1       8.557   5.562  14.202  0.00  0.00    +0.000 HD
BRANCH  16  21
ATOM     20  C   UNL     1       6.489   3.067  11.891  0.00  0.00    +0.000 C 
ATOM     21  C   UNL     1       7.242   4.257  12.473  0.00  0.00    +0.000 C 
ENDBRANCH  16  21
ENDBRANCH  15  18
ENDBRANCH   1  15
TORSDOF 3
ENDMDL
MODEL 4
REMARK VINA RESULT:      -6.9      1.351      1.542
REMARK  Name = 
REMARK  4 active torsions:
REMARK  status: ('A' for Active; 'I' for Inactive)
REMARK    1  A    between atoms: C_1  and  C_2
REMARK    2  A    between atoms: C_2  and  C_3
REMARK    3  A    between atoms: N_5  and  C_6
REMARK    4  A    between atoms: C_6  and  C_7
REMARK                            x       y       z     vdW  Elec       q    Type
REMARK                         _______ _______ _______ _____ _____    ______ ____
ROOT
ATOM      1  C   UNL     1       6.986   5.078  17.367  0.00  0.00    +0.000 C 
ATOM      2  O   UNL     1       7.700   4.293  17.998  0.00  0.00    +0.000 OA
ATOM      3  N   UNL     1       5.594   5.181  17.624  0.00  0.00    +0.000 N 
ATOM      4  C   UNL     1       4.810   6.090  16.836  0.00  0.00    +0.000 C 
ATOM      5  C   UNL     1       3.489   6.528  17.391  0.00  0.00    +0.000 C 
ATOM      6  C   UNL     1       2.797   5.672  18.427  0.00  0.00    +0.000 C 
ATOM      7  C   UNL     1       3.388   4.301  18.820  0.00  0.00    +0.000 C 
ATOM      8  C   UNL     1       2.572   3.167  18.108  0.00  0.00    +0.000 C 
ATOM      9  C   UNL     1       1.078   2.999  18.496  0.00  0.00    +0.000 C 
ATOM     10  C   UNL     1       0.845   2.239  19.803  0.00  0.00    +0.000 C 
ATOM     11  C   UNL     1       0.988   3.058  21.080  0.00  0.00    +0.000 C 
ATOM     12  C   UNL     1       1.843   4.315  20.988  0.00  0.00    +0.000 C 
ATOM     13  C   UNL     1       3.239   4.114  20.376  0.00  0.00    +0.000 C 
ATOM     14  C   UNL     1       4.934   4.174  18.482  0.00  0.00    +0.000 C 
ENDROOT
BRANCH   1  15
ATOM     15  C   UNL     1       7.628   6.030  16.308  0.00  0.00    +0.000 C 
BRANCH  15  18
ATOM     16  C   UNL     1       8.087   7.877  17.941  0.00  0.00    +0.000 C 
ATOM     17  O   UNL     1       8.486   7.130  18.823  0.00  0.00    +0.000 OA
ATOM     18  N   UNL     1       7.656   7.440  16.704  0.00  0.00    +0.000 N 
ATOM     19  H   UNL     1       7.259   8.105  16.050  0.00  0.00    +0.000 HD
BRANCH  16  21
ATOM     20  C   UNL     1       9.104   9.965  18.994  0.00  0.00    +0.000 C 
ATOM     21  C   UNL     1       8.012   9.392  18.100  0.00  0.00    +0.000 C 
ENDBRANCH  16  21
ENDBRANCH  15  18
ENDBRANCH   1  15
TORSDOF 3
ENDMDL
MODEL 5
REMARK VINA RESULT:      -6.7      1.428      2.396
REMARK  Name = 
REMARK  4 active torsions:
REMARK  status: ('A' for Active; 'I' for Inactive)
REMARK    1  A    between atoms: C_1  and  C_2
REMARK    2  A    between atoms: C_2  and  C_3
REMARK    3  A    between atoms: N_5  and  C_6
REMARK    4  A    between atoms: C_6  and  C_7
REMARK                            x       y       z     vdW  Elec       q    Type
REMARK                         _______ _______ _______ _____ _____    ______ ____
ROOT
ATOM      1  C   UNL     1       6.131   6.924  17.139  0.00  0.00    +0.000 C 
ATOM      2  O   UNL     1       5.502   7.411  16.193  0.00  0.00    +0.000 OA
ATOM      3  N   UNL     1       5.575   5.893  17.941  0.00  0.00    +0.000 N 
ATOM      4  C   UNL     1       6.341   5.389  19.046  0.00  0.00    +0.000 C 
ATOM      5  C   UNL     1       5.974   4.040  19.586  0.00  0.00    +0.000 C 
ATOM      6  C   UNL     1       4.583   3.498  19.351  0.00  0.00    +0.000 C 
ATOM      7  C   UNL     1       3.515   4.377  18.665  0.00  0.00    +0.000 C 
ATOM      8  C   UNL     1       2.537   4.940  19.755  0.00  0.00    +0.000 C 
ATOM      9  C   UNL     1       1.666   3.923  20.540  0.00  0.00    +0.000 C 
ATOM     10  C   UNL     1       0.424   3.441  19.787  0.00  0.00    +0.000 C 
ATOM     11  C   UNL     1       0.654   2.322  18.777  0.00  0.00    +0.000 C 
ATOM     12  C   UNL     1       2.068   2.185  18.227  0.00  0.00    +0.000 C 
ATOM     13  C   UNL     1       2.683   3.480  17.673  0.00  0.00    +0.000 C 
ATOM     14  C   UNL     1       4.141   5.559  17.810  0.00  0.00    +0.000 C 
ENDROOT
BRANCH   1  15
ATOM     15  C   UNL     1       7.591   7.396  17.425  0.00  0.00    +0.000 C 
BRANCH  15  18
ATOM     16  C   UNL     1       8.537   9.576  18.225  0.00  0.00    +0.000 C 
ATOM     17  O   UNL     1       9.107   9.087  19.190  0.00  0.00    +0.000 OA
ATOM     18  N   UNL     1       7.788   8.844  17.325  0.00  0.00    +0.000 N 
ATOM     19  H   UNL     1       7.274   9.325  16.596  0.00  0.00    +0.000 HD
BRANCH  16  21
ATOM     20  C   UNL     1       9.826  11.768  18.422  0.00  0.00    +0.000 C 
ATOM     21  C   UNL     1       8.581  11.064  17.897  0.00  0.00    +0.000 C 
ENDBRANCH  16  21
ENDBRANCH  15  18
ENDBRANCH   1  15
TORSDOF 3
ENDMDL
MODEL 6
REMARK VINA RESULT:      -6.6      3.616      5.587
REMARK  Name = 
REMARK  4 active torsions:
REMARK  status: ('A' for Active; 'I' for Inactive)
REMARK    1  A    between atoms: C_1  and  C_2
REMARK    2  A    between atoms: C_2  and  C_3
REMARK    3  A    between atoms: N_5  and  C_6
REMARK    4  A    between atoms: C_6  and  C_7
REMARK                            x       y       z     vdW  Elec       q    Type
REMARK                         _______ _______ _______ _____ _____    ______ ____
ROOT
ATOM      1  C   UNL     1       5.804   5.642  16.615  0.00  0.00    +0.000 C 
ATOM      2  O   UNL     1       6.529   6.626  16.433  0.00  0.00    +0.000 OA
ATOM      3  N   UNL     1       4.505   5.775  17.170  0.00  0.00    +0.000 N 
ATOM      4  C   UNL     1       3.721   4.591  17.386  0.00  0.00    +0.000 C 
ATOM      5  C   UNL     1       2.238   4.757  17.528  0.00  0.00    +0.000 C 
ATOM      6  C   UNL     1       1.676   6.095  17.951  0.00  0.00    +0.000 C 
ATOM      7  C   UNL     1       2.628   7.244  18.349  0.00  0.00    +0.000 C 
ATOM      8  C   UNL     1       2.664   7.361  19.913  0.00  0.00    +0.000 C 
ATOM      9  C   UNL     1       1.351   7.761  20.639  0.00  0.00    +0.000 C 
ATOM     10  C   UNL     1       1.044   9.259  20.611  0.00  0.00    +0.000 C 
ATOM     11  C   UNL     1       0.387   9.778  19.337  0.00  0.00    +0.000 C 
ATOM     12  C   UNL     1       0.600   8.947  18.078  0.00  0.00    +0.000 C 
ATOM     13  C   UNL     1       2.063   8.593  17.766  0.00  0.00    +0.000 C 
ATOM     14  C   UNL     1       4.094   7.063  17.767  0.00  0.00    +0.000 C 
ENDROOT
BRANCH   1  15
ATOM     15  C   UNL     1       6.290   4.228  16.166  0.00  0.00    +0.000 C 
BRANCH  15  18
ATOM     16  C   UNL     1       7.028   4.540  13.790  0.00  0.00    +0.000 C 
ATOM     17  O   UNL     1       7.950   5.294  14.073  0.00  0.00    +0.000 OA
ATOM     18  N   UNL     1       6.181   3.981  14.726  0.00  0.00    +0.000 N 
ATOM     19  H   UNL     1       5.387   3.433  14.417  0.00  0.00    +0.000 HD
BRANCH  16  21
ATOM     20  C   UNL     1       5.490   3.204  12.257  0.00  0.00    +0.000 C 
ATOM     21  C   UNL     1       6.698   4.126  12.361  0.00  0.00    +0.000 C 
ENDBRANCH  16  21
ENDBRANCH  15  18
ENDBRANCH   1  15
TORSDOF 3
ENDMDL
MODEL 7
REMARK VINA RESULT:      -6.6      2.247      3.464
REMARK  Name = 
REMARK  4 active torsions:
REMARK  status: ('A' for Active; 'I' for Inactive)
REMARK    1  A    between atoms: C_1  and  C_2
REMARK    2  A    between atoms: C_2  and  C_3
REMARK    3  A    between atoms: N_5  and  C_6
REMARK    4  A    between atoms: C_6  and  C_7
REMARK                            x       y       z     vdW  Elec       q    Type
REMARK                         _______ _______ _______ _____ _____    ______ ____
ROOT
ATOM      1  C   UNL     1       6.962   5.827  18.443  0.00  0.00    +0.000 C 
ATOM      2  O   UNL     1       7.632   5.223  19.285  0.00  0.00    +0.000 OA
ATOM      3  N   UNL     1       5.551   5.679  18.377  0.00  0.00    +0.000 N 
ATOM      4  C   UNL     1       4.829   6.383  17.356  0.00  0.00    +0.000 C 
ATOM      5  C   UNL     1       3.359   6.591  17.564  0.00  0.00    +0.000 C 
ATOM      6  C   UNL     1       2.602   5.673  18.496  0.00  0.00    +0.000 C 
ATOM      7  C   UNL     1       3.313   4.459  19.133  0.00  0.00    +0.000 C 
ATOM      8  C   UNL     1       2.892   3.158  18.366  0.00  0.00    +0.000 C 
ATOM      9  C   UNL     1       1.401   2.731  18.428  0.00  0.00    +0.000 C 
ATOM     10  C   UNL     1       1.004   2.006  19.716  0.00  0.00    +0.000 C 
ATOM     11  C   UNL     1       0.702   2.900  20.913  0.00  0.00    +0.000 C 
ATOM     12  C   UNL     1       1.326   4.289  20.897  0.00  0.00    +0.000 C 
ATOM     13  C   UNL     1       2.839   4.325  20.629  0.00  0.00    +0.000 C 
ATOM     14  C   UNL     1       4.893   4.610  19.157  0.00  0.00    +0.000 C 
ENDROOT
BRANCH   1  15
ATOM     15  C   UNL     1       7.658   6.829  17.470  0.00  0.00    +0.000 C 
BRANCH  15  18
ATOM     16  C   UNL     1       7.555   5.211  15.557  0.00  0.00    +0.000 C 
ATOM     17  O   UNL     1       7.736   4.223  16.256  0.00  0.00    +0.000 OA
ATOM     18  N   UNL     1       7.503   6.499  16.051  0.00  0.00    +0.000 N 
ATOM     19  H   UNL     1       7.434   7.278  15.407  0.00  0.00    +0.000 HD
BRANCH  16  21
ATOM     20  C   UNL     1       6.414   4.040  13.600  0.00  0.00    +0.000 C 
ATOM     21  C   UNL     1       7.368   5.140  14.046  0.00  0.00    +0.000 C 
ENDBRANCH  16  21
ENDBRANCH  15  18
ENDBRANCH   1  15
TORSDOF 3
ENDMDL
MODEL 8
REMARK VINA RESULT:      -6.6      4.799      6.952
REMARK  Name = 
REMARK  4 active torsions:
REMARK  status: ('A' for Active; 'I' for Inactive)
REMARK    1  A    between atoms: C_1  and  C_2
REMARK    2  A    between atoms: C_2  and  C_3
REMARK    3  A    between atoms: N_5  and  C_6
REMARK    4  A    between atoms: C_6  and  C_7
REMARK                            x       y       z     vdW  Elec       q    Type
REMARK                         _______ _______ _______ _____ _____    ______ ____
ROOT
ATOM      1  C   UNL     1       1.353   8.368  20.193  0.00  0.00    +0.000 C 
ATOM      2  O   UNL     1       1.657   9.389  19.570  0.00  0.00    +0.000 OA
ATOM      3  N   UNL     1       2.031   7.140  19.976  0.00  0.00    +0.000 N 
ATOM      4  C   UNL     1       1.611   5.978  20.707  0.00  0.00    +0.000 C 
ATOM      5  C   UNL     1       2.582   4.843  20.823  0.00  0.00    +0.000 C 
ATOM      6  C   UNL     1       3.692   4.706  19.806  0.00  0.00    +0.000 C 
ATOM      7  C   UNL     1       3.751   5.657  18.591  0.00  0.00    +0.000 C 
ATOM      8  C   UNL     1       3.215   4.905  17.323  0.00  0.00    +0.000 C 
ATOM      9  C   UNL     1       4.020   3.680  16.815  0.00  0.00    +0.000 C 
ATOM     10  C   UNL     1       5.256   4.035  15.985  0.00  0.00    +0.000 C 
ATOM     11  C   UNL     1       6.502   4.408  16.779  0.00  0.00    +0.000 C 
ATOM     12  C   UNL     1       6.277   4.915  18.197  0.00  0.00    +0.000 C 
ATOM     13  C   UNL     1       5.252   6.054  18.331  0.00  0.00    +0.000 C 
ATOM     14  C   UNL     1       2.947   7.007  18.823  0.00  0.00    +0.000 C 
ENDROOT
BRANCH   1  15
ATOM     15  C   UNL     1       0.247   8.431  21.294  0.00  0.00    +0.000 C 
BRANCH  15  18
ATOM     16  C   UNL     1      -0.380  10.402  22.712  0.00  0.00    +0.000 C 
ATOM     17  O   UNL     1       0.061   9.921  23.747  0.00  0.00    +0.000 OA
ATOM     18  N   UNL     1      -0.335   9.761  21.489  0.00  0.00    +0.000 N 
ATOM     19  H   UNL     1      -0.793  10.180  20.689  0.00  0.00    +0.000 HD
BRANCH  16  21
ATOM     20  C   UNL     1      -2.417  11.820  23.295  0.00  0.00    +0.000 C 
ATOM     21  C   UNL     1      -1.040  11.774  22.645  0.00  0.00    +0.000 C 
ENDBRANCH  16  21
ENDBRANCH  15  18
ENDBRANCH   1  15
TORSDOF 3
ENDMDL
MODEL 9
REMARK VINA RESULT:      -6.5      4.295      6.349
REMARK  Name = 
REMARK  4 active torsions:
REMARK  status: ('A' for Active; 'I' for Inactive)
REMARK    1  A    between atoms: C_1  and  C_2
REMARK    2  A    between atoms: C_2  and  C_3
REMARK    3  A    between atoms: N_5  and  C_6
REMARK    4  A    between atoms: C_6  and  C_7
REMARK                            x       y       z     vdW  Elec       q    Type
REMARK                         _______ _______ _______ _____ _____    ______ ____
ROOT
ATOM      1  C   UNL     1       2.195   8.890  18.047  0.00  0.00    +0.000 C 
ATOM      2  O   UNL     1       2.824   8.966  16.987  0.00  0.00    +0.000 OA
ATOM      3  N   UNL     1       2.117   7.673  18.774  0.00  0.00    +0.000 N 
ATOM      4  C   UNL     1       1.344   7.638  19.983  0.00  0.00    +0.000 C 
ATOM      5  C   UNL     1       1.629   6.536  20.957  0.00  0.00    +0.000 C 
ATOM      6  C   UNL     1       2.285   5.264  20.470  0.00  0.00    +0.000 C 
ATOM      7  C   UNL     1       2.549   5.056  18.963  0.00  0.00    +0.000 C 
ATOM      8  C   UNL     1       1.459   4.090  18.380  0.00  0.00    +0.000 C 
ATOM      9  C   UNL     1       1.429   2.631  18.908  0.00  0.00    +0.000 C 
ATOM     10  C   UNL     1       2.474   1.708  18.276  0.00  0.00    +0.000 C 
ATOM     11  C   UNL     1       3.877   1.794  18.866  0.00  0.00    +0.000 C 
ATOM     12  C   UNL     1       4.234   3.090  19.581  0.00  0.00    +0.000 C 
ATOM     13  C   UNL     1       3.957   4.376  18.784  0.00  0.00    +0.000 C 
ATOM     14  C   UNL     1       2.583   6.418  18.147  0.00  0.00    +0.000 C 
ENDROOT
BRANCH   1  15
ATOM     15  C   UNL     1       1.523  10.167  18.644  0.00  0.00    +0.000 C 
BRANCH  15  18
ATOM     16  C   UNL     1      -0.932  10.647  18.813  0.00  0.00    +0.000 C 
ATOM     17  O   UNL     1      -0.970  10.533  20.031  0.00  0.00    +0.000 OA
ATOM     18  N   UNL     1       0.217  10.489  18.064  0.00  0.00    +0.000 N 
ATOM     19  H   UNL     1       0.161  10.514  17.053  0.00  0.00    +0.000 HD
BRANCH  16  21
ATOM     20  C   UNL     1      -2.416   9.971  16.853  0.00  0.00    +0.000 C 
ATOM     21  C   UNL     1      -2.158  10.976  17.968  0.00  0.00    +0.000 C 
ENDBRANCH  16  21
ENDBRANCH  15  18
ENDBRANCH   1  15
TORSDOF 3
ENDMDL
