MODEL 1
REMARK VINA RESULT:      -8.6      0.000      0.000
REMARK  Name = 
REMARK  9 active torsions:
REMARK  status: ('A' for Active; 'I' for Inactive)
REMARK    1  A    between atoms: C_2  and  C_10
REMARK    2  A    between atoms: N_3  and  C_4
REMARK    3  A    between atoms: C_4  and  C_5
REMARK    4  A    between atoms: C_15  and  S_16
REMARK    5  A    between atoms: S_16  and  C_17
REMARK    6  A    between atoms: C_17  and  C_18
REMARK    7  A    between atoms: C_18  and  S_19
REMARK    8  A    between atoms: S_19  and  C_22
REMARK    9  A    between atoms: C_25  and  C_26
REMARK                            x       y       z     vdW  Elec       q    Type
REMARK                         _______ _______ _______ _____ _____    ______ ____
ROOT
ATOM      1  C   UNL     1       2.484   4.390  19.843  0.00  0.00    +0.000 A 
ATOM      2  C   UNL     1       1.492   4.183  20.818  0.00  0.00    +0.000 A 
ATOM      3  C   UNL     1       1.572   3.103  21.690  0.00  0.00    +0.000 A 
ATOM      4  C   UNL     1       2.653   2.259  21.564  0.00  0.00    +0.000 A 
ATOM      5  N   UNL     1       3.635   2.436  20.654  0.00  0.00    +0.000 NA
ATOM      6  C   UNL     1       3.556   3.494  19.801  0.00  0.00    +0.000 A 
ENDROOT
BRANCH   1   8
ATOM      7  O   UNL     1       2.008   5.352  17.757  0.00  0.00    +0.000 OA
ATOM      8  C   UNL     1       2.262   5.554  18.941  0.00  0.00    +0.000 C 
ATOM      9  N   UNL     1       2.435   6.815  19.455  0.00  0.00    +0.000 N 
ATOM     10  H   UNL     1       2.464   6.947  20.461  0.00  0.00    +0.000 HD
BRANCH   9  11
ATOM     11  C   UNL     1       2.240   7.984  18.630  0.00  0.00    +0.000 C 
BRANCH  11  12
ATOM     12  C   UNL     1       1.370   8.955  19.359  0.00  0.00    +0.000 A 
ATOM     13  C   UNL     1       0.976   8.919  20.684  0.00  0.00    +0.000 A 
ATOM     14  C   UNL     1       0.190  10.050  21.048  0.00  0.00    +0.000 A 
ATOM     15  C   UNL     1      -0.007  10.903  19.986  0.00  0.00    +0.000 A 
ATOM     16  S   UNL     1       0.745  10.335  18.558  0.00  0.00    +0.000 S 
ENDBRANCH  11  12
ENDBRANCH   9  11
ENDBRANCH   1   8
BRANCH   6  17
ATOM     17  S   UNL     1       4.973   3.660  18.707  0.00  0.00    +0.000 S 
BRANCH  17  18
ATOM     18  C   UNL     1       5.713   5.199  19.373  0.00  0.00    +0.000 C 
BRANCH  18  19
ATOM     19  C   UNL     1       6.964   5.603  18.610  0.00  0.00    +0.000 C 
BRANCH  19  20
ATOM     20  S   UNL     1       6.487   6.633  17.232  0.00  0.00    +0.000 S 
ATOM     21  O   UNL     1       5.127   7.091  17.452  0.00  0.00    +0.000 OA
ATOM     22  O   UNL     1       7.554   7.584  16.990  0.00  0.00    +0.000 OA
BRANCH  20  23
ATOM     23  C   UNL     1       6.438   5.565  15.808  0.00  0.00    +0.000 A 
ATOM     24  C   UNL     1       5.230   5.000  15.426  0.00  0.00    +0.000 A 
ATOM     25  C   UNL     1       5.199   4.316  14.216  0.00  0.00    +0.000 A 
ATOM     26  C   UNL     1       6.363   4.225  13.441  0.00  0.00    +0.000 A 
ATOM     27  C   UNL     1       7.532   4.782  13.953  0.00  0.00    +0.000 A 
ATOM     28  N   UNL     1       7.602   5.459  15.122  0.00  0.00    +0.000 NA
BRANCH  26  29
ATOM     29  C   UNL     1       6.379   3.606  12.076  0.00  0.00    +0.000 C 
ATOM     30  F   UNL     1       6.958   4.393  11.129  0.00  0.00    +0.000 F 
ATOM     31  F   UNL     1       7.072   2.433  12.056  0.00  0.00    +0.000 F 
ATOM     32  F   UNL     1       5.135   3.312  11.615  0.00  0.00    +0.000 F 
ENDBRANCH  26  29
ENDBRANCH  20  23
ENDBRANCH  19  20
ENDBRANCH  18  19
ENDBRANCH  17  18
ENDBRANCH   6  17
TORSDOF 9
ENDMDL
MODEL 2
REMARK VINA RESULT:      -8.2      0.896      1.114
REMARK  Name = 
REMARK  9 active torsions:
REMARK  status: ('A' for Active; 'I' for Inactive)
REMARK    1  A    between atoms: C_2  and  C_10
REMARK    2  A    between atoms: N_3  and  C_4
REMARK    3  A    between atoms: C_4  and  C_5
REMARK    4  A    between atoms: C_15  and  S_16
REMARK    5  A    between atoms: S_16  and  C_17
REMARK    6  A    between atoms: C_17  and  C_18
REMARK    7  A    between atoms: C_18  and  S_19
REMARK    8  A    between atoms: S_19  and  C_22
REMARK    9  A    between atoms: C_25  and  C_26
REMARK                            x       y       z     vdW  Elec       q    Type
REMARK                         _______ _______ _______ _____ _____    ______ ____
ROOT
ATOM      1  C   UNL     1       2.281   4.294  19.673  0.00  0.00    +0.000 A 
ATOM      2  C   UNL     1       1.288   4.138  20.658  0.00  0.00    +0.000 A 
ATOM      3  C   UNL     1       1.411   3.160  21.637  0.00  0.00    +0.000 A 
ATOM      4  C   UNL     1       2.535   2.364  21.607  0.00  0.00    +0.000 A 
ATOM      5  N   UNL     1       3.518   2.496  20.692  0.00  0.00    +0.000 NA
ATOM      6  C   UNL     1       3.397   3.455  19.734  0.00  0.00    +0.000 A 
ENDROOT
BRANCH   1   8
ATOM      7  O   UNL     1       1.600   5.012  17.546  0.00  0.00    +0.000 OA
ATOM      8  C   UNL     1       2.013   5.346  18.654  0.00  0.00    +0.000 C 
ATOM      9  N   UNL     1       2.319   6.646  18.968  0.00  0.00    +0.000 N 
ATOM     10  H   UNL     1       2.482   6.904  19.936  0.00  0.00    +0.000 HD
BRANCH   9  11
ATOM     11  C   UNL     1       2.087   7.711  18.020  0.00  0.00    +0.000 C 
BRANCH  11  12
ATOM     12  C   UNL     1       1.631   8.928  18.757  0.00  0.00    +0.000 A 
ATOM     13  C   UNL     1       1.503  10.218  18.275  0.00  0.00    +0.000 A 
ATOM     14  C   UNL     1       0.980  11.113  19.252  0.00  0.00    +0.000 A 
ATOM     15  C   UNL     1       0.744  10.483  20.453  0.00  0.00    +0.000 A 
ATOM     16  S   UNL     1       1.160   8.825  20.401  0.00  0.00    +0.000 S 
ENDBRANCH  11  12
ENDBRANCH   9  11
ENDBRANCH   1   8
BRANCH   6  17
ATOM     17  S   UNL     1       4.818   3.580  18.639  0.00  0.00    +0.000 S 
BRANCH  17  18
ATOM     18  C   UNL     1       5.522   5.173  19.209  0.00  0.00    +0.000 C 
BRANCH  18  19
ATOM     19  C   UNL     1       5.424   6.250  18.142  0.00  0.00    +0.000 C 
BRANCH  19  20
ATOM     20  S   UNL     1       6.966   6.309  17.244  0.00  0.00    +0.000 S 
ATOM     21  O   UNL     1       7.168   7.666  16.768  0.00  0.00    +0.000 OA
ATOM     22  O   UNL     1       7.979   5.650  18.045  0.00  0.00    +0.000 OA
BRANCH  20  23
ATOM     23  C   UNL     1       6.737   5.295  15.798  0.00  0.00    +0.000 A 
ATOM     24  C   UNL     1       5.571   4.555  15.668  0.00  0.00    +0.000 A 
ATOM     25  C   UNL     1       5.354   3.914  14.453  0.00  0.00    +0.000 A 
ATOM     26  C   UNL     1       6.298   4.037  13.426  0.00  0.00    +0.000 A 
ATOM     27  C   UNL     1       7.460   4.758  13.691  0.00  0.00    +0.000 A 
ATOM     28  N   UNL     1       7.706   5.399  14.856  0.00  0.00    +0.000 NA
BRANCH  26  29
ATOM     29  C   UNL     1       6.079   3.473  12.054  0.00  0.00    +0.000 C 
ATOM     30  F   UNL     1       7.112   3.706  11.199  0.00  0.00    +0.000 F 
ATOM     31  F   UNL     1       5.917   2.120  12.078  0.00  0.00    +0.000 F 
ATOM     32  F   UNL     1       4.969   3.971  11.450  0.00  0.00    +0.000 F 
ENDBRANCH  26  29
ENDBRANCH  20  23
ENDBRANCH  19  20
ENDBRANCH  18  19
ENDBRANCH  17  18
ENDBRANCH   6  17
TORSDOF 9
ENDMDL
MODEL 3
REMARK VINA RESULT:      -7.7      1.721      4.570
REMARK  Name = 
REMARK  9 active torsions:
REMARK  status: ('A' for Active; 'I' for Inactive)
REMARK    1  A    between atoms: C_2  and  C_10
REMARK    2  A    between atoms: N_3  and  C_4
REMARK    3  A    between atoms: C_4  and  C_5
REMARK    4  A    between atoms: C_15  and  S_16
REMARK    5  A    between atoms: S_16  and  C_17
REMARK    6  A    between atoms: C_17  and  C_18
REMARK    7  A    between atoms: C_18  and  S_19
REMARK    8  A    between atoms: S_19  and  C_22
REMARK    9  A    between atoms: C_25  and  C_26
REMARK                            x       y       z     vdW  Elec       q    Type
REMARK                         _______ _______ _______ _____ _____    ______ ____
ROOT
ATOM      1  C   UNL     1       1.823   7.302  19.993  0.00  0.00    +0.000 A 
ATOM      2  C   UNL     1       1.183   8.098  20.960  0.00  0.00    +0.000 A 
ATOM      3  C   UNL     1       0.879   9.427  20.693  0.00  0.00    +0.000 A 
ATOM      4  C   UNL     1       1.221   9.924  19.455  0.00  0.00    +0.000 A 
ATOM      5  N   UNL     1       1.817   9.187  18.494  0.00  0.00    +0.000 NA
ATOM      6  C   UNL     1       2.114   7.885  18.757  0.00  0.00    +0.000 A 
ENDROOT
BRANCH   1   8
ATOM      7  O   UNL     1       3.304   5.596  20.626  0.00  0.00    +0.000 OA
ATOM      8  C   UNL     1       2.135   5.908  20.415  0.00  0.00    +0.000 C 
ATOM      9  N   UNL     1       1.106   5.002  20.470  0.00  0.00    +0.000 N 
ATOM     10  H   UNL     1       0.146   5.331  20.468  0.00  0.00    +0.000 HD
BRANCH   9  11
ATOM     11  C   UNL     1       1.345   3.634  20.866  0.00  0.00    +0.000 C 
BRANCH  11  12
ATOM     12  C   UNL     1       1.996   2.906  19.736  0.00  0.00    +0.000 A 
ATOM     13  C   UNL     1       1.537   2.760  18.439  0.00  0.00    +0.000 A 
ATOM     14  C   UNL     1       2.456   2.048  17.616  0.00  0.00    +0.000 A 
ATOM     15  C   UNL     1       3.576   1.657  18.313  0.00  0.00    +0.000 A 
ATOM     16  S   UNL     1       3.513   2.139  19.953  0.00  0.00    +0.000 S 
ENDBRANCH  11  12
ENDBRANCH   9  11
ENDBRANCH   1   8
BRANCH   6  17
ATOM     17  S   UNL     1       2.820   6.999  17.360  0.00  0.00    +0.000 S 
BRANCH  17  18
ATOM     18  C   UNL     1       4.599   7.344  17.628  0.00  0.00    +0.000 C 
BRANCH  18  19
ATOM     19  C   UNL     1       5.330   6.141  18.202  0.00  0.00    +0.000 C 
BRANCH  19  20
ATOM     20  S   UNL     1       6.958   6.061  17.476  0.00  0.00    +0.000 S 
ATOM     21  O   UNL     1       7.353   7.403  17.086  0.00  0.00    +0.000 OA
ATOM     22  O   UNL     1       7.802   5.268  18.349  0.00  0.00    +0.000 OA
BRANCH  20  23
ATOM     23  C   UNL     1       6.785   5.126  15.969  0.00  0.00    +0.000 A 
ATOM     24  C   UNL     1       5.762   4.195  15.864  0.00  0.00    +0.000 A 
ATOM     25  C   UNL     1       5.554   3.613  14.619  0.00  0.00    +0.000 A 
ATOM     26  C   UNL     1       6.365   3.981  13.538  0.00  0.00    +0.000 A 
ATOM     27  C   UNL     1       7.398   4.883  13.775  0.00  0.00    +0.000 A 
ATOM     28  N   UNL     1       7.630   5.475  14.969  0.00  0.00    +0.000 NA
BRANCH  26  29
ATOM     29  C   UNL     1       6.127   3.485  12.143  0.00  0.00    +0.000 C 
ATOM     30  F   UNL     1       4.822   3.541  11.761  0.00  0.00    +0.000 F 
ATOM     31  F   UNL     1       6.815   4.213  11.219  0.00  0.00    +0.000 F 
ATOM     32  F   UNL     1       6.517   2.195  11.968  0.00  0.00    +0.000 F 
ENDBRANCH  26  29
ENDBRANCH  20  23
ENDBRANCH  19  20
ENDBRANCH  18  19
ENDBRANCH  17  18
ENDBRANCH   6  17
TORSDOF 9
ENDMDL
MODEL 4
REMARK VINA RESULT:      -7.5      1.543      2.022
REMARK  Name = 
REMARK  9 active torsions:
REMARK  status: ('A' for Active; 'I' for Inactive)
REMARK    1  A    between atoms: C_2  and  C_10
REMARK    2  A    between atoms: N_3  and  C_4
REMARK    3  A    between atoms: C_4  and  C_5
REMARK    4  A    between atoms: C_15  and  S_16
REMARK    5  A    between atoms: S_16  and  C_17
REMARK    6  A    between atoms: C_17  and  C_18
REMARK    7  A    between atoms: C_18  and  S_19
REMARK    8  A    between atoms: S_19  and  C_22
REMARK    9  A    between atoms: C_25  and  C_26
REMARK                            x       y       z     vdW  Elec       q    Type
REMARK                         _______ _______ _______ _____ _____    ______ ____
ROOT
ATOM      1  C   UNL     1       2.730   4.082  20.083  0.00  0.00    +0.000 A 
ATOM      2  C   UNL     1       3.207   3.245  21.108  0.00  0.00    +0.000 A 
ATOM      3  C   UNL     1       4.054   2.183  20.817  0.00  0.00    +0.000 A 
ATOM      4  C   UNL     1       4.409   1.991  19.500  0.00  0.00    +0.000 A 
ATOM      5  N   UNL     1       3.989   2.784  18.492  0.00  0.00    +0.000 NA
ATOM      6  C   UNL     1       3.159   3.824  18.778  0.00  0.00    +0.000 A 
ENDROOT
BRANCH   1   8
ATOM      7  O   UNL     1       0.601   4.891  20.647  0.00  0.00    +0.000 OA
ATOM      8  C   UNL     1       1.794   5.156  20.516  0.00  0.00    +0.000 C 
ATOM      9  N   UNL     1       2.291   6.425  20.673  0.00  0.00    +0.000 N 
ATOM     10  H   UNL     1       3.294   6.568  20.735  0.00  0.00    +0.000 HD
BRANCH   9  11
ATOM     11  C   UNL     1       1.433   7.511  21.085  0.00  0.00    +0.000 C 
BRANCH  11  12
ATOM     12  C   UNL     1       1.383   8.533  19.997  0.00  0.00    +0.000 A 
ATOM     13  C   UNL     1       1.931   8.456  18.730  0.00  0.00    +0.000 A 
ATOM     14  C   UNL     1       1.631   9.602  17.938  0.00  0.00    +0.000 A 
ATOM     15  C   UNL     1       0.881  10.524  18.632  0.00  0.00    +0.000 A 
ATOM     16  S   UNL     1       0.550  10.013  20.230  0.00  0.00    +0.000 S 
ENDBRANCH  11  12
ENDBRANCH   9  11
ENDBRANCH   1   8
BRANCH   6  17
ATOM     17  S   UNL     1       2.753   4.850  17.358  0.00  0.00    +0.000 S 
BRANCH  17  18
ATOM     18  C   UNL     1       4.293   5.835  17.223  0.00  0.00    +0.000 C 
BRANCH  18  19
ATOM     19  C   UNL     1       5.187   5.661  18.440  0.00  0.00    +0.000 C 
BRANCH  19  20
ATOM     20  S   UNL     1       6.881   5.535  17.892  0.00  0.00    +0.000 S 
ATOM     21  O   UNL     1       7.415   6.877  17.741  0.00  0.00    +0.000 OA
ATOM     22  O   UNL     1       7.555   4.564  18.731  0.00  0.00    +0.000 OA
BRANCH  20  23
ATOM     23  C   UNL     1       6.823   4.827  16.258  0.00  0.00    +0.000 A 
ATOM     24  C   UNL     1       6.022   3.718  16.029  0.00  0.00    +0.000 A 
ATOM     25  C   UNL     1       5.870   3.302  14.711  0.00  0.00    +0.000 A 
ATOM     26  C   UNL     1       6.516   4.001  13.684  0.00  0.00    +0.000 A 
ATOM     27  C   UNL     1       7.343   5.064  14.039  0.00  0.00    +0.000 A 
ATOM     28  N   UNL     1       7.512   5.503  15.307  0.00  0.00    +0.000 NA
BRANCH  26  29
ATOM     29  C   UNL     1       6.308   3.684  12.234  0.00  0.00    +0.000 C 
ATOM     30  F   UNL     1       5.011   3.785  11.835  0.00  0.00    +0.000 F 
ATOM     31  F   UNL     1       7.011   4.523  11.422  0.00  0.00    +0.000 F 
ATOM     32  F   UNL     1       6.707   2.426  11.907  0.00  0.00    +0.000 F 
ENDBRANCH  26  29
ENDBRANCH  20  23
ENDBRANCH  19  20
ENDBRANCH  18  19
ENDBRANCH  17  18
ENDBRANCH   6  17
TORSDOF 9
ENDMDL
MODEL 5
REMARK VINA RESULT:      -7.5      0.637      1.208
REMARK  Name = 
REMARK  9 active torsions:
REMARK  status: ('A' for Active; 'I' for Inactive)
REMARK    1  A    between atoms: C_2  and  C_10
REMARK    2  A    between atoms: N_3  and  C_4
REMARK    3  A    between atoms: C_4  and  C_5
REMARK    4  A    between atoms: C_15  and  S_16
REMARK    5  A    between atoms: S_16  and  C_17
REMARK    6  A    between atoms: C_17  and  C_18
REMARK    7  A    between atoms: C_18  and  S_19
REMARK    8  A    between atoms: S_19  and  C_22
REMARK    9  A    between atoms: C_25  and  C_26
REMARK                            x       y       z     vdW  Elec       q    Type
REMARK                         _______ _______ _______ _____ _____    ______ ____
ROOT
ATOM      1  C   UNL     1       2.432   4.486  19.778  0.00  0.00    +0.000 A 
ATOM      2  C   UNL     1       1.522   4.338  20.841  0.00  0.00    +0.000 A 
ATOM      3  C   UNL     1       1.612   3.252  21.702  0.00  0.00    +0.000 A 
ATOM      4  C   UNL     1       2.621   2.341  21.479  0.00  0.00    +0.000 A 
ATOM      5  N   UNL     1       3.525   2.459  20.483  0.00  0.00    +0.000 NA
ATOM      6  C   UNL     1       3.436   3.524  19.640  0.00  0.00    +0.000 A 
ENDROOT
BRANCH   1   8
ATOM      7  O   UNL     1       1.850   5.485  17.737  0.00  0.00    +0.000 OA
ATOM      8  C   UNL     1       2.204   5.666  18.899  0.00  0.00    +0.000 C 
ATOM      9  N   UNL     1       2.480   6.913  19.402  0.00  0.00    +0.000 N 
ATOM     10  H   UNL     1       2.593   7.037  20.403  0.00  0.00    +0.000 HD
BRANCH   9  11
ATOM     11  C   UNL     1       2.285   8.096  18.597  0.00  0.00    +0.000 C 
BRANCH  11  12
ATOM     12  C   UNL     1       1.300   8.990  19.277  0.00  0.00    +0.000 A 
ATOM     13  C   UNL     1       1.025   9.084  20.629  0.00  0.00    +0.000 A 
ATOM     14  C   UNL     1       0.063  10.093  20.918  0.00  0.00    +0.000 A 
ATOM     15  C   UNL     1      -0.379  10.725  19.778  0.00  0.00    +0.000 A 
ATOM     16  S   UNL     1       0.356  10.095  18.368  0.00  0.00    +0.000 S 
ENDBRANCH  11  12
ENDBRANCH   9  11
ENDBRANCH   1   8
BRANCH   6  17
ATOM     17  S   UNL     1       4.755   3.604  18.421  0.00  0.00    +0.000 S 
BRANCH  17  18
ATOM     18  C   UNL     1       5.804   4.907  19.169  0.00  0.00    +0.000 C 
BRANCH  18  19
ATOM     19  C   UNL     1       7.016   5.224  18.308  0.00  0.00    +0.000 C 
BRANCH  19  20
ATOM     20  S   UNL     1       6.565   6.483  17.126  0.00  0.00    +0.000 S 
ATOM     21  O   UNL     1       5.239   6.971  17.460  0.00  0.00    +0.000 OA
ATOM     22  O   UNL     1       7.679   7.402  17.000  0.00  0.00    +0.000 OA
BRANCH  20  23
ATOM     23  C   UNL     1       6.421   5.659  15.554  0.00  0.00    +0.000 A 
ATOM     24  C   UNL     1       7.539   5.552  14.740  0.00  0.00    +0.000 A 
ATOM     25  C   UNL     1       7.429   4.756  13.605  0.00  0.00    +0.000 A 
ATOM     26  C   UNL     1       6.221   4.103  13.330  0.00  0.00    +0.000 A 
ATOM     27  C   UNL     1       5.147   4.330  14.188  0.00  0.00    +0.000 A 
ATOM     28  N   UNL     1       5.215   5.092  15.303  0.00  0.00    +0.000 NA
BRANCH  26  29
ATOM     29  C   UNL     1       6.063   3.139  12.193  0.00  0.00    +0.000 C 
ATOM     30  F   UNL     1       5.783   1.869  12.592  0.00  0.00    +0.000 F 
ATOM     31  F   UNL     1       5.046   3.498  11.359  0.00  0.00    +0.000 F 
ATOM     32  F   UNL     1       7.173   3.056  11.414  0.00  0.00    +0.000 F 
ENDBRANCH  26  29
ENDBRANCH  20  23
ENDBRANCH  19  20
ENDBRANCH  18  19
ENDBRANCH  17  18
ENDBRANCH   6  17
TORSDOF 9
ENDMDL
MODEL 6
REMARK VINA RESULT:      -7.3      3.996      8.177
REMARK  Name = 
REMARK  9 active torsions:
REMARK  status: ('A' for Active; 'I' for Inactive)
REMARK    1  A    between atoms: C_2  and  C_10
REMARK    2  A    between atoms: N_3  and  C_4
REMARK    3  A    between atoms: C_4  and  C_5
REMARK    4  A    between atoms: C_15  and  S_16
REMARK    5  A    between atoms: S_16  and  C_17
REMARK    6  A    between atoms: C_17  and  C_18
REMARK    7  A    between atoms: C_18  and  S_19
REMARK    8  A    between atoms: S_19  and  C_22
REMARK    9  A    between atoms: C_25  and  C_26
REMARK                            x       y       z     vdW  Elec       q    Type
REMARK                         _______ _______ _______ _____ _____    ______ ____
ROOT
ATOM      1  C   UNL     1       6.548   5.461  16.717  0.00  0.00    +0.000 A 
ATOM      2  C   UNL     1       7.499   6.253  17.386  0.00  0.00    +0.000 A 
ATOM      3  C   UNL     1       7.657   6.156  18.763  0.00  0.00    +0.000 A 
ATOM      4  C   UNL     1       6.859   5.258  19.436  0.00  0.00    +0.000 A 
ATOM      5  N   UNL     1       5.950   4.467  18.828  0.00  0.00    +0.000 NA
ATOM      6  C   UNL     1       5.796   4.562  17.479  0.00  0.00    +0.000 A 
ENDROOT
BRANCH   1   8
ATOM      7  O   UNL     1       5.515   6.367  14.816  0.00  0.00    +0.000 OA
ATOM      8  C   UNL     1       6.442   5.689  15.249  0.00  0.00    +0.000 C 
ATOM      9  N   UNL     1       7.344   5.059  14.429  0.00  0.00    +0.000 N 
ATOM     10  H   UNL     1       8.191   4.662  14.823  0.00  0.00    +0.000 HD
BRANCH   9  11
ATOM     11  C   UNL     1       7.290   5.235  12.996  0.00  0.00    +0.000 C 
BRANCH  11  12
ATOM     12  C   UNL     1       6.824   3.963  12.366  0.00  0.00    +0.000 A 
ATOM     13  C   UNL     1       7.582   3.001  11.725  0.00  0.00    +0.000 A 
ATOM     14  C   UNL     1       6.801   1.889  11.299  0.00  0.00    +0.000 A 
ATOM     15  C   UNL     1       5.469   2.046  11.611  0.00  0.00    +0.000 A 
ATOM     16  S   UNL     1       5.166   3.530  12.404  0.00  0.00    +0.000 S 
ENDBRANCH  11  12
ENDBRANCH   9  11
ENDBRANCH   1   8
BRANCH   6  17
ATOM     17  S   UNL     1       4.620   3.389  16.791  0.00  0.00    +0.000 S 
BRANCH  17  18
ATOM     18  C   UNL     1       3.718   2.909  18.313  0.00  0.00    +0.000 C 
BRANCH  18  19
ATOM     19  C   UNL     1       2.333   3.532  18.372  0.00  0.00    +0.000 C 
BRANCH  19  20
ATOM     20  S   UNL     1       2.152   4.378  19.933  0.00  0.00    +0.000 S 
ATOM     21  O   UNL     1       0.841   4.066  20.474  0.00  0.00    +0.000 OA
ATOM     22  O   UNL     1       3.348   4.137  20.717  0.00  0.00    +0.000 OA
BRANCH  20  23
ATOM     23  C   UNL     1       2.145   6.119  19.557  0.00  0.00    +0.000 A 
ATOM     24  C   UNL     1       2.540   6.540  18.296  0.00  0.00    +0.000 A 
ATOM     25  C   UNL     1       2.357   7.884  17.986  0.00  0.00    +0.000 A 
ATOM     26  C   UNL     1       1.792   8.744  18.936  0.00  0.00    +0.000 A 
ATOM     27  C   UNL     1       1.487   8.220  20.190  0.00  0.00    +0.000 A 
ATOM     28  N   UNL     1       1.644   6.920  20.529  0.00  0.00    +0.000 NA
BRANCH  26  29
ATOM     29  C   UNL     1       1.458  10.174  18.635  0.00  0.00    +0.000 C 
ATOM     30  F   UNL     1       2.363  10.785  17.823  0.00  0.00    +0.000 F 
ATOM     31  F   UNL     1       0.255  10.295  18.006  0.00  0.00    +0.000 F 
ATOM     32  F   UNL     1       1.373  10.942  19.753  0.00  0.00    +0.000 F 
ENDBRANCH  26  29
ENDBRANCH  20  23
ENDBRANCH  19  20
ENDBRANCH  18  19
ENDBRANCH  17  18
ENDBRANCH   6  17
TORSDOF 9
ENDMDL
MODEL 7
REMARK VINA RESULT:      -7.2      4.544      7.761
REMARK  Name = 
REMARK  9 active torsions:
REMARK  status: ('A' for Active; 'I' for Inactive)
REMARK    1  A    between atoms: C_2  and  C_10
REMARK    2  A    between atoms: N_3  and  C_4
REMARK    3  A    between atoms: C_4  and  C_5
REMARK    4  A    between atoms: C_15  and  S_16
REMARK    5  A    between atoms: S_16  and  C_17
REMARK    6  A    between atoms: C_17  and  C_18
REMARK    7  A    between atoms: C_18  and  S_19
REMARK    8  A    between atoms: S_19  and  C_22
REMARK    9  A    between atoms: C_25  and  C_26
REMARK                            x       y       z     vdW  Elec       q    Type
REMARK                         _______ _______ _______ _____ _____    ______ ____
ROOT
ATOM      1  C   UNL     1       6.102   4.287  16.657  0.00  0.00    +0.000 A 
ATOM      2  C   UNL     1       5.900   3.356  15.622  0.00  0.00    +0.000 A 
ATOM      3  C   UNL     1       6.158   3.700  14.301  0.00  0.00    +0.000 A 
ATOM      4  C   UNL     1       6.619   4.974  14.052  0.00  0.00    +0.000 A 
ATOM      5  N   UNL     1       6.844   5.888  15.019  0.00  0.00    +0.000 NA
ATOM      6  C   UNL     1       6.592   5.549  16.313  0.00  0.00    +0.000 A 
ENDROOT
BRANCH   1   8
ATOM      7  O   UNL     1       6.403   4.209  18.983  0.00  0.00    +0.000 OA
ATOM      8  C   UNL     1       5.747   3.813  18.024  0.00  0.00    +0.000 C 
ATOM      9  N   UNL     1       4.747   2.881  18.147  0.00  0.00    +0.000 N 
ATOM     10  H   UNL     1       4.115   2.716  17.369  0.00  0.00    +0.000 HD
BRANCH   9  11
ATOM     11  C   UNL     1       4.360   2.376  19.444  0.00  0.00    +0.000 C 
BRANCH  11  12
ATOM     12  C   UNL     1       2.895   2.600  19.636  0.00  0.00    +0.000 A 
ATOM     13  C   UNL     1       1.859   2.226  18.801  0.00  0.00    +0.000 A 
ATOM     14  C   UNL     1       0.582   2.556  19.340  0.00  0.00    +0.000 A 
ATOM     15  C   UNL     1       0.685   3.187  20.559  0.00  0.00    +0.000 A 
ATOM     16  S   UNL     1       2.313   3.387  21.043  0.00  0.00    +0.000 S 
ENDBRANCH  11  12
ENDBRANCH   9  11
ENDBRANCH   1   8
BRANCH   6  17
ATOM     17  S   UNL     1       7.022   6.828  17.502  0.00  0.00    +0.000 S 
BRANCH  17  18
ATOM     18  C   UNL     1       5.420   7.711  17.616  0.00  0.00    +0.000 C 
BRANCH  18  19
ATOM     19  C   UNL     1       4.278   6.894  17.036  0.00  0.00    +0.000 C 
BRANCH  19  20
ATOM     20  S   UNL     1       3.189   6.409  18.365  0.00  0.00    +0.000 S 
ATOM     21  O   UNL     1       2.242   5.437  17.850  0.00  0.00    +0.000 OA
ATOM     22  O   UNL     1       4.003   6.102  19.525  0.00  0.00    +0.000 OA
BRANCH  20  23
ATOM     23  C   UNL     1       2.247   7.860  18.788  0.00  0.00    +0.000 A 
ATOM     24  C   UNL     1       1.850   8.728  17.781  0.00  0.00    +0.000 A 
ATOM     25  C   UNL     1       0.974   9.750  18.128  0.00  0.00    +0.000 A 
ATOM     26  C   UNL     1       0.532   9.865  19.452  0.00  0.00    +0.000 A 
ATOM     27  C   UNL     1       1.042   8.971  20.390  0.00  0.00    +0.000 A 
ATOM     28  N   UNL     1       1.890   7.961  20.092  0.00  0.00    +0.000 NA
BRANCH  26  29
ATOM     29  C   UNL     1      -0.500  10.867  19.876  0.00  0.00    +0.000 C 
ATOM     30  F   UNL     1      -0.080  12.158  19.772  0.00  0.00    +0.000 F 
ATOM     31  F   UNL     1      -1.631  10.785  19.121  0.00  0.00    +0.000 F 
ATOM     32  F   UNL     1      -0.897  10.702  21.165  0.00  0.00    +0.000 F 
ENDBRANCH  26  29
ENDBRANCH  20  23
ENDBRANCH  19  20
ENDBRANCH  18  19
ENDBRANCH  17  18
ENDBRANCH   6  17
TORSDOF 9
ENDMDL
MODEL 8
REMARK VINA RESULT:      -7.2      5.265      9.109
REMARK  Name = 
REMARK  9 active torsions:
REMARK  status: ('A' for Active; 'I' for Inactive)
REMARK    1  A    between atoms: C_2  and  C_10
REMARK    2  A    between atoms: N_3  and  C_4
REMARK    3  A    between atoms: C_4  and  C_5
REMARK    4  A    between atoms: C_15  and  S_16
REMARK    5  A    between atoms: S_16  and  C_17
REMARK    6  A    between atoms: C_17  and  C_18
REMARK    7  A    between atoms: C_18  and  S_19
REMARK    8  A    between atoms: S_19  and  C_22
REMARK    9  A    between atoms: C_25  and  C_26
REMARK                            x       y       z     vdW  Elec       q    Type
REMARK                         _______ _______ _______ _____ _____    ______ ____
ROOT
ATOM      1  C   UNL     1       4.493   4.654  18.492  0.00  0.00    +0.000 A 
ATOM      2  C   UNL     1       4.255   3.438  19.158  0.00  0.00    +0.000 A 
ATOM      3  C   UNL     1       3.100   3.257  19.908  0.00  0.00    +0.000 A 
ATOM      4  C   UNL     1       2.205   4.303  19.965  0.00  0.00    +0.000 A 
ATOM      5  N   UNL     1       2.389   5.476  19.323  0.00  0.00    +0.000 NA
ATOM      6  C   UNL     1       3.520   5.652  18.589  0.00  0.00    +0.000 A 
ENDROOT
BRANCH   1   8
ATOM      7  O   UNL     1       6.827   4.454  18.348  0.00  0.00    +0.000 OA
ATOM      8  C   UNL     1       5.787   4.740  17.759  0.00  0.00    +0.000 C 
ATOM      9  N   UNL     1       5.773   5.219  16.473  0.00  0.00    +0.000 N 
ATOM     10  H   UNL     1       4.896   5.271  15.966  0.00  0.00    +0.000 HD
BRANCH   9  11
ATOM     11  C   UNL     1       6.996   5.332  15.712  0.00  0.00    +0.000 C 
BRANCH  11  12
ATOM     12  C   UNL     1       6.798   4.696  14.375  0.00  0.00    +0.000 A 
ATOM     13  C   UNL     1       5.809   3.810  13.991  0.00  0.00    +0.000 A 
ATOM     14  C   UNL     1       5.901   3.457  12.614  0.00  0.00    +0.000 A 
ATOM     15  C   UNL     1       6.968   4.069  11.996  0.00  0.00    +0.000 A 
ATOM     16  S   UNL     1       7.856   5.055  13.076  0.00  0.00    +0.000 S 
ENDBRANCH  11  12
ENDBRANCH   9  11
ENDBRANCH   1   8
BRANCH   6  17
ATOM     17  S   UNL     1       3.591   7.222  17.716  0.00  0.00    +0.000 S 
BRANCH  17  18
ATOM     18  C   UNL     1       2.116   8.049  18.423  0.00  0.00    +0.000 C 
BRANCH  18  19
ATOM     19  C   UNL     1       1.913   9.439  17.845  0.00  0.00    +0.000 C 
BRANCH  19  20
ATOM     20  S   UNL     1       1.120  10.460  19.075  0.00  0.00    +0.000 S 
ATOM     21  O   UNL     1       1.015   9.697  20.306  0.00  0.00    +0.000 OA
ATOM     22  O   UNL     1       1.765  11.759  19.067  0.00  0.00    +0.000 OA
BRANCH  20  23
ATOM     23  C   UNL     1      -0.545  10.728  18.501  0.00  0.00    +0.000 A 
ATOM     24  C   UNL     1      -1.104   9.830  17.604  0.00  0.00    +0.000 A 
ATOM     25  C   UNL     1      -2.456   9.976  17.314  0.00  0.00    +0.000 A 
ATOM     26  C   UNL     1      -3.190  11.000  17.926  0.00  0.00    +0.000 A 
ATOM     27  C   UNL     1      -2.510  11.878  18.766  0.00  0.00    +0.000 A 
ATOM     28  N   UNL     1      -1.198  11.767  19.077  0.00  0.00    +0.000 NA
BRANCH  26  29
ATOM     29  C   UNL     1      -4.672  11.147  17.753  0.00  0.00    +0.000 C 
ATOM     30  F   UNL     1      -5.080  11.064  16.457  0.00  0.00    +0.000 F 
ATOM     31  F   UNL     1      -5.362  10.180  18.421  0.00  0.00    +0.000 F 
ATOM     32  F   UNL     1      -5.142  12.333  18.222  0.00  0.00    +0.000 F 
ENDBRANCH  26  29
ENDBRANCH  20  23
ENDBRANCH  19  20
ENDBRANCH  18  19
ENDBRANCH  17  18
ENDBRANCH   6  17
TORSDOF 9
ENDMDL
MODEL 9
REMARK VINA RESULT:      -7.2      3.846      4.741
REMARK  Name = 
REMARK  9 active torsions:
REMARK  status: ('A' for Active; 'I' for Inactive)
REMARK    1  A    between atoms: C_2  and  C_10
REMARK    2  A    between atoms: N_3  and  C_4
REMARK    3  A    between atoms: C_4  and  C_5
REMARK    4  A    between atoms: C_15  and  S_16
REMARK    5  A    between atoms: S_16  and  C_17
REMARK    6  A    between atoms: C_17  and  C_18
REMARK    7  A    between atoms: C_18  and  S_19
REMARK    8  A    between atoms: S_19  and  C_22
REMARK    9  A    between atoms: C_25  and  C_26
REMARK                            x       y       z     vdW  Elec       q    Type
REMARK                         _______ _______ _______ _____ _____    ______ ____
ROOT
ATOM      1  C   UNL     1       2.340   4.551  19.819  0.00  0.00    +0.000 A 
ATOM      2  C   UNL     1       1.188   4.044  20.447  0.00  0.00    +0.000 A 
ATOM      3  C   UNL     1       1.252   2.891  21.218  0.00  0.00    +0.000 A 
ATOM      4  C   UNL     1       2.477   2.275  21.346  0.00  0.00    +0.000 A 
ATOM      5  N   UNL     1       3.609   2.742  20.775  0.00  0.00    +0.000 NA
ATOM      6  C   UNL     1       3.544   3.872  20.021  0.00  0.00    +0.000 A 
ENDROOT
BRANCH   1   8
ATOM      7  O   UNL     1       1.813   5.634  17.805  0.00  0.00    +0.000 OA
ATOM      8  C   UNL     1       2.132   5.766  18.983  0.00  0.00    +0.000 C 
ATOM      9  N   UNL     1       2.390   6.991  19.546  0.00  0.00    +0.000 N 
ATOM     10  H   UNL     1       2.473   7.073  20.554  0.00  0.00    +0.000 HD
BRANCH   9  11
ATOM     11  C   UNL     1       2.214   8.207  18.787  0.00  0.00    +0.000 C 
BRANCH  11  12
ATOM     12  C   UNL     1       1.192   9.061  19.464  0.00  0.00    +0.000 A 
ATOM     13  C   UNL     1       0.756   8.991  20.775  0.00  0.00    +0.000 A 
ATOM     14  C   UNL     1      -0.189  10.010  21.087  0.00  0.00    +0.000 A 
ATOM     15  C   UNL     1      -0.458  10.813  20.002  0.00  0.00    +0.000 A 
ATOM     16  S   UNL     1       0.418  10.332  18.614  0.00  0.00    +0.000 S 
ENDBRANCH  11  12
ENDBRANCH   9  11
ENDBRANCH   1   8
BRANCH   6  17
ATOM     17  S   UNL     1       5.137   4.429  19.400  0.00  0.00    +0.000 S 
BRANCH  17  18
ATOM     18  C   UNL     1       4.928   4.074  17.614  0.00  0.00    +0.000 C 
BRANCH  18  19
ATOM     19  C   UNL     1       5.211   5.295  16.755  0.00  0.00    +0.000 C 
BRANCH  19  20
ATOM     20  S   UNL     1       6.976   5.442  16.533  0.00  0.00    +0.000 S 
ATOM     21  O   UNL     1       7.615   4.307  17.177  0.00  0.00    +0.000 OA
ATOM     22  O   UNL     1       7.232   5.737  15.137  0.00  0.00    +0.000 OA
BRANCH  20  23
ATOM     23  C   UNL     1       7.474   6.887  17.447  0.00  0.00    +0.000 A 
ATOM     24  C   UNL     1       8.214   6.732  18.609  0.00  0.00    +0.000 A 
ATOM     25  C   UNL     1       8.728   7.883  19.198  0.00  0.00    +0.000 A 
ATOM     26  C   UNL     1       8.487   9.130  18.608  0.00  0.00    +0.000 A 
ATOM     27  C   UNL     1       7.680   9.169  17.473  0.00  0.00    +0.000 A 
ATOM     28  N   UNL     1       7.167   8.074  16.868  0.00  0.00    +0.000 NA
BRANCH  26  29
ATOM     29  C   UNL     1       9.103  10.399  19.117  0.00  0.00    +0.000 C 
ATOM     30  F   UNL     1       9.095  11.410  18.207  0.00  0.00    +0.000 F 
ATOM     31  F   UNL     1       8.448  10.879  20.211  0.00  0.00    +0.000 F 
ATOM     32  F   UNL     1      10.398  10.240  19.496  0.00  0.00    +0.000 F 
ENDBRANCH  26  29
ENDBRANCH  20  23
ENDBRANCH  19  20
ENDBRANCH  18  19
ENDBRANCH  17  18
ENDBRANCH   6  17
TORSDOF 9
ENDMDL
