MODEL 1
REMARK VINA RESULT:      -6.4      0.000      0.000
REMARK  Name = 
REMARK  20 active torsions:
REMARK  status: ('A' for Active; 'I' for Inactive)
REMARK    1  A    between atoms: C_1  and  C_2
REMARK    2  A    between atoms: C_2  and  C_3
REMARK    3  A    between atoms: C_3  and  C_4
REMARK    4  A    between atoms: C_4  and  C_5
REMARK    5  A    between atoms: C_5  and  C_6
REMARK    6  A    between atoms: C_6  and  C_7
REMARK    7  A    between atoms: C_7  and  C_8
REMARK    8  A    between atoms: C_8  and  C_9
REMARK    9  A    between atoms: C_9  and  C_10
REMARK   10  A    between atoms: C_10  and  C_11
REMARK   11  A    between atoms: C_11  and  C_12
REMARK   12  A    between atoms: C_12  and  N_13
REMARK   13  A    between atoms: C_14  and  C_16
REMARK   14  A    between atoms: C_16  and  N_17
REMARK   15  A    between atoms: N_17  and  N_18
REMARK   16  A    between atoms: C_19  and  O_21
REMARK   17  A    between atoms: O_21  and  C_22
REMARK   18  A    between atoms: C_22  and  C_23
REMARK   19  A    between atoms: C_29  and  C_31
REMARK   20  A    between atoms: C_31  and  N_32
REMARK                            x       y       z     vdW  Elec       q    Type
REMARK                         _______ _______ _______ _____ _____    ______ ____
ROOT
ATOM      1  N   UNL     1       3.296   4.856  19.237  0.00  0.00    +0.000 N 
ATOM      2  C   UNL     1       2.637   3.712  19.662  0.00  0.00    +0.000 C 
ATOM      3  O   UNL     1       1.517   3.461  19.235  0.00  0.00    +0.000 OA
ENDROOT
BRANCH   1   4
ATOM      4  N   UNL     1       4.543   5.166  19.792  0.00  0.00    +0.000 N 
ATOM      5  C   UNL     1       5.759   5.066  19.165  0.00  0.00    +0.000 C 
ATOM      6  O   UNL     1       6.757   5.423  19.809  0.00  0.00    +0.000 OA
ATOM      7  H   UNL     1       4.579   5.492  20.762  0.00  0.00    +0.000 HD
BRANCH   5   8
ATOM      8  O   UNL     1       5.932   4.573  17.916  0.00  0.00    +0.000 OA
BRANCH   8   9
ATOM      9  C   UNL     1       7.118   4.643  17.174  0.00  0.00    +0.000 C 
BRANCH   9  10
ATOM     10  C   UNL     1       6.864   4.487  15.693  0.00  0.00    +0.000 A 
ATOM     11  C   UNL     1       5.798   3.698  15.230  0.00  0.00    +0.000 A 
ATOM     12  C   UNL     1       5.562   3.563  13.855  0.00  0.00    +0.000 A 
ATOM     13  C   UNL     1       6.389   4.211  12.932  0.00  0.00    +0.000 A 
ATOM     14  C   UNL     1       7.442   5.009  13.381  0.00  0.00    +0.000 A 
ATOM     15  C   UNL     1       7.679   5.150  14.754  0.00  0.00    +0.000 A 
ENDBRANCH   9  10
ENDBRANCH   8   9
ENDBRANCH   5   8
ENDBRANCH   1   4
BRANCH   2  16
ATOM     16  C   UNL     1       3.237   2.698  20.610  0.00  0.00    +0.000 C 
BRANCH  16  17
ATOM     17  N   UNL     1       2.539   2.706  21.893  0.00  0.00    +0.000 NA
ATOM     18  H   UNL     1       1.513   2.584  21.726  0.00  0.00    +0.000 HD
ATOM     19  H   UNL     1       2.670   3.644  22.333  0.00  0.00    +0.000 HD
ENDBRANCH  16  17
ENDBRANCH   2  16
BRANCH   1  20
ATOM     20  C   UNL     1       2.619   5.712  18.257  0.00  0.00    +0.000 C 
BRANCH  20  22
ATOM     21  N   UNL     1       1.694   7.481  19.768  0.00  0.00    +0.000 N 
ATOM     22  C   UNL     1       2.503   7.122  18.726  0.00  0.00    +0.000 C 
ATOM     23  O   UNL     1       3.186   7.948  18.143  0.00  0.00    +0.000 OA
ATOM     24  H   UNL     1       1.157   6.754  20.266  0.00  0.00    +0.000 HD
BRANCH  21  25
ATOM     25  C   UNL     1       1.619   8.832  20.297  0.00  0.00    +0.000 C 
BRANCH  25  26
ATOM     26  C   UNL     1       1.278   8.866  21.806  0.00  0.00    +0.000 C 
BRANCH  26  27
ATOM     27  C   UNL     1      -0.205   8.975  22.084  0.00  0.00    +0.000 C 
BRANCH  27  28
ATOM     28  C   UNL     1      -0.421   9.856  23.309  0.00  0.00    +0.000 C 
BRANCH  28  29
ATOM     29  C   UNL     1      -1.390  10.959  23.015  0.00  0.00    +0.000 C 
BRANCH  29  30
ATOM     30  C   UNL     1      -0.626  12.065  22.322  0.00  0.00    +0.000 C 
BRANCH  30  31
ATOM     31  C   UNL     1      -1.455  12.593  21.188  0.00  0.00    +0.000 C 
BRANCH  31  32
ATOM     32  C   UNL     1      -0.785  12.235  19.886  0.00  0.00    +0.000 C 
BRANCH  32  33
ATOM     33  C   UNL     1      -1.781  11.485  19.023  0.00  0.00    +0.000 C 
BRANCH  33  34
ATOM     34  C   UNL     1      -1.063  10.359  18.326  0.00  0.00    +0.000 C 
BRANCH  34  36
ATOM     35  C   UNL     1      -3.306   9.707  17.532  0.00  0.00    +0.000 C 
ATOM     36  C   UNL     1      -1.866   9.924  17.116  0.00  0.00    +0.000 C 
ENDBRANCH  34  36
ENDBRANCH  33  34
ENDBRANCH  32  33
ENDBRANCH  31  32
ENDBRANCH  30  31
ENDBRANCH  29  30
ENDBRANCH  28  29
ENDBRANCH  27  28
ENDBRANCH  26  27
ENDBRANCH  25  26
ENDBRANCH  21  25
ENDBRANCH  20  22
ENDBRANCH   1  20
TORSDOF 19
ENDMDL
MODEL 2
REMARK VINA RESULT:      -6.3      6.083      8.979
REMARK  Name = 
REMARK  20 active torsions:
REMARK  status: ('A' for Active; 'I' for Inactive)
REMARK    1  A    between atoms: C_1  and  C_2
REMARK    2  A    between atoms: C_2  and  C_3
REMARK    3  A    between atoms: C_3  and  C_4
REMARK    4  A    between atoms: C_4  and  C_5
REMARK    5  A    between atoms: C_5  and  C_6
REMARK    6  A    between atoms: C_6  and  C_7
REMARK    7  A    between atoms: C_7  and  C_8
REMARK    8  A    between atoms: C_8  and  C_9
REMARK    9  A    between atoms: C_9  and  C_10
REMARK   10  A    between atoms: C_10  and  C_11
REMARK   11  A    between atoms: C_11  and  C_12
REMARK   12  A    between atoms: C_12  and  N_13
REMARK   13  A    between atoms: C_14  and  C_16
REMARK   14  A    between atoms: C_16  and  N_17
REMARK   15  A    between atoms: N_17  and  N_18
REMARK   16  A    between atoms: C_19  and  O_21
REMARK   17  A    between atoms: O_21  and  C_22
REMARK   18  A    between atoms: C_22  and  C_23
REMARK   19  A    between atoms: C_29  and  C_31
REMARK   20  A    between atoms: C_31  and  N_32
REMARK                            x       y       z     vdW  Elec       q    Type
REMARK                         _______ _______ _______ _____ _____    ______ ____
ROOT
ATOM      1  N   UNL     1       6.373   4.920  15.701  0.00  0.00    +0.000 N 
ATOM      2  C   UNL     1       6.947   5.016  14.442  0.00  0.00    +0.000 C 
ATOM      3  O   UNL     1       8.068   5.492  14.319  0.00  0.00    +0.000 OA
ENDROOT
BRANCH   1   4
ATOM      4  N   UNL     1       5.063   4.442  15.815  0.00  0.00    +0.000 N 
ATOM      5  C   UNL     1       4.452   4.008  16.964  0.00  0.00    +0.000 C 
ATOM      6  O   UNL     1       3.267   3.654  16.875  0.00  0.00    +0.000 OA
ATOM      7  H   UNL     1       4.485   4.392  14.970  0.00  0.00    +0.000 HD
BRANCH   5   8
ATOM      8  O   UNL     1       5.072   3.912  18.164  0.00  0.00    +0.000 OA
BRANCH   8   9
ATOM      9  C   UNL     1       4.722   4.626  19.317  0.00  0.00    +0.000 C 
BRANCH   9  10
ATOM     10  C   UNL     1       3.443   4.107  19.932  0.00  0.00    +0.000 A 
ATOM     11  C   UNL     1       3.377   2.801  20.448  0.00  0.00    +0.000 A 
ATOM     12  C   UNL     1       2.191   2.328  21.026  0.00  0.00    +0.000 A 
ATOM     13  C   UNL     1       1.062   3.151  21.092  0.00  0.00    +0.000 A 
ATOM     14  C   UNL     1       1.121   4.455  20.596  0.00  0.00    +0.000 A 
ATOM     15  C   UNL     1       2.305   4.934  20.022  0.00  0.00    +0.000 A 
ENDBRANCH   9  10
ENDBRANCH   8   9
ENDBRANCH   5   8
ENDBRANCH   1   4
BRANCH   2  16
ATOM     16  C   UNL     1       6.286   4.519  13.175  0.00  0.00    +0.000 C 
BRANCH  16  17
ATOM     17  N   UNL     1       6.263   3.059  13.136  0.00  0.00    +0.000 NA
ATOM     18  H   UNL     1       7.151   2.691  13.552  0.00  0.00    +0.000 HD
ATOM     19  H   UNL     1       6.244   2.757  12.137  0.00  0.00    +0.000 HD
ENDBRANCH  16  17
ENDBRANCH   2  16
BRANCH   1  20
ATOM     20  C   UNL     1       7.163   5.377  16.850  0.00  0.00    +0.000 C 
BRANCH  20  22
ATOM     21  N   UNL     1       7.955   7.623  17.618  0.00  0.00    +0.000 N 
ATOM     22  C   UNL     1       6.956   6.826  17.134  0.00  0.00    +0.000 C 
ATOM     23  O   UNL     1       5.848   7.275  16.894  0.00  0.00    +0.000 OA
ATOM     24  H   UNL     1       8.893   7.223  17.776  0.00  0.00    +0.000 HD
BRANCH  21  25
ATOM     25  C   UNL     1       7.806   9.053  17.833  0.00  0.00    +0.000 C 
BRANCH  25  26
ATOM     26  C   UNL     1       8.812   9.610  18.868  0.00  0.00    +0.000 C 
BRANCH  26  27
ATOM     27  C   UNL     1       9.122  11.078  18.675  0.00  0.00    +0.000 C 
BRANCH  27  28
ATOM     28  C   UNL     1      10.300  11.221  17.719  0.00  0.00    +0.000 C 
BRANCH  28  29
ATOM     29  C   UNL     1      10.630  12.663  17.483  0.00  0.00    +0.000 C 
BRANCH  29  30
ATOM     30  C   UNL     1      12.024  12.905  18.015  0.00  0.00    +0.000 C 
BRANCH  30  31
ATOM     31  C   UNL     1      11.924  13.520  19.381  0.00  0.00    +0.000 C 
BRANCH  31  32
ATOM     32  C   UNL     1      12.296  14.977  19.288  0.00  0.00    +0.000 C 
BRANCH  32  33
ATOM     33  C   UNL     1      11.040  15.776  18.998  0.00  0.00    +0.000 C 
BRANCH  33  34
ATOM     34  C   UNL     1      10.008  15.448  20.045  0.00  0.00    +0.000 C 
BRANCH  34  36
ATOM     35  C   UNL     1       8.736  16.028  18.012  0.00  0.00    +0.000 C 
ATOM     36  C   UNL     1       8.625  15.730  19.493  0.00  0.00    +0.000 C 
ENDBRANCH  34  36
ENDBRANCH  33  34
ENDBRANCH  32  33
ENDBRANCH  31  32
ENDBRANCH  30  31
ENDBRANCH  29  30
ENDBRANCH  28  29
ENDBRANCH  27  28
ENDBRANCH  26  27
ENDBRANCH  25  26
ENDBRANCH  21  25
ENDBRANCH  20  22
ENDBRANCH   1  20
TORSDOF 19
ENDMDL
MODEL 3
REMARK VINA RESULT:      -6.3      2.010      3.219
REMARK  Name = 
REMARK  20 active torsions:
REMARK  status: ('A' for Active; 'I' for Inactive)
REMARK    1  A    between atoms: C_1  and  C_2
REMARK    2  A    between atoms: C_2  and  C_3
REMARK    3  A    between atoms: C_3  and  C_4
REMARK    4  A    between atoms: C_4  and  C_5
REMARK    5  A    between atoms: C_5  and  C_6
REMARK    6  A    between atoms: C_6  and  C_7
REMARK    7  A    between atoms: C_7  and  C_8
REMARK    8  A    between atoms: C_8  and  C_9
REMARK    9  A    between atoms: C_9  and  C_10
REMARK   10  A    between atoms: C_10  and  C_11
REMARK   11  A    between atoms: C_11  and  C_12
REMARK   12  A    between atoms: C_12  and  N_13
REMARK   13  A    between atoms: C_14  and  C_16
REMARK   14  A    between atoms: C_16  and  N_17
REMARK   15  A    between atoms: N_17  and  N_18
REMARK   16  A    between atoms: C_19  and  O_21
REMARK   17  A    between atoms: O_21  and  C_22
REMARK   18  A    between atoms: C_22  and  C_23
REMARK   19  A    between atoms: C_29  and  C_31
REMARK   20  A    between atoms: C_31  and  N_32
REMARK                            x       y       z     vdW  Elec       q    Type
REMARK                         _______ _______ _______ _____ _____    ______ ____
ROOT
ATOM      1  N   UNL     1       3.277   4.419  18.475  0.00  0.00    +0.000 N 
ATOM      2  C   UNL     1       2.561   3.238  18.361  0.00  0.00    +0.000 C 
ATOM      3  O   UNL     1       1.404   3.263  17.961  0.00  0.00    +0.000 OA
ENDROOT
BRANCH   1   4
ATOM      4  N   UNL     1       4.572   4.380  19.005  0.00  0.00    +0.000 N 
ATOM      5  C   UNL     1       5.743   4.456  18.295  0.00  0.00    +0.000 C 
ATOM      6  O   UNL     1       6.799   4.440  18.945  0.00  0.00    +0.000 OA
ATOM      7  H   UNL     1       4.683   4.274  20.018  0.00  0.00    +0.000 HD
BRANCH   5   8
ATOM      8  O   UNL     1       5.811   4.509  16.944  0.00  0.00    +0.000 OA
BRANCH   8   9
ATOM      9  C   UNL     1       6.757   5.233  16.208  0.00  0.00    +0.000 C 
BRANCH   9  10
ATOM     10  C   UNL     1       6.771   4.824  14.754  0.00  0.00    +0.000 A 
ATOM     11  C   UNL     1       7.680   5.407  13.855  0.00  0.00    +0.000 A 
ATOM     12  C   UNL     1       7.694   5.017  12.509  0.00  0.00    +0.000 A 
ATOM     13  C   UNL     1       6.802   4.045  12.048  0.00  0.00    +0.000 A 
ATOM     14  C   UNL     1       5.904   3.448  12.935  0.00  0.00    +0.000 A 
ATOM     15  C   UNL     1       5.888   3.831  14.282  0.00  0.00    +0.000 A 
ENDBRANCH   9  10
ENDBRANCH   8   9
ENDBRANCH   5   8
ENDBRANCH   1   4
BRANCH   2  16
ATOM     16  C   UNL     1       3.137   1.872  18.663  0.00  0.00    +0.000 C 
BRANCH  16  17
ATOM     17  N   UNL     1       4.113   1.481  17.649  0.00  0.00    +0.000 NA
ATOM     18  H   UNL     1       4.305   0.455  17.736  0.00  0.00    +0.000 HD
ATOM     19  H   UNL     1       5.009   1.979  17.846  0.00  0.00    +0.000 HD
ENDBRANCH  16  17
ENDBRANCH   2  16
BRANCH   1  20
ATOM     20  C   UNL     1       2.611   5.665  18.077  0.00  0.00    +0.000 C 
BRANCH  20  22
ATOM     21  N   UNL     1       1.958   7.832  19.145  0.00  0.00    +0.000 N 
ATOM     22  C   UNL     1       2.222   6.496  19.252  0.00  0.00    +0.000 C 
ATOM     23  O   UNL     1       2.132   5.917  20.322  0.00  0.00    +0.000 OA
ATOM     24  H   UNL     1       2.007   8.287  18.220  0.00  0.00    +0.000 HD
BRANCH  21  25
ATOM     25  C   UNL     1       1.503   8.651  20.257  0.00  0.00    +0.000 C 
BRANCH  25  26
ATOM     26  C   UNL     1       0.832   9.967  19.794  0.00  0.00    +0.000 C 
BRANCH  26  27
ATOM     27  C   UNL     1       0.513   9.991  18.316  0.00  0.00    +0.000 C 
BRANCH  27  28
ATOM     28  C   UNL     1      -0.995  10.108  18.129  0.00  0.00    +0.000 C 
BRANCH  28  29
ATOM     29  C   UNL     1      -1.434  11.538  18.180  0.00  0.00    +0.000 C 
BRANCH  29  30
ATOM     30  C   UNL     1      -2.905  11.552  18.530  0.00  0.00    +0.000 C 
BRANCH  30  31
ATOM     31  C   UNL     1      -3.667  10.821  17.462  0.00  0.00    +0.000 C 
BRANCH  31  32
ATOM     32  C   UNL     1      -5.139  11.082  17.650  0.00  0.00    +0.000 C 
BRANCH  32  33
ATOM     33  C   UNL     1      -5.308  12.134  18.728  0.00  0.00    +0.000 C 
BRANCH  33  34
ATOM     34  C   UNL     1      -6.694  12.014  19.307  0.00  0.00    +0.000 C 
BRANCH  34  36
ATOM     35  C   UNL     1      -5.289  12.586  21.252  0.00  0.00    +0.000 C 
ATOM     36  C   UNL     1      -6.606  11.976  20.819  0.00  0.00    +0.000 C 
ENDBRANCH  34  36
ENDBRANCH  33  34
ENDBRANCH  32  33
ENDBRANCH  31  32
ENDBRANCH  30  31
ENDBRANCH  29  30
ENDBRANCH  28  29
ENDBRANCH  27  28
ENDBRANCH  26  27
ENDBRANCH  25  26
ENDBRANCH  21  25
ENDBRANCH  20  22
ENDBRANCH   1  20
TORSDOF 19
ENDMDL
MODEL 4
REMARK VINA RESULT:      -6.3      6.174      8.541
REMARK  Name = 
REMARK  20 active torsions:
REMARK  status: ('A' for Active; 'I' for Inactive)
REMARK    1  A    between atoms: C_1  and  C_2
REMARK    2  A    between atoms: C_2  and  C_3
REMARK    3  A    between atoms: C_3  and  C_4
REMARK    4  A    between atoms: C_4  and  C_5
REMARK    5  A    between atoms: C_5  and  C_6
REMARK    6  A    between atoms: C_6  and  C_7
REMARK    7  A    between atoms: C_7  and  C_8
REMARK    8  A    between atoms: C_8  and  C_9
REMARK    9  A    between atoms: C_9  and  C_10
REMARK   10  A    between atoms: C_10  and  C_11
REMARK   11  A    between atoms: C_11  and  C_12
REMARK   12  A    between atoms: C_12  and  N_13
REMARK   13  A    between atoms: C_14  and  C_16
REMARK   14  A    between atoms: C_16  and  N_17
REMARK   15  A    between atoms: N_17  and  N_18
REMARK   16  A    between atoms: C_19  and  O_21
REMARK   17  A    between atoms: O_21  and  C_22
REMARK   18  A    between atoms: C_22  and  C_23
REMARK   19  A    between atoms: C_29  and  C_31
REMARK   20  A    between atoms: C_31  and  N_32
REMARK                            x       y       z     vdW  Elec       q    Type
REMARK                         _______ _______ _______ _____ _____    ______ ____
ROOT
ATOM      1  N   UNL     1       6.994   6.111  17.360  0.00  0.00    +0.000 N 
ATOM      2  C   UNL     1       7.301   4.838  16.903  0.00  0.00    +0.000 C 
ATOM      3  O   UNL     1       8.212   4.208  17.425  0.00  0.00    +0.000 OA
ENDROOT
BRANCH   1   4
ATOM      4  N   UNL     1       6.000   6.845  16.703  0.00  0.00    +0.000 N 
ATOM      5  C   UNL     1       4.647   6.743  16.904  0.00  0.00    +0.000 C 
ATOM      6  O   UNL     1       3.920   7.507  16.251  0.00  0.00    +0.000 OA
ATOM      7  H   UNL     1       6.283   7.525  15.991  0.00  0.00    +0.000 HD
BRANCH   5   8
ATOM      8  O   UNL     1       4.068   5.844  17.734  0.00  0.00    +0.000 OA
BRANCH   8   9
ATOM      9  C   UNL     1       3.365   6.156  18.905  0.00  0.00    +0.000 C 
BRANCH   9  10
ATOM     10  C   UNL     1       2.853   4.917  19.601  0.00  0.00    +0.000 A 
ATOM     11  C   UNL     1       1.619   4.933  20.273  0.00  0.00    +0.000 A 
ATOM     12  C   UNL     1       1.145   3.778  20.909  0.00  0.00    +0.000 A 
ATOM     13  C   UNL     1       1.898   2.600  20.883  0.00  0.00    +0.000 A 
ATOM     14  C   UNL     1       3.118   2.569  20.206  0.00  0.00    +0.000 A 
ATOM     15  C   UNL     1       3.594   3.719  19.565  0.00  0.00    +0.000 A 
ENDBRANCH   9  10
ENDBRANCH   8   9
ENDBRANCH   5   8
ENDBRANCH   1   4
BRANCH   2  16
ATOM     16  C   UNL     1       6.542   4.132  15.802  0.00  0.00    +0.000 C 
BRANCH  16  17
ATOM     17  N   UNL     1       5.357   3.461  16.332  0.00  0.00    +0.000 NA
ATOM     18  H   UNL     1       4.706   4.178  16.729  0.00  0.00    +0.000 HD
ATOM     19  H   UNL     1       5.654   2.845  17.121  0.00  0.00    +0.000 HD
ENDBRANCH  16  17
ENDBRANCH   2  16
BRANCH   1  20
ATOM     20  C   UNL     1       7.770   6.641  18.486  0.00  0.00    +0.000 C 
BRANCH  20  22
ATOM     21  N   UNL     1       8.923   8.751  19.180  0.00  0.00    +0.000 N 
ATOM     22  C   UNL     1       8.246   8.031  18.236  0.00  0.00    +0.000 C 
ATOM     23  O   UNL     1       8.017   8.495  17.131  0.00  0.00    +0.000 OA
ATOM     24  H   UNL     1       9.135   8.318  20.093  0.00  0.00    +0.000 HD
BRANCH  21  25
ATOM     25  C   UNL     1       9.466  10.078  18.941  0.00  0.00    +0.000 C 
BRANCH  25  26
ATOM     26  C   UNL     1       8.846  11.154  19.865  0.00  0.00    +0.000 C 
BRANCH  26  27
ATOM     27  C   UNL     1       9.816  11.692  20.894  0.00  0.00    +0.000 C 
BRANCH  27  28
ATOM     28  C   UNL     1       9.380  13.092  21.309  0.00  0.00    +0.000 C 
BRANCH  28  29
ATOM     29  C   UNL     1      10.508  14.067  21.179  0.00  0.00    +0.000 C 
BRANCH  29  30
ATOM     30  C   UNL     1       9.931  15.457  21.329  0.00  0.00    +0.000 C 
BRANCH  30  31
ATOM     31  C   UNL     1      10.351  16.289  20.153  0.00  0.00    +0.000 C 
BRANCH  31  32
ATOM     32  C   UNL     1       9.414  16.017  19.004  0.00  0.00    +0.000 C 
BRANCH  32  33
ATOM     33  C   UNL     1      10.190  15.312  17.907  0.00  0.00    +0.000 C 
BRANCH  33  34
ATOM     34  C   UNL     1       9.668  13.906  17.776  0.00  0.00    +0.000 C 
BRANCH  34  36
ATOM     35  C   UNL     1      11.973  13.050  17.975  0.00  0.00    +0.000 C 
ATOM     36  C   UNL     1      10.723  13.037  17.120  0.00  0.00    +0.000 C 
ENDBRANCH  34  36
ENDBRANCH  33  34
ENDBRANCH  32  33
ENDBRANCH  31  32
ENDBRANCH  30  31
ENDBRANCH  29  30
ENDBRANCH  28  29
ENDBRANCH  27  28
ENDBRANCH  26  27
ENDBRANCH  25  26
ENDBRANCH  21  25
ENDBRANCH  20  22
ENDBRANCH   1  20
TORSDOF 19
ENDMDL
MODEL 5
REMARK VINA RESULT:      -6.3      3.315     10.736
REMARK  Name = 
REMARK  20 active torsions:
REMARK  status: ('A' for Active; 'I' for Inactive)
REMARK    1  A    between atoms: C_1  and  C_2
REMARK    2  A    between atoms: C_2  and  C_3
REMARK    3  A    between atoms: C_3  and  C_4
REMARK    4  A    between atoms: C_4  and  C_5
REMARK    5  A    between atoms: C_5  and  C_6
REMARK    6  A    between atoms: C_6  and  C_7
REMARK    7  A    between atoms: C_7  and  C_8
REMARK    8  A    between atoms: C_8  and  C_9
REMARK    9  A    between atoms: C_9  and  C_10
REMARK   10  A    between atoms: C_10  and  C_11
REMARK   11  A    between atoms: C_11  and  C_12
REMARK   12  A    between atoms: C_12  and  N_13
REMARK   13  A    between atoms: C_14  and  C_16
REMARK   14  A    between atoms: C_16  and  N_17
REMARK   15  A    between atoms: N_17  and  N_18
REMARK   16  A    between atoms: C_19  and  O_21
REMARK   17  A    between atoms: O_21  and  C_22
REMARK   18  A    between atoms: C_22  and  C_23
REMARK   19  A    between atoms: C_29  and  C_31
REMARK   20  A    between atoms: C_31  and  N_32
REMARK                            x       y       z     vdW  Elec       q    Type
REMARK                         _______ _______ _______ _____ _____    ______ ____
ROOT
ATOM      1  N   UNL     1       0.879  11.268  19.965  0.00  0.00    +0.000 N 
ATOM      2  C   UNL     1       1.305  12.540  19.612  0.00  0.00    +0.000 C 
ATOM      3  O   UNL     1       1.484  12.816  18.432  0.00  0.00    +0.000 OA
ENDROOT
BRANCH   1   4
ATOM      4  N   UNL     1       0.751  10.947  21.321  0.00  0.00    +0.000 N 
ATOM      5  C   UNL     1      -0.386  11.060  22.080  0.00  0.00    +0.000 C 
ATOM      6  O   UNL     1      -0.315  10.691  23.262  0.00  0.00    +0.000 OA
ATOM      7  H   UNL     1       1.576  10.602  21.822  0.00  0.00    +0.000 HD
BRANCH   5   8
ATOM      8  O   UNL     1      -1.552  11.578  21.629  0.00  0.00    +0.000 OA
BRANCH   8   9
ATOM      9  C   UNL     1      -2.046  12.852  21.936  0.00  0.00    +0.000 C 
BRANCH   9  10
ATOM     10  C   UNL     1      -3.367  12.782  22.666  0.00  0.00    +0.000 A 
ATOM     11  C   UNL     1      -3.413  12.451  24.031  0.00  0.00    +0.000 A 
ATOM     12  C   UNL     1      -4.641  12.396  24.705  0.00  0.00    +0.000 A 
ATOM     13  C   UNL     1      -5.831  12.667  24.024  0.00  0.00    +0.000 A 
ATOM     14  C   UNL     1      -5.796  13.011  22.671  0.00  0.00    +0.000 A 
ATOM     15  C   UNL     1      -4.572  13.072  21.994  0.00  0.00    +0.000 A 
ENDBRANCH   9  10
ENDBRANCH   8   9
ENDBRANCH   5   8
ENDBRANCH   1   4
BRANCH   2  16
ATOM     16  C   UNL     1       1.529  13.658  20.605  0.00  0.00    +0.000 C 
BRANCH  16  17
ATOM     17  N   UNL     1       2.717  13.405  21.416  0.00  0.00    +0.000 NA
ATOM     18  H   UNL     1       3.567  13.465  20.807  0.00  0.00    +0.000 HD
ATOM     19  H   UNL     1       2.667  12.427  21.778  0.00  0.00    +0.000 HD
ENDBRANCH  16  17
ENDBRANCH   2  16
BRANCH   1  20
ATOM     20  C   UNL     1       0.632  10.305  18.887  0.00  0.00    +0.000 C 
BRANCH  20  22
ATOM     21  N   UNL     1       2.260   8.580  18.087  0.00  0.00    +0.000 N 
ATOM     22  C   UNL     1       1.423   9.053  19.058  0.00  0.00    +0.000 C 
ATOM     23  O   UNL     1       1.301   8.473  20.125  0.00  0.00    +0.000 OA
ATOM     24  H   UNL     1       2.371   9.112  17.210  0.00  0.00    +0.000 HD
BRANCH  21  25
ATOM     25  C   UNL     1       3.101   7.406  18.254  0.00  0.00    +0.000 C 
BRANCH  25  26
ATOM     26  C   UNL     1       4.111   7.224  17.096  0.00  0.00    +0.000 C 
BRANCH  26  27
ATOM     27  C   UNL     1       5.160   6.171  17.375  0.00  0.00    +0.000 C 
BRANCH  27  28
ATOM     28  C   UNL     1       5.572   5.514  16.063  0.00  0.00    +0.000 C 
BRANCH  28  29
ATOM     29  C   UNL     1       5.059   4.110  15.980  0.00  0.00    +0.000 C 
BRANCH  29  30
ATOM     30  C   UNL     1       4.386   3.791  17.296  0.00  0.00    +0.000 C 
BRANCH  30  31
ATOM     31  C   UNL     1       2.925   3.548  17.050  0.00  0.00    +0.000 C 
BRANCH  31  32
ATOM     32  C   UNL     1       2.500   2.319  17.812  0.00  0.00    +0.000 C 
BRANCH  32  33
ATOM     33  C   UNL     1       1.310   2.680  18.681  0.00  0.00    +0.000 C 
BRANCH  33  34
ATOM     34  C   UNL     1       1.611   2.277  20.100  0.00  0.00    +0.000 C 
BRANCH  34  36
ATOM     35  C   UNL     1       1.541   4.726  20.382  0.00  0.00    +0.000 C 
ATOM     36  C   UNL     1       1.215   3.401  21.037  0.00  0.00    +0.000 C 
ENDBRANCH  34  36
ENDBRANCH  33  34
ENDBRANCH  32  33
ENDBRANCH  31  32
ENDBRANCH  30  31
ENDBRANCH  29  30
ENDBRANCH  28  29
ENDBRANCH  27  28
ENDBRANCH  26  27
ENDBRANCH  25  26
ENDBRANCH  21  25
ENDBRANCH  20  22
ENDBRANCH   1  20
TORSDOF 19
ENDMDL
MODEL 6
REMARK VINA RESULT:      -6.2      5.730      7.979
REMARK  Name = 
REMARK  20 active torsions:
REMARK  status: ('A' for Active; 'I' for Inactive)
REMARK    1  A    between atoms: C_1  and  C_2
REMARK    2  A    between atoms: C_2  and  C_3
REMARK    3  A    between atoms: C_3  and  C_4
REMARK    4  A    between atoms: C_4  and  C_5
REMARK    5  A    between atoms: C_5  and  C_6
REMARK    6  A    between atoms: C_6  and  C_7
REMARK    7  A    between atoms: C_7  and  C_8
REMARK    8  A    between atoms: C_8  and  C_9
REMARK    9  A    between atoms: C_9  and  C_10
REMARK   10  A    between atoms: C_10  and  C_11
REMARK   11  A    between atoms: C_11  and  C_12
REMARK   12  A    between atoms: C_12  and  N_13
REMARK   13  A    between atoms: C_14  and  C_16
REMARK   14  A    between atoms: C_16  and  N_17
REMARK   15  A    between atoms: N_17  and  N_18
REMARK   16  A    between atoms: C_19  and  O_21
REMARK   17  A    between atoms: O_21  and  C_22
REMARK   18  A    between atoms: C_22  and  C_23
REMARK   19  A    between atoms: C_29  and  C_31
REMARK   20  A    between atoms: C_31  and  N_32
REMARK                            x       y       z     vdW  Elec       q    Type
REMARK                         _______ _______ _______ _____ _____    ______ ____
ROOT
ATOM      1  N   UNL     1       6.697   5.943  17.437  0.00  0.00    +0.000 N 
ATOM      2  C   UNL     1       7.117   4.759  16.852  0.00  0.00    +0.000 C 
ATOM      3  O   UNL     1       8.208   4.287  17.147  0.00  0.00    +0.000 OA
ENDROOT
BRANCH   1   4
ATOM      4  N   UNL     1       5.481   6.507  17.033  0.00  0.00    +0.000 N 
ATOM      5  C   UNL     1       4.353   6.643  17.801  0.00  0.00    +0.000 C 
ATOM      6  O   UNL     1       3.378   7.203  17.277  0.00  0.00    +0.000 OA
ATOM      7  H   UNL     1       5.396   6.848  16.071  0.00  0.00    +0.000 HD
BRANCH   5   8
ATOM      8  O   UNL     1       4.234   6.176  19.065  0.00  0.00    +0.000 OA
BRANCH   8   9
ATOM      9  C   UNL     1       4.376   4.837  19.451  0.00  0.00    +0.000 C 
BRANCH   9  10
ATOM     10  C   UNL     1       3.039   4.146  19.590  0.00  0.00    +0.000 A 
ATOM     11  C   UNL     1       2.356   3.675  18.456  0.00  0.00    +0.000 A 
ATOM     12  C   UNL     1       1.121   3.028  18.592  0.00  0.00    +0.000 A 
ATOM     13  C   UNL     1       0.555   2.848  19.857  0.00  0.00    +0.000 A 
ATOM     14  C   UNL     1       1.232   3.298  20.992  0.00  0.00    +0.000 A 
ATOM     15  C   UNL     1       2.469   3.942  20.863  0.00  0.00    +0.000 A 
ENDBRANCH   9  10
ENDBRANCH   8   9
ENDBRANCH   5   8
ENDBRANCH   1   4
BRANCH   2  16
ATOM     16  C   UNL     1       6.282   3.959  15.877  0.00  0.00    +0.000 C 
BRANCH  16  17
ATOM     17  N   UNL     1       5.281   3.159  16.580  0.00  0.00    +0.000 NA
ATOM     18  H   UNL     1       4.370   3.675  16.580  0.00  0.00    +0.000 HD
ATOM     19  H   UNL     1       5.579   3.061  17.576  0.00  0.00    +0.000 HD
ENDBRANCH  16  17
ENDBRANCH   2  16
BRANCH   1  20
ATOM     20  C   UNL     1       7.584   6.573  18.422  0.00  0.00    +0.000 C 
BRANCH  20  22
ATOM     21  N   UNL     1       8.783   8.737  18.798  0.00  0.00    +0.000 N 
ATOM     22  C   UNL     1       8.020   7.934  17.998  0.00  0.00    +0.000 C 
ATOM     23  O   UNL     1       7.675   8.294  16.885  0.00  0.00    +0.000 OA
ATOM     24  H   UNL     1       9.091   8.390  19.719  0.00  0.00    +0.000 HD
BRANCH  21  25
ATOM     25  C   UNL     1       9.287  10.036  18.382  0.00  0.00    +0.000 C 
BRANCH  25  26
ATOM     26  C   UNL     1       8.860  11.176  19.337  0.00  0.00    +0.000 C 
BRANCH  26  27
ATOM     27  C   UNL     1       9.395  11.014  20.743  0.00  0.00    +0.000 C 
BRANCH  27  28
ATOM     28  C   UNL     1      10.458  12.076  21.000  0.00  0.00    +0.000 C 
BRANCH  28  29
ATOM     29  C   UNL     1      10.657  12.942  19.795  0.00  0.00    +0.000 C 
BRANCH  29  30
ATOM     30  C   UNL     1      11.040  14.321  20.282  0.00  0.00    +0.000 C 
BRANCH  30  31
ATOM     31  C   UNL     1      10.021  14.785  21.282  0.00  0.00    +0.000 C 
BRANCH  31  32
ATOM     32  C   UNL     1       9.185  15.872  20.657  0.00  0.00    +0.000 C 
BRANCH  32  33
ATOM     33  C   UNL     1       7.909  15.250  20.123  0.00  0.00    +0.000 C 
BRANCH  33  34
ATOM     34  C   UNL     1       7.615  15.840  18.769  0.00  0.00    +0.000 C 
BRANCH  34  36
ATOM     35  C   UNL     1       5.725  14.556  17.840  0.00  0.00    +0.000 C 
ATOM     36  C   UNL     1       7.229  14.732  17.810  0.00  0.00    +0.000 C 
ENDBRANCH  34  36
ENDBRANCH  33  34
ENDBRANCH  32  33
ENDBRANCH  31  32
ENDBRANCH  30  31
ENDBRANCH  29  30
ENDBRANCH  28  29
ENDBRANCH  27  28
ENDBRANCH  26  27
ENDBRANCH  25  26
ENDBRANCH  21  25
ENDBRANCH  20  22
ENDBRANCH   1  20
TORSDOF 19
ENDMDL
MODEL 7
REMARK VINA RESULT:      -6.1      4.273     10.271
REMARK  Name = 
REMARK  20 active torsions:
REMARK  status: ('A' for Active; 'I' for Inactive)
REMARK    1  A    between atoms: C_1  and  C_2
REMARK    2  A    between atoms: C_2  and  C_3
REMARK    3  A    between atoms: C_3  and  C_4
REMARK    4  A    between atoms: C_4  and  C_5
REMARK    5  A    between atoms: C_5  and  C_6
REMARK    6  A    between atoms: C_6  and  C_7
REMARK    7  A    between atoms: C_7  and  C_8
REMARK    8  A    between atoms: C_8  and  C_9
REMARK    9  A    between atoms: C_9  and  C_10
REMARK   10  A    between atoms: C_10  and  C_11
REMARK   11  A    between atoms: C_11  and  C_12
REMARK   12  A    between atoms: C_12  and  N_13
REMARK   13  A    between atoms: C_14  and  C_16
REMARK   14  A    between atoms: C_16  and  N_17
REMARK   15  A    between atoms: N_17  and  N_18
REMARK   16  A    between atoms: C_19  and  O_21
REMARK   17  A    between atoms: O_21  and  C_22
REMARK   18  A    between atoms: C_22  and  C_23
REMARK   19  A    between atoms: C_29  and  C_31
REMARK   20  A    between atoms: C_31  and  N_32
REMARK                            x       y       z     vdW  Elec       q    Type
REMARK                         _______ _______ _______ _____ _____    ______ ____
ROOT
ATOM      1  N   UNL     1      -1.115  11.924  19.729  0.00  0.00    +0.000 N 
ATOM      2  C   UNL     1      -2.395  12.425  19.915  0.00  0.00    +0.000 C 
ATOM      3  O   UNL     1      -3.264  12.199  19.084  0.00  0.00    +0.000 OA
ENDROOT
BRANCH   1   4
ATOM      4  N   UNL     1      -0.116  12.254  20.651  0.00  0.00    +0.000 N 
ATOM      5  C   UNL     1       0.700  13.356  20.606  0.00  0.00    +0.000 C 
ATOM      6  O   UNL     1       1.507  13.499  21.537  0.00  0.00    +0.000 OA
ATOM      7  H   UNL     1       0.050  11.622  21.440  0.00  0.00    +0.000 HD
BRANCH   5   8
ATOM      8  O   UNL     1       0.700  14.261  19.599  0.00  0.00    +0.000 OA
BRANCH   8   9
ATOM      9  C   UNL     1       1.552  15.369  19.505  0.00  0.00    +0.000 C 
BRANCH   9  10
ATOM     10  C   UNL     1       0.986  16.438  18.600  0.00  0.00    +0.000 A 
ATOM     11  C   UNL     1      -0.391  16.718  18.598  0.00  0.00    +0.000 A 
ATOM     12  C   UNL     1      -0.910  17.716  17.763  0.00  0.00    +0.000 A 
ATOM     13  C   UNL     1      -0.061  18.442  16.922  0.00  0.00    +0.000 A 
ATOM     14  C   UNL     1       1.311  18.183  16.926  0.00  0.00    +0.000 A 
ATOM     15  C   UNL     1       1.835  17.189  17.762  0.00  0.00    +0.000 A 
ENDBRANCH   9  10
ENDBRANCH   8   9
ENDBRANCH   5   8
ENDBRANCH   1   4
BRANCH   2  16
ATOM     16  C   UNL     1      -2.819  13.219  21.132  0.00  0.00    +0.000 C 
BRANCH  16  17
ATOM     17  N   UNL     1      -2.362  14.603  21.037  0.00  0.00    +0.000 NA
ATOM     18  H   UNL     1      -1.496  14.639  20.450  0.00  0.00    +0.000 HD
ATOM     19  H   UNL     1      -2.099  14.929  21.993  0.00  0.00    +0.000 HD
ENDBRANCH  16  17
ENDBRANCH   2  16
BRANCH   1  20
ATOM     20  C   UNL     1      -0.867  11.109  18.535  0.00  0.00    +0.000 C 
BRANCH  20  22
ATOM     21  N   UNL     1       1.207   9.956  17.737  0.00  0.00    +0.000 N 
ATOM     22  C   UNL     1       0.283  10.177  18.719  0.00  0.00    +0.000 C 
ATOM     23  O   UNL     1       0.370   9.628  19.805  0.00  0.00    +0.000 OA
ATOM     24  H   UNL     1       1.127  10.463  16.842  0.00  0.00    +0.000 HD
BRANCH  21  25
ATOM     25  C   UNL     1       2.379   9.114  17.914  0.00  0.00    +0.000 C 
BRANCH  25  26
ATOM     26  C   UNL     1       2.021   7.615  18.059  0.00  0.00    +0.000 C 
BRANCH  26  27
ATOM     27  C   UNL     1       3.216   6.741  18.370  0.00  0.00    +0.000 C 
BRANCH  27  28
ATOM     28  C   UNL     1       4.192   6.789  17.201  0.00  0.00    +0.000 C 
BRANCH  28  29
ATOM     29  C   UNL     1       4.727   5.426  16.890  0.00  0.00    +0.000 C 
BRANCH  29  30
ATOM     30  C   UNL     1       4.372   4.521  18.048  0.00  0.00    +0.000 C 
BRANCH  30  31
ATOM     31  C   UNL     1       3.785   3.248  17.509  0.00  0.00    +0.000 C 
BRANCH  31  32
ATOM     32  C   UNL     1       2.288   3.403  17.418  0.00  0.00    +0.000 C 
BRANCH  32  33
ATOM     33  C   UNL     1       1.645   2.453  18.410  0.00  0.00    +0.000 C 
BRANCH  33  34
ATOM     34  C   UNL     1       0.904   3.263  19.441  0.00  0.00    +0.000 C 
BRANCH  34  36
ATOM     35  C   UNL     1       2.086   4.566  21.171  0.00  0.00    +0.000 C 
ATOM     36  C   UNL     1       1.634   3.178  20.767  0.00  0.00    +0.000 C 
ENDBRANCH  34  36
ENDBRANCH  33  34
ENDBRANCH  32  33
ENDBRANCH  31  32
ENDBRANCH  30  31
ENDBRANCH  29  30
ENDBRANCH  28  29
ENDBRANCH  27  28
ENDBRANCH  26  27
ENDBRANCH  25  26
ENDBRANCH  21  25
ENDBRANCH  20  22
ENDBRANCH   1  20
TORSDOF 19
ENDMDL
MODEL 8
REMARK VINA RESULT:      -6.1      5.837      8.333
REMARK  Name = 
REMARK  20 active torsions:
REMARK  status: ('A' for Active; 'I' for Inactive)
REMARK    1  A    between atoms: C_1  and  C_2
REMARK    2  A    between atoms: C_2  and  C_3
REMARK    3  A    between atoms: C_3  and  C_4
REMARK    4  A    between atoms: C_4  and  C_5
REMARK    5  A    between atoms: C_5  and  C_6
REMARK    6  A    between atoms: C_6  and  C_7
REMARK    7  A    between atoms: C_7  and  C_8
REMARK    8  A    between atoms: C_8  and  C_9
REMARK    9  A    between atoms: C_9  and  C_10
REMARK   10  A    between atoms: C_10  and  C_11
REMARK   11  A    between atoms: C_11  and  C_12
REMARK   12  A    between atoms: C_12  and  N_13
REMARK   13  A    between atoms: C_14  and  C_16
REMARK   14  A    between atoms: C_16  and  N_17
REMARK   15  A    between atoms: N_17  and  N_18
REMARK   16  A    between atoms: C_19  and  O_21
REMARK   17  A    between atoms: O_21  and  C_22
REMARK   18  A    between atoms: C_22  and  C_23
REMARK   19  A    between atoms: C_29  and  C_31
REMARK   20  A    between atoms: C_31  and  N_32
REMARK                            x       y       z     vdW  Elec       q    Type
REMARK                         _______ _______ _______ _____ _____    ______ ____
ROOT
ATOM      1  N   UNL     1       6.128   6.287  16.958  0.00  0.00    +0.000 N 
ATOM      2  C   UNL     1       5.495   5.797  15.826  0.00  0.00    +0.000 C 
ATOM      3  O   UNL     1       5.325   6.528  14.859  0.00  0.00    +0.000 OA
ENDROOT
BRANCH   1   4
ATOM      4  N   UNL     1       6.247   5.460  18.081  0.00  0.00    +0.000 N 
ATOM      5  C   UNL     1       5.356   5.367  19.120  0.00  0.00    +0.000 C 
ATOM      6  O   UNL     1       5.615   4.548  20.015  0.00  0.00    +0.000 OA
ATOM      7  H   UNL     1       7.077   4.865  18.165  0.00  0.00    +0.000 HD
BRANCH   5   8
ATOM      8  O   UNL     1       4.247   6.133  19.241  0.00  0.00    +0.000 OA
BRANCH   8   9
ATOM      9  C   UNL     1       3.075   5.988  18.487  0.00  0.00    +0.000 C 
BRANCH   9  10
ATOM     10  C   UNL     1       2.257   4.802  18.942  0.00  0.00    +0.000 A 
ATOM     11  C   UNL     1       1.883   3.799  18.031  0.00  0.00    +0.000 A 
ATOM     12  C   UNL     1       1.131   2.698  18.461  0.00  0.00    +0.000 A 
ATOM     13  C   UNL     1       0.745   2.588  19.800  0.00  0.00    +0.000 A 
ATOM     14  C   UNL     1       1.123   3.571  20.717  0.00  0.00    +0.000 A 
ATOM     15  C   UNL     1       1.878   4.671  20.293  0.00  0.00    +0.000 A 
ENDBRANCH   9  10
ENDBRANCH   8   9
ENDBRANCH   5   8
ENDBRANCH   1   4
BRANCH   2  16
ATOM     16  C   UNL     1       5.022   4.367  15.679  0.00  0.00    +0.000 C 
BRANCH  16  17
ATOM     17  N   UNL     1       6.137   3.432  15.805  0.00  0.00    +0.000 NA
ATOM     18  H   UNL     1       6.024   2.666  15.100  0.00  0.00    +0.000 HD
ATOM     19  H   UNL     1       6.091   2.990  16.750  0.00  0.00    +0.000 HD
ENDBRANCH  16  17
ENDBRANCH   2  16
BRANCH   1  20
ATOM     20  C   UNL     1       6.599   7.676  16.932  0.00  0.00    +0.000 C 
BRANCH  20  22
ATOM     21  N   UNL     1       8.158   9.161  18.210  0.00  0.00    +0.000 N 
ATOM     22  C   UNL     1       7.725   7.906  17.881  0.00  0.00    +0.000 C 
ATOM     23  O   UNL     1       8.237   6.913  18.371  0.00  0.00    +0.000 OA
ATOM     24  H   UNL     1       7.681   9.983  17.808  0.00  0.00    +0.000 HD
BRANCH  21  25
ATOM     25  C   UNL     1       9.200   9.419  19.188  0.00  0.00    +0.000 C 
BRANCH  25  26
ATOM     26  C   UNL     1       9.636  10.904  19.220  0.00  0.00    +0.000 C 
BRANCH  26  27
ATOM     27  C   UNL     1       9.936  11.471  17.851  0.00  0.00    +0.000 C 
BRANCH  27  28
ATOM     28  C   UNL     1      11.426  11.771  17.747  0.00  0.00    +0.000 C 
BRANCH  28  29
ATOM     29  C   UNL     1      11.662  13.173  17.277  0.00  0.00    +0.000 C 
BRANCH  29  30
ATOM     30  C   UNL     1      10.723  14.076  18.044  0.00  0.00    +0.000 C 
BRANCH  30  31
ATOM     31  C   UNL     1      10.645  15.403  17.347  0.00  0.00    +0.000 C 
BRANCH  31  32
ATOM     32  C   UNL     1       9.734  16.312  18.131  0.00  0.00    +0.000 C 
BRANCH  32  33
ATOM     33  C   UNL     1       8.760  15.456  18.917  0.00  0.00    +0.000 C 
BRANCH  33  34
ATOM     34  C   UNL     1       7.374  16.021  18.744  0.00  0.00    +0.000 C 
BRANCH  34  36
ATOM     35  C   UNL     1       7.131  13.830  17.637  0.00  0.00    +0.000 C 
ATOM     36  C   UNL     1       6.658  15.269  17.641  0.00  0.00    +0.000 C 
ENDBRANCH  34  36
ENDBRANCH  33  34
ENDBRANCH  32  33
ENDBRANCH  31  32
ENDBRANCH  30  31
ENDBRANCH  29  30
ENDBRANCH  28  29
ENDBRANCH  27  28
ENDBRANCH  26  27
ENDBRANCH  25  26
ENDBRANCH  21  25
ENDBRANCH  20  22
ENDBRANCH   1  20
TORSDOF 19
ENDMDL
MODEL 9
REMARK VINA RESULT:      -6.1      5.950      8.828
REMARK  Name = 
REMARK  20 active torsions:
REMARK  status: ('A' for Active; 'I' for Inactive)
REMARK    1  A    between atoms: C_1  and  C_2
REMARK    2  A    between atoms: C_2  and  C_3
REMARK    3  A    between atoms: C_3  and  C_4
REMARK    4  A    between atoms: C_4  and  C_5
REMARK    5  A    between atoms: C_5  and  C_6
REMARK    6  A    between atoms: C_6  and  C_7
REMARK    7  A    between atoms: C_7  and  C_8
REMARK    8  A    between atoms: C_8  and  C_9
REMARK    9  A    between atoms: C_9  and  C_10
REMARK   10  A    between atoms: C_10  and  C_11
REMARK   11  A    between atoms: C_11  and  C_12
REMARK   12  A    between atoms: C_12  and  N_13
REMARK   13  A    between atoms: C_14  and  C_16
REMARK   14  A    between atoms: C_16  and  N_17
REMARK   15  A    between atoms: N_17  and  N_18
REMARK   16  A    between atoms: C_19  and  O_21
REMARK   17  A    between atoms: O_21  and  C_22
REMARK   18  A    between atoms: C_22  and  C_23
REMARK   19  A    between atoms: C_29  and  C_31
REMARK   20  A    between atoms: C_31  and  N_32
REMARK                            x       y       z     vdW  Elec       q    Type
REMARK                         _______ _______ _______ _____ _____    ______ ____
ROOT
ATOM      1  N   UNL     1       5.639   5.806  16.942  0.00  0.00    +0.000 N 
ATOM      2  C   UNL     1       5.366   5.615  15.596  0.00  0.00    +0.000 C 
ATOM      3  O   UNL     1       5.211   6.583  14.862  0.00  0.00    +0.000 OA
ENDROOT
BRANCH   1   4
ATOM      4  N   UNL     1       5.739   4.690  17.779  0.00  0.00    +0.000 N 
ATOM      5  C   UNL     1       5.011   4.461  18.919  0.00  0.00    +0.000 C 
ATOM      6  O   UNL     1       5.214   3.392  19.514  0.00  0.00    +0.000 OA
ATOM      7  H   UNL     1       6.422   3.963  17.547  0.00  0.00    +0.000 HD
BRANCH   5   8
ATOM      8  O   UNL     1       4.125   5.340  19.444  0.00  0.00    +0.000 OA
BRANCH   8   9
ATOM      9  C   UNL     1       2.768   5.420  19.108  0.00  0.00    +0.000 C 
BRANCH   9  10
ATOM     10  C   UNL     1       2.279   6.849  19.082  0.00  0.00    +0.000 A 
ATOM     11  C   UNL     1       1.836   7.476  20.260  0.00  0.00    +0.000 A 
ATOM     12  C   UNL     1       1.392   8.804  20.231  0.00  0.00    +0.000 A 
ATOM     13  C   UNL     1       1.382   9.518  19.029  0.00  0.00    +0.000 A 
ATOM     14  C   UNL     1       1.833   8.911  17.856  0.00  0.00    +0.000 A 
ATOM     15  C   UNL     1       2.283   7.585  17.880  0.00  0.00    +0.000 A 
ENDBRANCH   9  10
ENDBRANCH   8   9
ENDBRANCH   5   8
ENDBRANCH   1   4
BRANCH   2  16
ATOM     16  C   UNL     1       5.285   4.255  14.938  0.00  0.00    +0.000 C 
BRANCH  16  17
ATOM     17  N   UNL     1       6.610   3.650  14.826  0.00  0.00    +0.000 NA
ATOM     18  H   UNL     1       7.307   4.394  14.588  0.00  0.00    +0.000 HD
ATOM     19  H   UNL     1       6.597   2.975  14.029  0.00  0.00    +0.000 HD
ENDBRANCH  16  17
ENDBRANCH   2  16
BRANCH   1  20
ATOM     20  C   UNL     1       5.761   7.185  17.427  0.00  0.00    +0.000 C 
BRANCH  20  22
ATOM     21  N   UNL     1       7.632   8.797  17.836  0.00  0.00    +0.000 N 
ATOM     22  C   UNL     1       7.154   7.516  17.841  0.00  0.00    +0.000 C 
ATOM     23  O   UNL     1       7.850   6.583  18.205  0.00  0.00    +0.000 OA
ATOM     24  H   UNL     1       7.008   9.570  17.559  0.00  0.00    +0.000 HD
BRANCH  21  25
ATOM     25  C   UNL     1       8.959   9.159  18.306  0.00  0.00    +0.000 C 
BRANCH  25  26
ATOM     26  C   UNL     1       9.007  10.576  18.926  0.00  0.00    +0.000 C 
BRANCH  26  27
ATOM     27  C   UNL     1      10.413  11.080  19.164  0.00  0.00    +0.000 C 
BRANCH  27  28
ATOM     28  C   UNL     1      10.913  11.785  17.909  0.00  0.00    +0.000 C 
BRANCH  28  29
ATOM     29  C   UNL     1       9.992  12.898  17.514  0.00  0.00    +0.000 C 
BRANCH  29  30
ATOM     30  C   UNL     1      10.809  14.169  17.456  0.00  0.00    +0.000 C 
BRANCH  30  31
ATOM     31  C   UNL     1      12.199  13.877  17.943  0.00  0.00    +0.000 C 
BRANCH  31  32
ATOM     32  C   UNL     1      12.332  14.373  19.360  0.00  0.00    +0.000 C 
BRANCH  32  33
ATOM     33  C   UNL     1      11.115  15.215  19.692  0.00  0.00    +0.000 C 
BRANCH  33  34
ATOM     34  C   UNL     1      10.559  14.758  21.015  0.00  0.00    +0.000 C 
BRANCH  34  36
ATOM     35  C   UNL     1       8.605  13.322  21.465  0.00  0.00    +0.000 C 
ATOM     36  C   UNL     1       9.049  14.663  20.920  0.00  0.00    +0.000 C 
ENDBRANCH  34  36
ENDBRANCH  33  34
ENDBRANCH  32  33
ENDBRANCH  31  32
ENDBRANCH  30  31
ENDBRANCH  29  30
ENDBRANCH  28  29
ENDBRANCH  27  28
ENDBRANCH  26  27
ENDBRANCH  25  26
ENDBRANCH  21  25
ENDBRANCH  20  22
ENDBRANCH   1  20
TORSDOF 19
ENDMDL
