MODEL 1
REMARK VINA RESULT:      -6.6      0.000      0.000
REMARK  Name = 
REMARK  2 active torsions:
REMARK  status: ('A' for Active; 'I' for Inactive)
REMARK    1  A    between atoms: N_4  and  C_5
REMARK    2  A    between atoms: C_5  and  C_6
REMARK                            x       y       z     vdW  Elec       q    Type
REMARK                         _______ _______ _______ _____ _____    ______ ____
ROOT
ATOM      1  C   UNL     1       5.644   4.391  17.408  0.00  0.00    +0.000 C 
ENDROOT
BRANCH   1   2
ATOM      2  C   UNL     1       4.337   4.118  18.090  0.00  0.00    +0.000 A 
ATOM      3  C   UNL     1       3.116   4.399  17.424  0.00  0.00    +0.000 A 
ATOM      4  C   UNL     1       1.883   4.156  18.055  0.00  0.00    +0.000 A 
ATOM      5  C   UNL     1       1.911   3.616  19.337  0.00  0.00    +0.000 A 
ATOM      6  C   UNL     1       3.066   3.335  19.974  0.00  0.00    +0.000 A 
ATOM      7  C   UNL     1       4.311   3.575  19.396  0.00  0.00    +0.000 A 
ATOM      8  O   UNL     1       2.791   2.819  21.175  0.00  0.00    +0.000 OA
ATOM      9  C   UNL     1       1.404   2.777  21.306  0.00  0.00    +0.000 C 
ATOM     10  O   UNL     1       0.881   3.293  20.123  0.00  0.00    +0.000 OA
ENDBRANCH   1   2
BRANCH   1  14
ATOM     11  N   UNL     1       6.307   3.563  13.855  0.00  0.00    +0.000 N 
ATOM     12  C   UNL     1       6.396   4.222  15.105  0.00  0.00    +0.000 C 
ATOM     13  N   UNL     1       7.358   5.259  15.278  0.00  0.00    +0.000 N 
ATOM     14  N   UNL     1       5.615   3.850  16.067  0.00  0.00    +0.000 NA
ATOM     15  H   UNL     1       6.934   3.825  13.080  0.00  0.00    +0.000 HD
ATOM     16  H   UNL     1       5.644   2.785  13.719  0.00  0.00    +0.000 HD
ATOM     17  H   UNL     1       7.971   5.524  14.493  0.00  0.00    +0.000 HD
ATOM     18  H   UNL     1       7.465   5.768  16.165  0.00  0.00    +0.000 HD
ENDBRANCH   1  14
TORSDOF 2
ENDMDL
MODEL 2
REMARK VINA RESULT:      -6.6      1.321      1.541
REMARK  Name = 
REMARK  2 active torsions:
REMARK  status: ('A' for Active; 'I' for Inactive)
REMARK    1  A    between atoms: N_4  and  C_5
REMARK    2  A    between atoms: C_5  and  C_6
REMARK                            x       y       z     vdW  Elec       q    Type
REMARK                         _______ _______ _______ _____ _____    ______ ____
ROOT
ATOM      1  C   UNL     1       5.061   3.776  16.654  0.00  0.00    +0.000 C 
ENDROOT
BRANCH   1   2
ATOM      2  C   UNL     1       3.947   3.709  17.657  0.00  0.00    +0.000 A 
ATOM      3  C   UNL     1       2.651   4.171  17.311  0.00  0.00    +0.000 A 
ATOM      4  C   UNL     1       1.601   4.122  18.244  0.00  0.00    +0.000 A 
ATOM      5  C   UNL     1       1.878   3.589  19.499  0.00  0.00    +0.000 A 
ATOM      6  C   UNL     1       3.104   3.138  19.834  0.00  0.00    +0.000 A 
ATOM      7  C   UNL     1       4.179   3.182  18.949  0.00  0.00    +0.000 A 
ATOM      8  O   UNL     1       3.075   2.675  21.087  0.00  0.00    +0.000 OA
ATOM      9  C   UNL     1       1.778   2.846  21.566  0.00  0.00    +0.000 C 
ATOM     10  O   UNL     1       1.050   3.431  20.534  0.00  0.00    +0.000 OA
ENDBRANCH   1   2
BRANCH   1  14
ATOM     11  N   UNL     1       7.368   6.677  16.763  0.00  0.00    +0.000 N 
ATOM     12  C   UNL     1       6.911   5.338  16.833  0.00  0.00    +0.000 C 
ATOM     13  N   UNL     1       7.853   4.293  17.056  0.00  0.00    +0.000 N 
ATOM     14  N   UNL     1       5.650   5.096  16.672  0.00  0.00    +0.000 NA
ATOM     15  H   UNL     1       8.370   6.894  16.866  0.00  0.00    +0.000 HD
ATOM     16  H   UNL     1       6.709   7.445  16.566  0.00  0.00    +0.000 HD
ATOM     17  H   UNL     1       8.852   4.520  17.172  0.00  0.00    +0.000 HD
ATOM     18  H   UNL     1       7.575   3.305  17.114  0.00  0.00    +0.000 HD
ENDBRANCH   1  14
TORSDOF 2
ENDMDL
MODEL 3
REMARK VINA RESULT:      -6.6      3.853      5.657
REMARK  Name = 
REMARK  2 active torsions:
REMARK  status: ('A' for Active; 'I' for Inactive)
REMARK    1  A    between atoms: N_4  and  C_5
REMARK    2  A    between atoms: C_5  and  C_6
REMARK                            x       y       z     vdW  Elec       q    Type
REMARK                         _______ _______ _______ _____ _____    ______ ____
ROOT
ATOM      1  C   UNL     1       2.612   2.929  18.538  0.00  0.00    +0.000 C 
ENDROOT
BRANCH   1   2
ATOM      2  C   UNL     1       3.899   3.640  18.243  0.00  0.00    +0.000 A 
ATOM      3  C   UNL     1       4.317   3.825  16.900  0.00  0.00    +0.000 A 
ATOM      4  C   UNL     1       5.527   4.482  16.611  0.00  0.00    +0.000 A 
ATOM      5  C   UNL     1       6.276   4.954  17.683  0.00  0.00    +0.000 A 
ATOM      6  C   UNL     1       5.882   4.792  18.963  0.00  0.00    +0.000 A 
ATOM      7  C   UNL     1       4.701   4.134  19.299  0.00  0.00    +0.000 A 
ATOM      8  O   UNL     1       6.783   5.352  19.775  0.00  0.00    +0.000 OA
ATOM      9  C   UNL     1       7.793   5.885  18.976  0.00  0.00    +0.000 C 
ATOM     10  O   UNL     1       7.439   5.610  17.658  0.00  0.00    +0.000 OA
ENDBRANCH   1   2
BRANCH   1  14
ATOM     11  N   UNL     1       1.637   2.476  22.087  0.00  0.00    +0.000 N 
ATOM     12  C   UNL     1       1.602   2.934  20.746  0.00  0.00    +0.000 C 
ATOM     13  N   UNL     1       0.510   3.740  20.314  0.00  0.00    +0.000 N 
ATOM     14  N   UNL     1       2.556   2.588  19.942  0.00  0.00    +0.000 NA
ATOM     15  H   UNL     1       0.878   2.718  22.741  0.00  0.00    +0.000 HD
ATOM     16  H   UNL     1       2.398   1.862  22.411  0.00  0.00    +0.000 HD
ATOM     17  H   UNL     1      -0.237   3.988  20.979  0.00  0.00    +0.000 HD
ATOM     18  H   UNL     1       0.436   4.096  19.353  0.00  0.00    +0.000 HD
ENDBRANCH   1  14
TORSDOF 2
ENDMDL
MODEL 4
REMARK VINA RESULT:      -6.5      4.305      5.711
REMARK  Name = 
REMARK  2 active torsions:
REMARK  status: ('A' for Active; 'I' for Inactive)
REMARK    1  A    between atoms: N_4  and  C_5
REMARK    2  A    between atoms: C_5  and  C_6
REMARK                            x       y       z     vdW  Elec       q    Type
REMARK                         _______ _______ _______ _____ _____    ______ ____
ROOT
ATOM      1  C   UNL     1       2.314   5.419  20.059  0.00  0.00    +0.000 C 
ENDROOT
BRANCH   1   2
ATOM      2  C   UNL     1       3.429   5.095  19.110  0.00  0.00    +0.000 A 
ATOM      3  C   UNL     1       3.136   4.687  17.783  0.00  0.00    +0.000 A 
ATOM      4  C   UNL     1       4.172   4.372  16.886  0.00  0.00    +0.000 A 
ATOM      5  C   UNL     1       5.480   4.493  17.342  0.00  0.00    +0.000 A 
ATOM      6  C   UNL     1       5.769   4.890  18.599  0.00  0.00    +0.000 A 
ATOM      7  C   UNL     1       4.777   5.196  19.528  0.00  0.00    +0.000 A 
ATOM      8  O   UNL     1       7.095   4.927  18.754  0.00  0.00    +0.000 OA
ATOM      9  C   UNL     1       7.669   4.533  17.548  0.00  0.00    +0.000 C 
ATOM     10  O   UNL     1       6.616   4.263  16.679  0.00  0.00    +0.000 OA
ENDBRANCH   1   2
BRANCH   1  14
ATOM     11  N   UNL     1       1.608   2.474  22.199  0.00  0.00    +0.000 N 
ATOM     12  C   UNL     1       1.497   3.400  21.132  0.00  0.00    +0.000 C 
ATOM     13  N   UNL     1       0.551   3.156  20.096  0.00  0.00    +0.000 N 
ATOM     14  N   UNL     1       2.276   4.434  21.116  0.00  0.00    +0.000 NA
ATOM     15  H   UNL     1       1.016   1.631  22.223  0.00  0.00    +0.000 HD
ATOM     16  H   UNL     1       2.311   2.611  22.941  0.00  0.00    +0.000 HD
ATOM     17  H   UNL     1      -0.047   2.318  20.135  0.00  0.00    +0.000 HD
ATOM     18  H   UNL     1       0.432   3.795  19.299  0.00  0.00    +0.000 HD
ENDBRANCH   1  14
TORSDOF 2
ENDMDL
MODEL 5
REMARK VINA RESULT:      -6.5      1.893      2.433
REMARK  Name = 
REMARK  2 active torsions:
REMARK  status: ('A' for Active; 'I' for Inactive)
REMARK    1  A    between atoms: N_4  and  C_5
REMARK    2  A    between atoms: C_5  and  C_6
REMARK                            x       y       z     vdW  Elec       q    Type
REMARK                         _______ _______ _______ _____ _____    ______ ____
ROOT
ATOM      1  C   UNL     1       5.760   4.483  17.590  0.00  0.00    +0.000 C 
ENDROOT
BRANCH   1   2
ATOM      2  C   UNL     1       4.415   4.131  18.152  0.00  0.00    +0.000 A 
ATOM      3  C   UNL     1       3.272   4.128  17.311  0.00  0.00    +0.000 A 
ATOM      4  C   UNL     1       2.004   3.808  17.827  0.00  0.00    +0.000 A 
ATOM      5  C   UNL     1       1.921   3.480  19.177  0.00  0.00    +0.000 A 
ATOM      6  C   UNL     1       3.003   3.471  19.982  0.00  0.00    +0.000 A 
ATOM      7  C   UNL     1       4.277   3.797  19.520  0.00  0.00    +0.000 A 
ATOM      8  O   UNL     1       2.631   3.111  21.213  0.00  0.00    +0.000 OA
ATOM      9  C   UNL     1       1.256   2.888  21.188  0.00  0.00    +0.000 C 
ATOM     10  O   UNL     1       0.841   3.136  19.882  0.00  0.00    +0.000 OA
ENDBRANCH   1   2
BRANCH   1  14
ATOM     11  N   UNL     1       8.349   5.539  20.025  0.00  0.00    +0.000 N 
ATOM     12  C   UNL     1       7.488   5.575  18.901  0.00  0.00    +0.000 C 
ATOM     13  N   UNL     1       7.462   6.739  18.081  0.00  0.00    +0.000 N 
ATOM     14  N   UNL     1       6.729   4.554  18.661  0.00  0.00    +0.000 NA
ATOM     15  H   UNL     1       8.946   6.348  20.252  0.00  0.00    +0.000 HD
ATOM     16  H   UNL     1       8.357   4.722  20.654  0.00  0.00    +0.000 HD
ATOM     17  H   UNL     1       8.073   7.538  18.307  0.00  0.00    +0.000 HD
ATOM     18  H   UNL     1       6.855   6.817  17.255  0.00  0.00    +0.000 HD
ENDBRANCH   1  14
TORSDOF 2
ENDMDL
MODEL 6
REMARK VINA RESULT:      -6.4      3.710      5.444
REMARK  Name = 
REMARK  2 active torsions:
REMARK  status: ('A' for Active; 'I' for Inactive)
REMARK    1  A    between atoms: N_4  and  C_5
REMARK    2  A    between atoms: C_5  and  C_6
REMARK                            x       y       z     vdW  Elec       q    Type
REMARK                         _______ _______ _______ _____ _____    ______ ____
ROOT
ATOM      1  C   UNL     1       2.236   4.249  17.659  0.00  0.00    +0.000 C 
ENDROOT
BRANCH   1   2
ATOM      2  C   UNL     1       3.726   4.420  17.687  0.00  0.00    +0.000 A 
ATOM      3  C   UNL     1       4.495   4.132  16.530  0.00  0.00    +0.000 A 
ATOM      4  C   UNL     1       5.894   4.280  16.545  0.00  0.00    +0.000 A 
ATOM      5  C   UNL     1       6.481   4.734  17.722  0.00  0.00    +0.000 A 
ATOM      6  C   UNL     1       5.757   5.020  18.823  0.00  0.00    +0.000 A 
ATOM      7  C   UNL     1       4.372   4.872  18.861  0.00  0.00    +0.000 A 
ATOM      8  O   UNL     1       6.576   5.442  19.790  0.00  0.00    +0.000 OA
ATOM      9  C   UNL     1       7.873   5.416  19.282  0.00  0.00    +0.000 C 
ATOM     10  O   UNL     1       7.773   4.959  17.971  0.00  0.00    +0.000 OA
ENDBRANCH   1   2
BRANCH   1  14
ATOM     11  N   UNL     1       0.873   2.997  20.873  0.00  0.00    +0.000 N 
ATOM     12  C   UNL     1       1.266   3.015  19.512  0.00  0.00    +0.000 C 
ATOM     13  N   UNL     1       1.152   1.823  18.740  0.00  0.00    +0.000 N 
ATOM     14  N   UNL     1       1.739   4.110  19.010  0.00  0.00    +0.000 NA
ATOM     15  H   UNL     1       0.515   2.132  21.303  0.00  0.00    +0.000 HD
ATOM     16  H   UNL     1       0.981   3.838  21.460  0.00  0.00    +0.000 HD
ATOM     17  H   UNL     1       0.780   0.965  19.174  0.00  0.00    +0.000 HD
ATOM     18  H   UNL     1       1.425   1.781  17.749  0.00  0.00    +0.000 HD
ENDBRANCH   1  14
TORSDOF 2
ENDMDL
MODEL 7
REMARK VINA RESULT:      -6.4      2.302      2.884
REMARK  Name = 
REMARK  2 active torsions:
REMARK  status: ('A' for Active; 'I' for Inactive)
REMARK    1  A    between atoms: N_4  and  C_5
REMARK    2  A    between atoms: C_5  and  C_6
REMARK                            x       y       z     vdW  Elec       q    Type
REMARK                         _______ _______ _______ _____ _____    ______ ____
ROOT
ATOM      1  C   UNL     1       6.265   4.648  17.211  0.00  0.00    +0.000 C 
ENDROOT
BRANCH   1   2
ATOM      2  C   UNL     1       4.819   4.470  17.567  0.00  0.00    +0.000 A 
ATOM      3  C   UNL     1       3.957   5.595  17.621  0.00  0.00    +0.000 A 
ATOM      4  C   UNL     1       2.602   5.442  17.963  0.00  0.00    +0.000 A 
ATOM      5  C   UNL     1       2.143   4.155  18.224  0.00  0.00    +0.000 A 
ATOM      6  C   UNL     1       2.953   3.078  18.165  0.00  0.00    +0.000 A 
ATOM      7  C   UNL     1       4.306   3.181  17.848  0.00  0.00    +0.000 A 
ATOM      8  O   UNL     1       2.246   1.981  18.448  0.00  0.00    +0.000 OA
ATOM      9  C   UNL     1       0.936   2.381  18.702  0.00  0.00    +0.000 C 
ATOM     10  O   UNL     1       0.910   3.764  18.554  0.00  0.00    +0.000 OA
ENDBRANCH   1   2
BRANCH   1  14
ATOM     11  N   UNL     1       8.420   5.427  20.127  0.00  0.00    +0.000 N 
ATOM     12  C   UNL     1       7.721   5.598  18.906  0.00  0.00    +0.000 C 
ATOM     13  N   UNL     1       7.734   6.873  18.270  0.00  0.00    +0.000 N 
ATOM     14  N   UNL     1       7.071   4.595  18.410  0.00  0.00    +0.000 NA
ATOM     15  H   UNL     1       8.926   6.216  20.554  0.00  0.00    +0.000 HD
ATOM     16  H   UNL     1       8.393   4.524  20.623  0.00  0.00    +0.000 HD
ATOM     17  H   UNL     1       8.255   7.653  18.697  0.00  0.00    +0.000 HD
ATOM     18  H   UNL     1       7.243   7.051  17.385  0.00  0.00    +0.000 HD
ENDBRANCH   1  14
TORSDOF 2
ENDMDL
MODEL 8
REMARK VINA RESULT:      -6.4      1.124      1.418
REMARK  Name = 
REMARK  2 active torsions:
REMARK  status: ('A' for Active; 'I' for Inactive)
REMARK    1  A    between atoms: N_4  and  C_5
REMARK    2  A    between atoms: C_5  and  C_6
REMARK                            x       y       z     vdW  Elec       q    Type
REMARK                         _______ _______ _______ _____ _____    ______ ____
ROOT
ATOM      1  C   UNL     1       4.615   4.314  16.687  0.00  0.00    +0.000 C 
ENDROOT
BRANCH   1   2
ATOM      2  C   UNL     1       3.562   3.965  17.698  0.00  0.00    +0.000 A 
ATOM      3  C   UNL     1       2.189   4.073  17.359  0.00  0.00    +0.000 A 
ATOM      4  C   UNL     1       1.193   3.759  18.301  0.00  0.00    +0.000 A 
ATOM      5  C   UNL     1       1.606   3.324  19.556  0.00  0.00    +0.000 A 
ATOM      6  C   UNL     1       2.909   3.208  19.884  0.00  0.00    +0.000 A 
ATOM      7  C   UNL     1       3.931   3.524  18.991  0.00  0.00    +0.000 A 
ATOM      8  O   UNL     1       3.009   2.761  21.139  0.00  0.00    +0.000 OA
ATOM      9  C   UNL     1       1.715   2.592  21.627  0.00  0.00    +0.000 C 
ATOM     10  O   UNL     1       0.853   2.962  20.598  0.00  0.00    +0.000 OA
ENDBRANCH   1   2
BRANCH   1  14
ATOM     11  N   UNL     1       8.232   4.314  17.502  0.00  0.00    +0.000 N 
ATOM     12  C   UNL     1       7.022   4.601  16.824  0.00  0.00    +0.000 C 
ATOM     13  N   UNL     1       7.041   5.495  15.715  0.00  0.00    +0.000 N 
ATOM     14  N   UNL     1       5.925   4.058  17.243  0.00  0.00    +0.000 NA
ATOM     15  H   UNL     1       9.116   4.752  17.202  0.00  0.00    +0.000 HD
ATOM     16  H   UNL     1       8.236   3.699  18.329  0.00  0.00    +0.000 HD
ATOM     17  H   UNL     1       7.931   5.917  15.413  0.00  0.00    +0.000 HD
ATOM     18  H   UNL     1       6.191   5.738  15.189  0.00  0.00    +0.000 HD
ENDBRANCH   1  14
TORSDOF 2
ENDMDL
MODEL 9
REMARK VINA RESULT:      -6.3      2.277      2.823
REMARK  Name = 
REMARK  2 active torsions:
REMARK  status: ('A' for Active; 'I' for Inactive)
REMARK    1  A    between atoms: N_4  and  C_5
REMARK    2  A    between atoms: C_5  and  C_6
REMARK                            x       y       z     vdW  Elec       q    Type
REMARK                         _______ _______ _______ _____ _____    ______ ____
ROOT
ATOM      1  C   UNL     1       5.696   5.574  16.435  0.00  0.00    +0.000 C 
ENDROOT
BRANCH   1   2
ATOM      2  C   UNL     1       4.435   5.118  17.108  0.00  0.00    +0.000 A 
ATOM      3  C   UNL     1       3.589   6.063  17.745  0.00  0.00    +0.000 A 
ATOM      4  C   UNL     1       2.409   5.647  18.387  0.00  0.00    +0.000 A 
ATOM      5  C   UNL     1       2.100   4.291  18.356  0.00  0.00    +0.000 A 
ATOM      6  C   UNL     1       2.894   3.387  17.744  0.00  0.00    +0.000 A 
ATOM      7  C   UNL     1       4.080   3.749  17.110  0.00  0.00    +0.000 A 
ATOM      8  O   UNL     1       2.349   2.174  17.861  0.00  0.00    +0.000 OA
ATOM      9  C   UNL     1       1.164   2.314  18.581  0.00  0.00    +0.000 C 
ATOM     10  O   UNL     1       1.042   3.668  18.880  0.00  0.00    +0.000 OA
ENDBRANCH   1   2
BRANCH   1  14
ATOM     11  N   UNL     1       8.214   6.624  18.946  0.00  0.00    +0.000 N 
ATOM     12  C   UNL     1       7.442   5.781  18.110  0.00  0.00    +0.000 C 
ATOM     13  N   UNL     1       7.723   4.385  18.079  0.00  0.00    +0.000 N 
ATOM     14  N   UNL     1       6.512   6.305  17.378  0.00  0.00    +0.000 NA
ATOM     15  H   UNL     1       8.975   6.234  19.521  0.00  0.00    +0.000 HD
ATOM     16  H   UNL     1       8.052   7.642  18.957  0.00  0.00    +0.000 HD
ATOM     17  H   UNL     1       8.476   4.001  18.668  0.00  0.00    +0.000 HD
ATOM     18  H   UNL     1       7.194   3.730  17.489  0.00  0.00    +0.000 HD
ENDBRANCH   1  14
TORSDOF 2
ENDMDL
