MODEL 1
REMARK VINA RESULT:      -7.3      0.000      0.000
REMARK  Name = 
REMARK  9 active torsions:
REMARK  status: ('A' for Active; 'I' for Inactive)
REMARK    1  A    between atoms: C_1  and  C_2
REMARK    2  A    between atoms: C_5  and  S_6
REMARK    3  A    between atoms: S_6  and  C_9
REMARK    4  A    between atoms: C_9  and  C_10
REMARK    5  A    between atoms: C_10  and  C_11
REMARK    6  A    between atoms: C_10  and  N_19
REMARK    7  A    between atoms: C_11  and  N_12
REMARK    8  A    between atoms: N_15  and  C_16
REMARK    9  A    between atoms: N_22  and  C_23
REMARK                            x       y       z     vdW  Elec       q    Type
REMARK                         _______ _______ _______ _____ _____    ______ ____
ROOT
ATOM      1  C   UNL     1       3.396   6.228  18.333  0.00  0.00    +0.000 C 
ENDROOT
BRANCH   1   2
ATOM      2  N   UNL     1       2.253   5.379  18.764  0.00  0.00    +0.000 NA
ATOM      3  C   UNL     1       2.272   4.980  20.180  0.00  0.00    +0.000 C 
ATOM      4  C   UNL     1       1.092   4.074  20.614  0.00  0.00    +0.000 C 
ATOM      5  N   UNL     1       0.871   2.903  19.742  0.00  0.00    +0.000 NA
ATOM      6  C   UNL     1       1.904   1.884  19.932  0.00  0.00    +0.000 C 
ATOM      7  C   UNL     1       0.809   3.366  18.342  0.00  0.00    +0.000 C 
ATOM      8  C   UNL     1       2.023   4.215  17.894  0.00  0.00    +0.000 C 
ENDBRANCH   1   2
BRANCH   1   9
ATOM      9  C   UNL     1       4.717   6.127  19.161  0.00  0.00    +0.000 C 
BRANCH   9  10
ATOM     10  S   UNL     1       5.830   4.790  18.718  0.00  0.00    +0.000 S 
ATOM     11  O   UNL     1       5.270   3.521  19.135  0.00  0.00    +0.000 OA
ATOM     12  O   UNL     1       7.179   5.161  19.092  0.00  0.00    +0.000 OA
BRANCH  10  17
ATOM     13  C   UNL     1       6.662   3.861  12.823  0.00  0.00    +0.000 C 
ATOM     14  C   UNL     1       6.340   4.240  14.237  0.00  0.00    +0.000 A 
ATOM     15  C   UNL     1       7.131   5.167  14.927  0.00  0.00    +0.000 A 
ATOM     16  C   UNL     1       6.902   5.421  16.279  0.00  0.00    +0.000 A 
ATOM     17  C   UNL     1       5.868   4.752  16.938  0.00  0.00    +0.000 A 
ATOM     18  C   UNL     1       5.035   3.865  16.249  0.00  0.00    +0.000 A 
ATOM     19  C   UNL     1       5.275   3.613  14.900  0.00  0.00    +0.000 A 
ENDBRANCH  10  17
ENDBRANCH   9  10
ENDBRANCH   1   9
BRANCH   1  20
ATOM     20  C   UNL     1       3.009   7.716  18.021  0.00  0.00    +0.000 C 
BRANCH  20  21
ATOM     21  N   UNL     1       1.844   8.361  18.627  0.00  0.00    +0.000 NA
ATOM     22  C   UNL     1       1.422   9.605  17.973  0.00  0.00    +0.000 C 
ATOM     23  C   UNL     1       0.096  10.166  18.551  0.00  0.00    +0.000 C 
ATOM     24  N   UNL     1      -0.014  10.204  20.026  0.00  0.00    +0.000 NA
ATOM     25  C   UNL     1       0.710  11.338  20.592  0.00  0.00    +0.000 C 
ATOM     26  C   UNL     1       0.479   8.926  20.582  0.00  0.00    +0.000 C 
ATOM     27  C   UNL     1       1.881   8.509  20.079  0.00  0.00    +0.000 C 
ENDBRANCH  20  21
ENDBRANCH   1  20
TORSDOF 6
ENDMDL
MODEL 2
REMARK VINA RESULT:      -7.0      1.223      1.887
REMARK  Name = 
REMARK  9 active torsions:
REMARK  status: ('A' for Active; 'I' for Inactive)
REMARK    1  A    between atoms: C_1  and  C_2
REMARK    2  A    between atoms: C_5  and  S_6
REMARK    3  A    between atoms: S_6  and  C_9
REMARK    4  A    between atoms: C_9  and  C_10
REMARK    5  A    between atoms: C_10  and  C_11
REMARK    6  A    between atoms: C_10  and  N_19
REMARK    7  A    between atoms: C_11  and  N_12
REMARK    8  A    between atoms: N_15  and  C_16
REMARK    9  A    between atoms: N_22  and  C_23
REMARK                            x       y       z     vdW  Elec       q    Type
REMARK                         _______ _______ _______ _____ _____    ______ ____
ROOT
ATOM      1  C   UNL     1       3.030   6.293  18.150  0.00  0.00    +0.000 C 
ENDROOT
BRANCH   1   2
ATOM      2  N   UNL     1       3.122   4.827  18.389  0.00  0.00    +0.000 NA
ATOM      3  C   UNL     1       2.241   4.002  17.548  0.00  0.00    +0.000 C 
ATOM      4  C   UNL     1       2.324   2.479  17.823  0.00  0.00    +0.000 C 
ATOM      5  N   UNL     1       2.187   2.109  19.246  0.00  0.00    +0.000 NA
ATOM      6  C   UNL     1       0.808   2.260  19.714  0.00  0.00    +0.000 C 
ATOM      7  C   UNL     1       3.127   2.929  20.035  0.00  0.00    +0.000 C 
ATOM      8  C   UNL     1       2.995   4.454  19.807  0.00  0.00    +0.000 C 
ENDBRANCH   1   2
BRANCH   1   9
ATOM      9  C   UNL     1       4.085   6.931  17.190  0.00  0.00    +0.000 C 
BRANCH   9  10
ATOM     10  S   UNL     1       5.782   6.387  17.403  0.00  0.00    +0.000 S 
ATOM     11  O   UNL     1       5.897   5.584  18.604  0.00  0.00    +0.000 OA
ATOM     12  O   UNL     1       6.666   7.512  17.180  0.00  0.00    +0.000 OA
BRANCH  10  17
ATOM     13  C   UNL     1       6.337   3.361  12.222  0.00  0.00    +0.000 C 
ATOM     14  C   UNL     1       6.299   3.968  13.592  0.00  0.00    +0.000 A 
ATOM     15  C   UNL     1       5.255   3.674  14.477  0.00  0.00    +0.000 A 
ATOM     16  C   UNL     1       5.158   4.336  15.700  0.00  0.00    +0.000 A 
ATOM     17  C   UNL     1       6.121   5.290  16.042  0.00  0.00    +0.000 A 
ATOM     18  C   UNL     1       7.199   5.555  15.193  0.00  0.00    +0.000 A 
ATOM     19  C   UNL     1       7.284   4.893  13.971  0.00  0.00    +0.000 A 
ENDBRANCH  10  17
ENDBRANCH   9  10
ENDBRANCH   1   9
BRANCH   1  20
ATOM     20  C   UNL     1       2.829   7.144  19.452  0.00  0.00    +0.000 C 
BRANCH  20  21
ATOM     21  N   UNL     1       1.675   8.025  19.637  0.00  0.00    +0.000 NA
ATOM     22  C   UNL     1       1.628   9.174  18.726  0.00  0.00    +0.000 C 
ATOM     23  C   UNL     1       0.313   9.987  18.853  0.00  0.00    +0.000 C 
ATOM     24  N   UNL     1      -0.134  10.301  20.228  0.00  0.00    +0.000 NA
ATOM     25  C   UNL     1       0.610  11.421  20.796  0.00  0.00    +0.000 C 
ATOM     26  C   UNL     1      -0.002   9.092  21.069  0.00  0.00    +0.000 C 
ATOM     27  C   UNL     1       1.391   8.423  21.012  0.00  0.00    +0.000 C 
ENDBRANCH  20  21
ENDBRANCH   1  20
TORSDOF 6
ENDMDL
MODEL 3
REMARK VINA RESULT:      -6.9      1.312      5.031
REMARK  Name = 
REMARK  9 active torsions:
REMARK  status: ('A' for Active; 'I' for Inactive)
REMARK    1  A    between atoms: C_1  and  C_2
REMARK    2  A    between atoms: C_5  and  S_6
REMARK    3  A    between atoms: S_6  and  C_9
REMARK    4  A    between atoms: C_9  and  C_10
REMARK    5  A    between atoms: C_10  and  C_11
REMARK    6  A    between atoms: C_10  and  N_19
REMARK    7  A    between atoms: C_11  and  N_12
REMARK    8  A    between atoms: N_15  and  C_16
REMARK    9  A    between atoms: N_22  and  C_23
REMARK                            x       y       z     vdW  Elec       q    Type
REMARK                         _______ _______ _______ _____ _____    ______ ____
ROOT
ATOM      1  C   UNL     1       3.116   7.137  18.241  0.00  0.00    +0.000 C 
ENDROOT
BRANCH   1   2
ATOM      2  N   UNL     1       2.556   8.367  18.864  0.00  0.00    +0.000 NA
ATOM      3  C   UNL     1       1.592   8.132  19.951  0.00  0.00    +0.000 C 
ATOM      4  C   UNL     1       0.993   9.418  20.575  0.00  0.00    +0.000 C 
ATOM      5  N   UNL     1       0.451  10.377  19.591  0.00  0.00    +0.000 NA
ATOM      6  C   UNL     1      -0.808   9.905  19.013  0.00  0.00    +0.000 C 
ATOM      7  C   UNL     1       1.475  10.614  18.555  0.00  0.00    +0.000 C 
ATOM      8  C   UNL     1       2.021   9.330  17.888  0.00  0.00    +0.000 C 
ENDBRANCH   1   2
BRANCH   1   9
ATOM      9  C   UNL     1       4.167   7.324  17.101  0.00  0.00    +0.000 C 
BRANCH   9  10
ATOM     10  S   UNL     1       5.786   6.605  17.391  0.00  0.00    +0.000 S 
ATOM     11  O   UNL     1       5.781   5.858  18.632  0.00  0.00    +0.000 OA
ATOM     12  O   UNL     1       6.797   7.611  17.139  0.00  0.00    +0.000 OA
BRANCH  10  17
ATOM     13  C   UNL     1       6.085   3.256  12.390  0.00  0.00    +0.000 C 
ATOM     14  C   UNL     1       6.099   3.941  13.724  0.00  0.00    +0.000 A 
ATOM     15  C   UNL     1       5.033   3.785  14.619  0.00  0.00    +0.000 A 
ATOM     16  C   UNL     1       4.993   4.522  15.802  0.00  0.00    +0.000 A 
ATOM     17  C   UNL     1       6.032   5.409  16.095  0.00  0.00    +0.000 A 
ATOM     18  C   UNL     1       7.129   5.534  15.238  0.00  0.00    +0.000 A 
ATOM     19  C   UNL     1       7.158   4.799  14.055  0.00  0.00    +0.000 A 
ENDBRANCH  10  17
ENDBRANCH   9  10
ENDBRANCH   1   9
BRANCH   1  20
ATOM     20  C   UNL     1       2.039   6.056  17.877  0.00  0.00    +0.000 C 
BRANCH  20  21
ATOM     21  N   UNL     1       1.999   4.746  18.528  0.00  0.00    +0.000 NA
ATOM     22  C   UNL     1       3.113   4.482  19.445  0.00  0.00    +0.000 C 
ATOM     23  C   UNL     1       2.945   3.152  20.227  0.00  0.00    +0.000 C 
ATOM     24  N   UNL     1       2.537   1.972  19.433  0.00  0.00    +0.000 NA
ATOM     25  C   UNL     1       3.662   1.397  18.703  0.00  0.00    +0.000 C 
ATOM     26  C   UNL     1       1.446   2.359  18.514  0.00  0.00    +0.000 C 
ATOM     27  C   UNL     1       1.750   3.606  17.650  0.00  0.00    +0.000 C 
ENDBRANCH  20  21
ENDBRANCH   1  20
TORSDOF 6
ENDMDL
MODEL 4
REMARK VINA RESULT:      -6.7      1.270      2.153
REMARK  Name = 
REMARK  9 active torsions:
REMARK  status: ('A' for Active; 'I' for Inactive)
REMARK    1  A    between atoms: C_1  and  C_2
REMARK    2  A    between atoms: C_5  and  S_6
REMARK    3  A    between atoms: S_6  and  C_9
REMARK    4  A    between atoms: C_9  and  C_10
REMARK    5  A    between atoms: C_10  and  C_11
REMARK    6  A    between atoms: C_10  and  N_19
REMARK    7  A    between atoms: C_11  and  N_12
REMARK    8  A    between atoms: N_15  and  C_16
REMARK    9  A    between atoms: N_22  and  C_23
REMARK                            x       y       z     vdW  Elec       q    Type
REMARK                         _______ _______ _______ _____ _____    ______ ____
ROOT
ATOM      1  C   UNL     1       2.963   6.236  18.159  0.00  0.00    +0.000 C 
ENDROOT
BRANCH   1   2
ATOM      2  N   UNL     1       3.067   4.767  18.376  0.00  0.00    +0.000 NA
ATOM      3  C   UNL     1       2.308   3.941  17.425  0.00  0.00    +0.000 C 
ATOM      4  C   UNL     1       2.400   2.414  17.675  0.00  0.00    +0.000 C 
ATOM      5  N   UNL     1       2.115   2.008  19.066  0.00  0.00    +0.000 NA
ATOM      6  C   UNL     1       0.689   2.114  19.380  0.00  0.00    +0.000 C 
ATOM      7  C   UNL     1       2.939   2.831  19.973  0.00  0.00    +0.000 C 
ATOM      8  C   UNL     1       2.792   4.357  19.763  0.00  0.00    +0.000 C 
ENDBRANCH   1   2
BRANCH   1   9
ATOM      9  C   UNL     1       4.022   6.899  17.221  0.00  0.00    +0.000 C 
BRANCH   9  10
ATOM     10  S   UNL     1       5.718   6.351  17.428  0.00  0.00    +0.000 S 
ATOM     11  O   UNL     1       5.832   5.535  18.621  0.00  0.00    +0.000 OA
ATOM     12  O   UNL     1       6.603   7.476  17.217  0.00  0.00    +0.000 OA
BRANCH  10  17
ATOM     13  C   UNL     1       6.482   3.490  12.181  0.00  0.00    +0.000 C 
ATOM     14  C   UNL     1       6.353   4.037  13.570  0.00  0.00    +0.000 A 
ATOM     15  C   UNL     1       5.158   3.898  14.286  0.00  0.00    +0.000 A 
ATOM     16  C   UNL     1       5.003   4.516  15.526  0.00  0.00    +0.000 A 
ATOM     17  C   UNL     1       6.055   5.267  16.056  0.00  0.00    +0.000 A 
ATOM     18  C   UNL     1       7.274   5.370  15.378  0.00  0.00    +0.000 A 
ATOM     19  C   UNL     1       7.418   4.754  14.137  0.00  0.00    +0.000 A 
ENDBRANCH  10  17
ENDBRANCH   9  10
ENDBRANCH   1   9
BRANCH   1  20
ATOM     20  C   UNL     1       2.738   7.064  19.472  0.00  0.00    +0.000 C 
BRANCH  20  21
ATOM     21  N   UNL     1       2.124   8.392  19.461  0.00  0.00    +0.000 NA
ATOM     22  C   UNL     1       1.179   8.640  20.555  0.00  0.00    +0.000 C 
ATOM     23  C   UNL     1       0.675  10.108  20.592  0.00  0.00    +0.000 C 
ATOM     24  N   UNL     1       0.252  10.688  19.298  0.00  0.00    +0.000 NA
ATOM     25  C   UNL     1      -1.085  10.241  18.918  0.00  0.00    +0.000 C 
ATOM     26  C   UNL     1       1.246  10.339  18.261  0.00  0.00    +0.000 C 
ATOM     27  C   UNL     1       1.581   8.831  18.179  0.00  0.00    +0.000 C 
ENDBRANCH  20  21
ENDBRANCH   1  20
TORSDOF 6
ENDMDL
MODEL 5
REMARK VINA RESULT:      -6.7      3.258      7.280
REMARK  Name = 
REMARK  9 active torsions:
REMARK  status: ('A' for Active; 'I' for Inactive)
REMARK    1  A    between atoms: C_1  and  C_2
REMARK    2  A    between atoms: C_5  and  S_6
REMARK    3  A    between atoms: S_6  and  C_9
REMARK    4  A    between atoms: C_9  and  C_10
REMARK    5  A    between atoms: C_10  and  C_11
REMARK    6  A    between atoms: C_10  and  N_19
REMARK    7  A    between atoms: C_11  and  N_12
REMARK    8  A    between atoms: N_15  and  C_16
REMARK    9  A    between atoms: N_22  and  C_23
REMARK                            x       y       z     vdW  Elec       q    Type
REMARK                         _______ _______ _______ _____ _____    ______ ____
ROOT
ATOM      1  C   UNL     1       2.469   7.299  18.300  0.00  0.00    +0.000 C 
ENDROOT
BRANCH   1   2
ATOM      2  N   UNL     1       1.779   6.077  18.793  0.00  0.00    +0.000 NA
ATOM      3  C   UNL     1       2.032   5.744  20.204  0.00  0.00    +0.000 C 
ATOM      4  C   UNL     1       1.331   4.454  20.701  0.00  0.00    +0.000 C 
ATOM      5  N   UNL     1       1.543   3.275  19.838  0.00  0.00    +0.000 NA
ATOM      6  C   UNL     1       2.904   2.750  19.963  0.00  0.00    +0.000 C 
ATOM      7  C   UNL     1       1.226   3.650  18.446  0.00  0.00    +0.000 C 
ATOM      8  C   UNL     1       1.980   4.900  17.932  0.00  0.00    +0.000 C 
ENDBRANCH   1   2
BRANCH   1   9
ATOM      9  C   UNL     1       1.577   8.440  17.714  0.00  0.00    +0.000 C 
BRANCH   9  10
ATOM     10  S   UNL     1       1.105   9.743  18.856  0.00  0.00    +0.000 S 
ATOM     11  O   UNL     1       1.822  10.962  18.539  0.00  0.00    +0.000 OA
ATOM     12  O   UNL     1       1.114   9.210  20.202  0.00  0.00    +0.000 OA
BRANCH  10  17
ATOM     13  C   UNL     1      -4.339  11.744  17.225  0.00  0.00    +0.000 C 
ATOM     14  C   UNL     1      -3.078  11.108  17.729  0.00  0.00    +0.000 A 
ATOM     15  C   UNL     1      -2.509  11.512  18.943  0.00  0.00    +0.000 A 
ATOM     16  C   UNL     1      -1.274  11.006  19.345  0.00  0.00    +0.000 A 
ATOM     17  C   UNL     1      -0.612  10.082  18.532  0.00  0.00    +0.000 A 
ATOM     18  C   UNL     1      -1.194   9.628  17.345  0.00  0.00    +0.000 A 
ATOM     19  C   UNL     1      -2.426  10.143  16.948  0.00  0.00    +0.000 A 
ENDBRANCH  10  17
ENDBRANCH   9  10
ENDBRANCH   1   9
BRANCH   1  20
ATOM     20  C   UNL     1       3.721   7.010  17.401  0.00  0.00    +0.000 C 
BRANCH  20  21
ATOM     21  N   UNL     1       5.033   6.699  17.968  0.00  0.00    +0.000 NA
ATOM     22  C   UNL     1       6.172   7.049  17.111  0.00  0.00    +0.000 C 
ATOM     23  C   UNL     1       7.539   6.847  17.817  0.00  0.00    +0.000 C 
ATOM     24  N   UNL     1       7.717   5.574  18.550  0.00  0.00    +0.000 NA
ATOM     25  C   UNL     1       8.023   4.469  17.647  0.00  0.00    +0.000 C 
ATOM     26  C   UNL     1       6.499   5.296  19.341  0.00  0.00    +0.000 C 
ATOM     27  C   UNL     1       5.183   5.360  18.531  0.00  0.00    +0.000 C 
ENDBRANCH  20  21
ENDBRANCH   1  20
TORSDOF 6
ENDMDL
MODEL 6
REMARK VINA RESULT:      -6.6      0.594      1.091
REMARK  Name = 
REMARK  9 active torsions:
REMARK  status: ('A' for Active; 'I' for Inactive)
REMARK    1  A    between atoms: C_1  and  C_2
REMARK    2  A    between atoms: C_5  and  S_6
REMARK    3  A    between atoms: S_6  and  C_9
REMARK    4  A    between atoms: C_9  and  C_10
REMARK    5  A    between atoms: C_10  and  C_11
REMARK    6  A    between atoms: C_10  and  N_19
REMARK    7  A    between atoms: C_11  and  N_12
REMARK    8  A    between atoms: N_15  and  C_16
REMARK    9  A    between atoms: N_22  and  C_23
REMARK                            x       y       z     vdW  Elec       q    Type
REMARK                         _______ _______ _______ _____ _____    ______ ____
ROOT
ATOM      1  C   UNL     1       3.323   6.123  18.293  0.00  0.00    +0.000 C 
ENDROOT
BRANCH   1   2
ATOM      2  N   UNL     1       2.245   5.265  18.854  0.00  0.00    +0.000 NA
ATOM      3  C   UNL     1       2.485   4.778  20.222  0.00  0.00    +0.000 C 
ATOM      4  C   UNL     1       1.371   3.862  20.788  0.00  0.00    +0.000 C 
ATOM      5  N   UNL     1       0.984   2.750  19.896  0.00  0.00    +0.000 NA
ATOM      6  C   UNL     1       2.011   1.708  19.854  0.00  0.00    +0.000 C 
ATOM      7  C   UNL     1       0.707   3.301  18.555  0.00  0.00    +0.000 C 
ATOM      8  C   UNL     1       1.851   4.160  17.966  0.00  0.00    +0.000 C 
ENDBRANCH   1   2
BRANCH   1   9
ATOM      9  C   UNL     1       4.629   6.279  19.136  0.00  0.00    +0.000 C 
BRANCH   9  10
ATOM     10  S   UNL     1       5.975   5.165  18.724  0.00  0.00    +0.000 S 
ATOM     11  O   UNL     1       5.724   3.855  19.290  0.00  0.00    +0.000 OA
ATOM     12  O   UNL     1       7.232   5.842  18.960  0.00  0.00    +0.000 OA
BRANCH  10  17
ATOM     13  C   UNL     1       6.534   3.712  12.903  0.00  0.00    +0.000 C 
ATOM     14  C   UNL     1       6.270   4.210  14.292  0.00  0.00    +0.000 A 
ATOM     15  C   UNL     1       7.048   5.234  14.845  0.00  0.00    +0.000 A 
ATOM     16  C   UNL     1       6.879   5.607  16.178  0.00  0.00    +0.000 A 
ATOM     17  C   UNL     1       5.918   4.957  16.957  0.00  0.00    +0.000 A 
ATOM     18  C   UNL     1       5.097   3.970  16.404  0.00  0.00    +0.000 A 
ATOM     19  C   UNL     1       5.276   3.600  15.072  0.00  0.00    +0.000 A 
ENDBRANCH  10  17
ENDBRANCH   9  10
ENDBRANCH   1   9
BRANCH   1  20
ATOM     20  C   UNL     1       2.820   7.498  17.729  0.00  0.00    +0.000 C 
BRANCH  20  21
ATOM     21  N   UNL     1       2.322   8.563  18.600  0.00  0.00    +0.000 NA
ATOM     22  C   UNL     1       1.546   8.098  19.756  0.00  0.00    +0.000 C 
ATOM     23  C   UNL     1       1.177   9.247  20.731  0.00  0.00    +0.000 C 
ATOM     24  N   UNL     1       0.644  10.483  20.116  0.00  0.00    +0.000 NA
ATOM     25  C   UNL     1      -0.762  10.342  19.752  0.00  0.00    +0.000 C 
ATOM     26  C   UNL     1       1.467  10.833  18.940  0.00  0.00    +0.000 C 
ATOM     27  C   UNL     1       1.662   9.678  17.929  0.00  0.00    +0.000 C 
ENDBRANCH  20  21
ENDBRANCH   1  20
TORSDOF 6
ENDMDL
MODEL 7
REMARK VINA RESULT:      -6.6      1.596      2.357
REMARK  Name = 
REMARK  9 active torsions:
REMARK  status: ('A' for Active; 'I' for Inactive)
REMARK    1  A    between atoms: C_1  and  C_2
REMARK    2  A    between atoms: C_5  and  S_6
REMARK    3  A    between atoms: S_6  and  C_9
REMARK    4  A    between atoms: C_9  and  C_10
REMARK    5  A    between atoms: C_10  and  C_11
REMARK    6  A    between atoms: C_10  and  N_19
REMARK    7  A    between atoms: C_11  and  N_12
REMARK    8  A    between atoms: N_15  and  C_16
REMARK    9  A    between atoms: N_22  and  C_23
REMARK                            x       y       z     vdW  Elec       q    Type
REMARK                         _______ _______ _______ _____ _____    ______ ____
ROOT
ATOM      1  C   UNL     1       3.475   5.760  18.291  0.00  0.00    +0.000 C 
ENDROOT
BRANCH   1   2
ATOM      2  N   UNL     1       2.860   4.410  18.179  0.00  0.00    +0.000 NA
ATOM      3  C   UNL     1       1.508   4.291  18.750  0.00  0.00    +0.000 C 
ATOM      4  C   UNL     1       0.886   2.875  18.654  0.00  0.00    +0.000 C 
ATOM      5  N   UNL     1       1.760   1.791  19.147  0.00  0.00    +0.000 NA
ATOM      6  C   UNL     1       1.861   1.799  20.607  0.00  0.00    +0.000 C 
ATOM      7  C   UNL     1       3.082   1.928  18.505  0.00  0.00    +0.000 C 
ATOM      8  C   UNL     1       3.729   3.325  18.661  0.00  0.00    +0.000 C 
ENDBRANCH   1   2
BRANCH   1   9
ATOM      9  C   UNL     1       5.030   5.851  18.180  0.00  0.00    +0.000 C 
BRANCH   9  10
ATOM     10  S   UNL     1       5.674   6.690  16.729  0.00  0.00    +0.000 S 
ATOM     11  O   UNL     1       6.943   7.316  17.042  0.00  0.00    +0.000 OA
ATOM     12  O   UNL     1       4.606   7.451  16.117  0.00  0.00    +0.000 OA
BRANCH  10  17
ATOM     13  C   UNL     1       6.391   3.007  12.014  0.00  0.00    +0.000 C 
ATOM     14  C   UNL     1       6.297   3.784  13.293  0.00  0.00    +0.000 A 
ATOM     15  C   UNL     1       5.177   3.662  14.123  0.00  0.00    +0.000 A 
ATOM     16  C   UNL     1       5.038   4.478  15.246  0.00  0.00    +0.000 A 
ATOM     17  C   UNL     1       6.034   5.412  15.543  0.00  0.00    +0.000 A 
ATOM     18  C   UNL     1       7.185   5.508  14.754  0.00  0.00    +0.000 A 
ATOM     19  C   UNL     1       7.312   4.692  13.631  0.00  0.00    +0.000 A 
ENDBRANCH  10  17
ENDBRANCH   9  10
ENDBRANCH   1   9
BRANCH   1  20
ATOM     20  C   UNL     1       2.917   6.622  19.476  0.00  0.00    +0.000 C 
BRANCH  20  21
ATOM     21  N   UNL     1       2.403   7.978  19.279  0.00  0.00    +0.000 NA
ATOM     22  C   UNL     1       1.351   8.378  20.220  0.00  0.00    +0.000 C 
ATOM     23  C   UNL     1       0.950   9.870  20.074  0.00  0.00    +0.000 C 
ATOM     24  N   UNL     1       0.730  10.357  18.694  0.00  0.00    +0.000 NA
ATOM     25  C   UNL     1      -0.578   9.958  18.183  0.00  0.00    +0.000 C 
ATOM     26  C   UNL     1       1.817   9.860  17.824  0.00  0.00    +0.000 C 
ATOM     27  C   UNL     1       2.053   8.333  17.907  0.00  0.00    +0.000 C 
ENDBRANCH  20  21
ENDBRANCH   1  20
TORSDOF 6
ENDMDL
MODEL 8
REMARK VINA RESULT:      -6.6      1.298      4.831
REMARK  Name = 
REMARK  9 active torsions:
REMARK  status: ('A' for Active; 'I' for Inactive)
REMARK    1  A    between atoms: C_1  and  C_2
REMARK    2  A    between atoms: C_5  and  S_6
REMARK    3  A    between atoms: S_6  and  C_9
REMARK    4  A    between atoms: C_9  and  C_10
REMARK    5  A    between atoms: C_10  and  C_11
REMARK    6  A    between atoms: C_10  and  N_19
REMARK    7  A    between atoms: C_11  and  N_12
REMARK    8  A    between atoms: N_15  and  C_16
REMARK    9  A    between atoms: N_22  and  C_23
REMARK                            x       y       z     vdW  Elec       q    Type
REMARK                         _______ _______ _______ _____ _____    ______ ____
ROOT
ATOM      1  C   UNL     1       3.288   6.586  18.081  0.00  0.00    +0.000 C 
ENDROOT
BRANCH   1   2
ATOM      2  N   UNL     1       2.141   7.446  18.479  0.00  0.00    +0.000 NA
ATOM      3  C   UNL     1       1.982   8.677  17.687  0.00  0.00    +0.000 C 
ATOM      4  C   UNL     1       0.802   9.581  18.126  0.00  0.00    +0.000 C 
ATOM      5  N   UNL     1       0.769   9.879  19.572  0.00  0.00    +0.000 NA
ATOM      6  C   UNL     1       1.817  10.826  19.953  0.00  0.00    +0.000 C 
ATOM      7  C   UNL     1       0.880   8.609  20.315  0.00  0.00    +0.000 C 
ATOM      8  C   UNL     1       2.098   7.740  19.920  0.00  0.00    +0.000 C 
ENDBRANCH   1   2
BRANCH   1   9
ATOM      9  C   UNL     1       4.404   7.237  17.202  0.00  0.00    +0.000 C 
BRANCH   9  10
ATOM     10  S   UNL     1       6.056   6.562  17.392  0.00  0.00    +0.000 S 
ATOM     11  O   UNL     1       6.135   5.783  18.611  0.00  0.00    +0.000 OA
ATOM     12  O   UNL     1       7.022   7.606  17.118  0.00  0.00    +0.000 OA
BRANCH  10  17
ATOM     13  C   UNL     1       6.151   3.321  12.313  0.00  0.00    +0.000 C 
ATOM     14  C   UNL     1       6.234   3.985  13.655  0.00  0.00    +0.000 A 
ATOM     15  C   UNL     1       5.269   3.734  14.637  0.00  0.00    +0.000 A 
ATOM     16  C   UNL     1       5.281   4.447  15.836  0.00  0.00    +0.000 A 
ATOM     17  C   UNL     1       6.272   5.408  16.054  0.00  0.00    +0.000 A 
ATOM     18  C   UNL     1       7.274   5.630  15.104  0.00  0.00    +0.000 A 
ATOM     19  C   UNL     1       7.251   4.917  13.908  0.00  0.00    +0.000 A 
ENDBRANCH  10  17
ENDBRANCH   9  10
ENDBRANCH   1   9
BRANCH   1  20
ATOM     20  C   UNL     1       2.873   5.169  17.551  0.00  0.00    +0.000 C 
BRANCH  20  21
ATOM     21  N   UNL     1       2.712   4.020  18.442  0.00  0.00    +0.000 NA
ATOM     22  C   UNL     1       1.331   3.544  18.587  0.00  0.00    +0.000 C 
ATOM     23  C   UNL     1       1.232   2.233  19.412  0.00  0.00    +0.000 C 
ATOM     24  N   UNL     1       2.010   2.190  20.670  0.00  0.00    +0.000 NA
ATOM     25  C   UNL     1       1.340   2.915  21.745  0.00  0.00    +0.000 C 
ATOM     26  C   UNL     1       3.363   2.733  20.423  0.00  0.00    +0.000 C 
ATOM     27  C   UNL     1       3.379   4.119  19.737  0.00  0.00    +0.000 C 
ENDBRANCH  20  21
ENDBRANCH   1  20
TORSDOF 6
ENDMDL
MODEL 9
REMARK VINA RESULT:      -6.5      1.419      1.934
REMARK  Name = 
REMARK  9 active torsions:
REMARK  status: ('A' for Active; 'I' for Inactive)
REMARK    1  A    between atoms: C_1  and  C_2
REMARK    2  A    between atoms: C_5  and  S_6
REMARK    3  A    between atoms: S_6  and  C_9
REMARK    4  A    between atoms: C_9  and  C_10
REMARK    5  A    between atoms: C_10  and  C_11
REMARK    6  A    between atoms: C_10  and  N_19
REMARK    7  A    between atoms: C_11  and  N_12
REMARK    8  A    between atoms: N_15  and  C_16
REMARK    9  A    between atoms: N_22  and  C_23
REMARK                            x       y       z     vdW  Elec       q    Type
REMARK                         _______ _______ _______ _____ _____    ______ ____
ROOT
ATOM      1  C   UNL     1       3.452   6.099  17.774  0.00  0.00    +0.000 C 
ENDROOT
BRANCH   1   2
ATOM      2  N   UNL     1       3.594   4.657  18.109  0.00  0.00    +0.000 NA
ATOM      3  C   UNL     1       2.771   3.745  17.299  0.00  0.00    +0.000 C 
ATOM      4  C   UNL     1       2.905   2.247  17.673  0.00  0.00    +0.000 C 
ATOM      5  N   UNL     1       2.741   1.962  19.113  0.00  0.00    +0.000 NA
ATOM      6  C   UNL     1       1.344   2.085  19.533  0.00  0.00    +0.000 C 
ATOM      7  C   UNL     1       3.625   2.867  19.873  0.00  0.00    +0.000 C 
ATOM      8  C   UNL     1       3.440   4.368  19.544  0.00  0.00    +0.000 C 
ENDBRANCH   1   2
BRANCH   1   9
ATOM      9  C   UNL     1       4.484   6.709  16.772  0.00  0.00    +0.000 C 
BRANCH   9  10
ATOM     10  S   UNL     1       6.060   5.859  16.642  0.00  0.00    +0.000 S 
ATOM     11  O   UNL     1       6.082   4.720  17.538  0.00  0.00    +0.000 OA
ATOM     12  O   UNL     1       7.124   6.840  16.669  0.00  0.00    +0.000 OA
BRANCH  10  17
ATOM     13  C   UNL     1       6.787   2.774  11.518  0.00  0.00    +0.000 C 
ATOM     14  C   UNL     1       6.527   3.681  12.683  0.00  0.00    +0.000 A 
ATOM     15  C   UNL     1       7.487   4.615  13.090  0.00  0.00    +0.000 A 
ATOM     16  C   UNL     1       7.292   5.368  14.248  0.00  0.00    +0.000 A 
ATOM     17  C   UNL     1       6.123   5.191  14.993  0.00  0.00    +0.000 A 
ATOM     18  C   UNL     1       5.131   4.302  14.569  0.00  0.00    +0.000 A 
ATOM     19  C   UNL     1       5.337   3.550  13.415  0.00  0.00    +0.000 A 
ENDBRANCH  10  17
ENDBRANCH   9  10
ENDBRANCH   1   9
BRANCH   1  20
ATOM     20  C   UNL     1       3.221   7.027  19.019  0.00  0.00    +0.000 C 
BRANCH  20  21
ATOM     21  N   UNL     1       2.043   7.884  19.144  0.00  0.00    +0.000 NA
ATOM     22  C   UNL     1       2.032   9.047  18.249  0.00  0.00    +0.000 C 
ATOM     23  C   UNL     1       0.696   9.835  18.305  0.00  0.00    +0.000 C 
ATOM     24  N   UNL     1       0.159  10.120  19.654  0.00  0.00    +0.000 NA
ATOM     25  C   UNL     1       0.847  11.243  20.283  0.00  0.00    +0.000 C 
ATOM     26  C   UNL     1       0.261   8.900  20.483  0.00  0.00    +0.000 C 
ATOM     27  C   UNL     1       1.667   8.257  20.504  0.00  0.00    +0.000 C 
ENDBRANCH  20  21
ENDBRANCH   1  20
TORSDOF 6
ENDMDL
