MODEL 1
REMARK VINA RESULT:      -7.6      0.000      0.000
REMARK  Name = 
REMARK  6 active torsions:
REMARK  status: ('A' for Active; 'I' for Inactive)
REMARK    1  A    between atoms: C_1  and  O_2
REMARK    2  A    between atoms: O_2  and  C_3
REMARK    3  A    between atoms: C_5  and  C_6
REMARK    4  A    between atoms: C_9  and  C_10
REMARK    5  A    between atoms: N_18  and  C_19
REMARK    6  A    between atoms: N_18  and  C_20
REMARK                            x       y       z     vdW  Elec       q    Type
REMARK                         _______ _______ _______ _____ _____    ______ ____
ROOT
ATOM      1  C   UNL     1       3.862   3.174  17.931  0.00  0.00    +0.000 A 
ATOM      2  C   UNL     1       3.757   1.789  17.914  0.00  0.00    +0.000 A 
ATOM      3  N   UNL     1       2.707   1.423  18.703  0.00  0.00    +0.000 N 
ATOM      4  C   UNL     1       2.132   2.532  19.245  0.00  0.00    +0.000 A 
ATOM      5  N   UNL     1       1.099   2.460  20.094  0.00  0.00    +0.000 NA
ATOM      6  C   UNL     1       0.734   3.670  20.519  0.00  0.00    +0.000 A 
ATOM      7  N   UNL     1       1.267   4.854  20.176  0.00  0.00    +0.000 NA
ATOM      8  C   UNL     1       2.310   4.912  19.294  0.00  0.00    +0.000 A 
ATOM      9  N   UNL     1       2.873   6.172  19.019  0.00  0.00    +0.000 N 
ATOM     10  C   UNL     1       2.455   7.216  19.962  0.00  0.00    +0.000 C 
ATOM     11  C   UNL     1       2.770   6.585  17.621  0.00  0.00    +0.000 C 
ATOM     12  C   UNL     1       2.801   3.669  18.791  0.00  0.00    +0.000 A 
ATOM     13  H   UNL     1       2.405   0.481  18.902  0.00  0.00    +0.000 HD
ENDROOT
BRANCH   1  18
ATOM     14  C   UNL     1       6.848   5.380  17.180  0.00  0.00    +0.000 A 
ATOM     15  C   UNL     1       7.012   5.164  15.820  0.00  0.00    +0.000 A 
ATOM     16  C   UNL     1       6.146   4.296  15.147  0.00  0.00    +0.000 A 
ATOM     17  C   UNL     1       5.102   3.662  15.830  0.00  0.00    +0.000 A 
ATOM     18  C   UNL     1       4.955   3.826  17.206  0.00  0.00    +0.000 A 
ATOM     19  C   UNL     1       5.850   4.683  17.872  0.00  0.00    +0.000 A 
BRANCH  14  21
ATOM     20  C   UNL     1       7.834   5.844  19.291  0.00  0.00    +0.000 C 
ATOM     21  O   UNL     1       7.590   6.242  17.946  0.00  0.00    +0.000 OA
ENDBRANCH  14  21
BRANCH  16  22
ATOM     22  C   UNL     1       6.329   4.057  13.752  0.00  0.00    +0.000 C 
ATOM     23  N   UNL     1       6.490   3.847  12.623  0.00  0.00    +0.000 NA
ENDBRANCH  16  22
ENDBRANCH   1  18
TORSDOF 3
ENDMDL
MODEL 2
REMARK VINA RESULT:      -7.5      1.878      2.788
REMARK  Name = 
REMARK  6 active torsions:
REMARK  status: ('A' for Active; 'I' for Inactive)
REMARK    1  A    between atoms: C_1  and  O_2
REMARK    2  A    between atoms: O_2  and  C_3
REMARK    3  A    between atoms: C_5  and  C_6
REMARK    4  A    between atoms: C_9  and  C_10
REMARK    5  A    between atoms: N_18  and  C_19
REMARK    6  A    between atoms: N_18  and  C_20
REMARK                            x       y       z     vdW  Elec       q    Type
REMARK                         _______ _______ _______ _____ _____    ______ ____
ROOT
ATOM      1  C   UNL     1       3.953   3.324  17.889  0.00  0.00    +0.000 A 
ATOM      2  C   UNL     1       3.924   1.940  17.786  0.00  0.00    +0.000 A 
ATOM      3  N   UNL     1       2.881   1.470  18.526  0.00  0.00    +0.000 N 
ATOM      4  C   UNL     1       2.235   2.511  19.121  0.00  0.00    +0.000 A 
ATOM      5  N   UNL     1       1.191   2.331  19.940  0.00  0.00    +0.000 NA
ATOM      6  C   UNL     1       0.752   3.491  20.430  0.00  0.00    +0.000 A 
ATOM      7  N   UNL     1       1.226   4.720  20.171  0.00  0.00    +0.000 NA
ATOM      8  C   UNL     1       2.281   4.889  19.319  0.00  0.00    +0.000 A 
ATOM      9  N   UNL     1       2.780   6.192  19.134  0.00  0.00    +0.000 N 
ATOM     10  C   UNL     1       2.287   7.152  20.129  0.00  0.00    +0.000 C 
ATOM     11  C   UNL     1       2.681   6.685  17.762  0.00  0.00    +0.000 C 
ATOM     12  C   UNL     1       2.849   3.708  18.753  0.00  0.00    +0.000 A 
ATOM     13  H   UNL     1       2.626   0.503  18.660  0.00  0.00    +0.000 HD
ENDROOT
BRANCH   1  18
ATOM     14  C   UNL     1       6.379   4.530  15.241  0.00  0.00    +0.000 A 
ATOM     15  C   UNL     1       7.133   5.446  15.959  0.00  0.00    +0.000 A 
ATOM     16  C   UNL     1       6.848   5.671  17.309  0.00  0.00    +0.000 A 
ATOM     17  C   UNL     1       5.824   4.963  17.948  0.00  0.00    +0.000 A 
ATOM     18  C   UNL     1       5.022   4.077  17.231  0.00  0.00    +0.000 A 
ATOM     19  C   UNL     1       5.307   3.881  15.867  0.00  0.00    +0.000 A 
BRANCH  14  21
ATOM     20  C   UNL     1       5.444   3.729  13.210  0.00  0.00    +0.000 C 
ATOM     21  O   UNL     1       6.586   4.177  13.933  0.00  0.00    +0.000 OA
ENDBRANCH  14  21
BRANCH  16  22
ATOM     22  C   UNL     1       7.610   6.631  18.041  0.00  0.00    +0.000 C 
ATOM     23  N   UNL     1       8.246   7.400  18.631  0.00  0.00    +0.000 NA
ENDBRANCH  16  22
ENDBRANCH   1  18
TORSDOF 3
ENDMDL
MODEL 3
REMARK VINA RESULT:      -6.4      2.279      6.001
REMARK  Name = 
REMARK  6 active torsions:
REMARK  status: ('A' for Active; 'I' for Inactive)
REMARK    1  A    between atoms: C_1  and  O_2
REMARK    2  A    between atoms: O_2  and  C_3
REMARK    3  A    between atoms: C_5  and  C_6
REMARK    4  A    between atoms: C_9  and  C_10
REMARK    5  A    between atoms: N_18  and  C_19
REMARK    6  A    between atoms: N_18  and  C_20
REMARK                            x       y       z     vdW  Elec       q    Type
REMARK                         _______ _______ _______ _____ _____    ______ ____
ROOT
ATOM      1  C   UNL     1       4.109   4.409  17.153  0.00  0.00    +0.000 A 
ATOM      2  C   UNL     1       3.506   3.563  16.232  0.00  0.00    +0.000 A 
ATOM      3  N   UNL     1       4.350   3.398  15.175  0.00  0.00    +0.000 N 
ATOM      4  C   UNL     1       5.484   4.125  15.375  0.00  0.00    +0.000 A 
ATOM      5  N   UNL     1       6.471   4.175  14.472  0.00  0.00    +0.000 NA
ATOM      6  C   UNL     1       7.456   4.978  14.873  0.00  0.00    +0.000 A 
ATOM      7  N   UNL     1       7.535   5.667  16.023  0.00  0.00    +0.000 NA
ATOM      8  C   UNL     1       6.528   5.591  16.944  0.00  0.00    +0.000 A 
ATOM      9  N   UNL     1       6.629   6.384  18.102  0.00  0.00    +0.000 N 
ATOM     10  C   UNL     1       7.665   7.419  18.011  0.00  0.00    +0.000 C 
ATOM     11  C   UNL     1       6.685   5.623  19.348  0.00  0.00    +0.000 C 
ATOM     12  C   UNL     1       5.405   4.776  16.607  0.00  0.00    +0.000 A 
ATOM     13  H   UNL     1       4.172   2.856  14.343  0.00  0.00    +0.000 HD
ENDROOT
BRANCH   1  18
ATOM     14  C   UNL     1       2.382   6.544  19.763  0.00  0.00    +0.000 A 
ATOM     15  C   UNL     1       2.061   5.596  20.722  0.00  0.00    +0.000 A 
ATOM     16  C   UNL     1       2.409   4.257  20.517  0.00  0.00    +0.000 A 
ATOM     17  C   UNL     1       3.098   3.870  19.362  0.00  0.00    +0.000 A 
ATOM     18  C   UNL     1       3.382   4.800  18.363  0.00  0.00    +0.000 A 
ATOM     19  C   UNL     1       3.004   6.138  18.575  0.00  0.00    +0.000 A 
BRANCH  14  21
ATOM     20  C   UNL     1       1.318   8.313  20.939  0.00  0.00    +0.000 C 
ATOM     21  O   UNL     1       2.148   7.891  19.862  0.00  0.00    +0.000 OA
ENDBRANCH  14  21
BRANCH  16  22
ATOM     22  C   UNL     1       2.058   3.278  21.495  0.00  0.00    +0.000 C 
ATOM     23  N   UNL     1       1.762   2.473  22.274  0.00  0.00    +0.000 NA
ENDBRANCH  16  22
ENDBRANCH   1  18
TORSDOF 3
ENDMDL
MODEL 4
REMARK VINA RESULT:      -6.3      3.376      7.010
REMARK  Name = 
REMARK  6 active torsions:
REMARK  status: ('A' for Active; 'I' for Inactive)
REMARK    1  A    between atoms: C_1  and  O_2
REMARK    2  A    between atoms: O_2  and  C_3
REMARK    3  A    between atoms: C_5  and  C_6
REMARK    4  A    between atoms: C_9  and  C_10
REMARK    5  A    between atoms: N_18  and  C_19
REMARK    6  A    between atoms: N_18  and  C_20
REMARK                            x       y       z     vdW  Elec       q    Type
REMARK                         _______ _______ _______ _____ _____    ______ ____
ROOT
ATOM      1  C   UNL     1       2.959   7.228  18.439  0.00  0.00    +0.000 A 
ATOM      2  C   UNL     1       3.761   7.691  17.404  0.00  0.00    +0.000 A 
ATOM      3  N   UNL     1       4.665   6.722  17.088  0.00  0.00    +0.000 N 
ATOM      4  C   UNL     1       4.484   5.643  17.897  0.00  0.00    +0.000 A 
ATOM      5  N   UNL     1       5.265   4.557  17.828  0.00  0.00    +0.000 NA
ATOM      6  C   UNL     1       4.919   3.651  18.743  0.00  0.00    +0.000 A 
ATOM      7  N   UNL     1       3.922   3.731  19.640  0.00  0.00    +0.000 NA
ATOM      8  C   UNL     1       3.122   4.838  19.686  0.00  0.00    +0.000 A 
ATOM      9  N   UNL     1       2.135   4.899  20.686  0.00  0.00    +0.000 N 
ATOM     10  C   UNL     1       2.308   3.891  21.739  0.00  0.00    +0.000 C 
ATOM     11  C   UNL     1       0.766   4.970  20.178  0.00  0.00    +0.000 C 
ATOM     12  C   UNL     1       3.418   5.888  18.764  0.00  0.00    +0.000 A 
ATOM     13  H   UNL     1       5.392   6.784  16.390  0.00  0.00    +0.000 HD
ENDROOT
BRANCH   1  18
ATOM     14  C   UNL     1       0.112   9.712  18.707  0.00  0.00    +0.000 A 
ATOM     15  C   UNL     1       0.018   9.872  20.082  0.00  0.00    +0.000 A 
ATOM     16  C   UNL     1       0.885   9.168  20.922  0.00  0.00    +0.000 A 
ATOM     17  C   UNL     1       1.862   8.320  20.387  0.00  0.00    +0.000 A 
ATOM     18  C   UNL     1       1.937   8.106  19.012  0.00  0.00    +0.000 A 
ATOM     19  C   UNL     1       1.040   8.804  18.182  0.00  0.00    +0.000 A 
BRANCH  14  21
ATOM     20  C   UNL     1      -2.034  10.106  17.767  0.00  0.00    +0.000 C 
ATOM     21  O   UNL     1      -0.637  10.379  17.773  0.00  0.00    +0.000 OA
ENDBRANCH  14  21
BRANCH  16  22
ATOM     22  C   UNL     1       0.773   9.316  22.338  0.00  0.00    +0.000 C 
ATOM     23  N   UNL     1       0.700   9.447  23.487  0.00  0.00    +0.000 NA
ENDBRANCH  16  22
ENDBRANCH   1  18
TORSDOF 3
ENDMDL
MODEL 5
REMARK VINA RESULT:      -6.2      2.711      6.002
REMARK  Name = 
REMARK  6 active torsions:
REMARK  status: ('A' for Active; 'I' for Inactive)
REMARK    1  A    between atoms: C_1  and  O_2
REMARK    2  A    between atoms: O_2  and  C_3
REMARK    3  A    between atoms: C_5  and  C_6
REMARK    4  A    between atoms: C_9  and  C_10
REMARK    5  A    between atoms: N_18  and  C_19
REMARK    6  A    between atoms: N_18  and  C_20
REMARK                            x       y       z     vdW  Elec       q    Type
REMARK                         _______ _______ _______ _____ _____    ______ ____
ROOT
ATOM      1  C   UNL     1       4.015   4.558  17.344  0.00  0.00    +0.000 A 
ATOM      2  C   UNL     1       3.354   3.653  16.524  0.00  0.00    +0.000 A 
ATOM      3  N   UNL     1       4.151   3.373  15.454  0.00  0.00    +0.000 N 
ATOM      4  C   UNL     1       5.309   4.083  15.547  0.00  0.00    +0.000 A 
ATOM      5  N   UNL     1       6.259   4.027  14.605  0.00  0.00    +0.000 NA
ATOM      6  C   UNL     1       7.279   4.835  14.896  0.00  0.00    +0.000 A 
ATOM      7  N   UNL     1       7.421   5.618  15.977  0.00  0.00    +0.000 NA
ATOM      8  C   UNL     1       6.450   5.651  16.939  0.00  0.00    +0.000 A 
ATOM      9  N   UNL     1       6.618   6.537  18.018  0.00  0.00    +0.000 N 
ATOM     10  C   UNL     1       7.675   7.532  17.797  0.00  0.00    +0.000 C 
ATOM     11  C   UNL     1       6.706   5.886  19.324  0.00  0.00    +0.000 C 
ATOM     12  C   UNL     1       5.295   4.840  16.718  0.00  0.00    +0.000 A 
ATOM     13  H   UNL     1       3.925   2.766  14.680  0.00  0.00    +0.000 HD
ENDROOT
BRANCH   1  18
ATOM     14  C   UNL     1       2.452   4.702  20.791  0.00  0.00    +0.000 A 
ATOM     15  C   UNL     1       1.984   6.007  20.825  0.00  0.00    +0.000 A 
ATOM     16  C   UNL     1       2.180   6.841  19.720  0.00  0.00    +0.000 A 
ATOM     17  C   UNL     1       2.823   6.364  18.573  0.00  0.00    +0.000 A 
ATOM     18  C   UNL     1       3.346   5.073  18.541  0.00  0.00    +0.000 A 
ATOM     19  C   UNL     1       3.162   4.254  19.670  0.00  0.00    +0.000 A 
BRANCH  14  21
ATOM     20  C   UNL     1       1.550   2.597  21.426  0.00  0.00    +0.000 C 
ATOM     21  O   UNL     1       2.280   3.767  21.779  0.00  0.00    +0.000 OA
ENDBRANCH  14  21
BRANCH  16  22
ATOM     22  C   UNL     1       1.718   8.192  19.765  0.00  0.00    +0.000 C 
ATOM     23  N   UNL     1       1.335   9.284  19.820  0.00  0.00    +0.000 NA
ENDBRANCH  16  22
ENDBRANCH   1  18
TORSDOF 3
ENDMDL
MODEL 6
REMARK VINA RESULT:      -6.2      1.371      3.016
REMARK  Name = 
REMARK  6 active torsions:
REMARK  status: ('A' for Active; 'I' for Inactive)
REMARK    1  A    between atoms: C_1  and  O_2
REMARK    2  A    between atoms: O_2  and  C_3
REMARK    3  A    between atoms: C_5  and  C_6
REMARK    4  A    between atoms: C_9  and  C_10
REMARK    5  A    between atoms: N_18  and  C_19
REMARK    6  A    between atoms: N_18  and  C_20
REMARK                            x       y       z     vdW  Elec       q    Type
REMARK                         _______ _______ _______ _____ _____    ______ ____
ROOT
ATOM      1  C   UNL     1       3.740   6.047  18.321  0.00  0.00    +0.000 A 
ATOM      2  C   UNL     1       3.169   7.287  18.575  0.00  0.00    +0.000 A 
ATOM      3  N   UNL     1       2.113   7.114  19.418  0.00  0.00    +0.000 N 
ATOM      4  C   UNL     1       1.971   5.793  19.711  0.00  0.00    +0.000 A 
ATOM      5  N   UNL     1       0.984   5.335  20.492  0.00  0.00    +0.000 NA
ATOM      6  C   UNL     1       1.028   4.007  20.602  0.00  0.00    +0.000 A 
ATOM      7  N   UNL     1       1.921   3.168  20.052  0.00  0.00    +0.000 NA
ATOM      8  C   UNL     1       2.935   3.653  19.273  0.00  0.00    +0.000 A 
ATOM      9  N   UNL     1       3.803   2.727  18.667  0.00  0.00    +0.000 N 
ATOM     10  C   UNL     1       3.308   1.346  18.713  0.00  0.00    +0.000 C 
ATOM     11  C   UNL     1       5.199   2.851  19.083  0.00  0.00    +0.000 C 
ATOM     12  C   UNL     1       2.970   5.065  19.064  0.00  0.00    +0.000 A 
ATOM     13  H   UNL     1       1.492   7.834  19.758  0.00  0.00    +0.000 HD
ENDROOT
BRANCH   1  18
ATOM     14  C   UNL     1       7.104   6.652  16.685  0.00  0.00    +0.000 A 
ATOM     15  C   UNL     1       7.012   5.839  15.565  0.00  0.00    +0.000 A 
ATOM     16  C   UNL     1       5.851   5.093  15.344  0.00  0.00    +0.000 A 
ATOM     17  C   UNL     1       4.772   5.176  16.230  0.00  0.00    +0.000 A 
ATOM     18  C   UNL     1       4.866   5.945  17.389  0.00  0.00    +0.000 A 
ATOM     19  C   UNL     1       6.051   6.671  17.608  0.00  0.00    +0.000 A 
BRANCH  14  21
ATOM     20  C   UNL     1       7.855   8.636  17.754  0.00  0.00    +0.000 C 
ATOM     21  O   UNL     1       8.158   7.472  16.992  0.00  0.00    +0.000 OA
ENDBRANCH  14  21
BRANCH  16  22
ATOM     22  C   UNL     1       5.767   4.240  14.202  0.00  0.00    +0.000 C 
ATOM     23  N   UNL     1       5.681   3.557  13.269  0.00  0.00    +0.000 NA
ENDBRANCH  16  22
ENDBRANCH   1  18
TORSDOF 3
ENDMDL
MODEL 7
REMARK VINA RESULT:      -6.1      2.529      6.058
REMARK  Name = 
REMARK  6 active torsions:
REMARK  status: ('A' for Active; 'I' for Inactive)
REMARK    1  A    between atoms: C_1  and  O_2
REMARK    2  A    between atoms: O_2  and  C_3
REMARK    3  A    between atoms: C_5  and  C_6
REMARK    4  A    between atoms: C_9  and  C_10
REMARK    5  A    between atoms: N_18  and  C_19
REMARK    6  A    between atoms: N_18  and  C_20
REMARK                            x       y       z     vdW  Elec       q    Type
REMARK                         _______ _______ _______ _____ _____    ______ ____
ROOT
ATOM      1  C   UNL     1       1.865   5.020  19.755  0.00  0.00    +0.000 A 
ATOM      2  C   UNL     1       1.033   4.201  20.507  0.00  0.00    +0.000 A 
ATOM      3  N   UNL     1       1.324   2.902  20.217  0.00  0.00    +0.000 N 
ATOM      4  C   UNL     1       2.316   2.850  19.286  0.00  0.00    +0.000 A 
ATOM      5  N   UNL     1       2.772   1.693  18.790  0.00  0.00    +0.000 NA
ATOM      6  C   UNL     1       3.713   1.897  17.868  0.00  0.00    +0.000 A 
ATOM      7  N   UNL     1       4.206   3.073  17.448  0.00  0.00    +0.000 NA
ATOM      8  C   UNL     1       3.744   4.245  17.977  0.00  0.00    +0.000 A 
ATOM      9  N   UNL     1       4.247   5.451  17.455  0.00  0.00    +0.000 N 
ATOM     10  C   UNL     1       4.980   5.280  16.195  0.00  0.00    +0.000 C 
ATOM     11  C   UNL     1       4.962   6.275  18.428  0.00  0.00    +0.000 C 
ATOM     12  C   UNL     1       2.712   4.147  18.960  0.00  0.00    +0.000 A 
ATOM     13  H   UNL     1       0.865   2.085  20.593  0.00  0.00    +0.000 HD
ENDROOT
BRANCH   1  18
ATOM     14  C   UNL     1       1.854   8.679  18.777  0.00  0.00    +0.000 A 
ATOM     15  C   UNL     1       1.522   9.283  19.980  0.00  0.00    +0.000 A 
ATOM     16  C   UNL     1       1.301   8.493  21.113  0.00  0.00    +0.000 A 
ATOM     17  C   UNL     1       1.434   7.102  21.048  0.00  0.00    +0.000 A 
ATOM     18  C   UNL     1       1.715   6.474  19.835  0.00  0.00    +0.000 A 
ATOM     19  C   UNL     1       1.911   7.282  18.700  0.00  0.00    +0.000 A 
BRANCH  14  21
ATOM     20  C   UNL     1       2.259  10.752  17.689  0.00  0.00    +0.000 C 
ATOM     21  O   UNL     1       2.148   9.335  17.609  0.00  0.00    +0.000 OA
ENDBRANCH  14  21
BRANCH  16  22
ATOM     22  C   UNL     1       0.937   9.113  22.346  0.00  0.00    +0.000 C 
ATOM     23  N   UNL     1       0.622   9.617  23.341  0.00  0.00    +0.000 NA
ENDBRANCH  16  22
ENDBRANCH   1  18
TORSDOF 3
ENDMDL
MODEL 8
REMARK VINA RESULT:      -6.0      3.381      6.666
REMARK  Name = 
REMARK  6 active torsions:
REMARK  status: ('A' for Active; 'I' for Inactive)
REMARK    1  A    between atoms: C_1  and  O_2
REMARK    2  A    between atoms: O_2  and  C_3
REMARK    3  A    between atoms: C_5  and  C_6
REMARK    4  A    between atoms: C_9  and  C_10
REMARK    5  A    between atoms: N_18  and  C_19
REMARK    6  A    between atoms: N_18  and  C_20
REMARK                            x       y       z     vdW  Elec       q    Type
REMARK                         _______ _______ _______ _____ _____    ______ ____
ROOT
ATOM      1  C   UNL     1       2.882   7.252  18.477  0.00  0.00    +0.000 A 
ATOM      2  C   UNL     1       3.634   7.739  17.416  0.00  0.00    +0.000 A 
ATOM      3  N   UNL     1       4.499   6.767  17.013  0.00  0.00    +0.000 N 
ATOM      4  C   UNL     1       4.341   5.661  17.791  0.00  0.00    +0.000 A 
ATOM      5  N   UNL     1       5.094   4.564  17.637  0.00  0.00    +0.000 NA
ATOM      6  C   UNL     1       4.781   3.630  18.536  0.00  0.00    +0.000 A 
ATOM      7  N   UNL     1       3.838   3.694  19.490  0.00  0.00    +0.000 NA
ATOM      8  C   UNL     1       3.065   4.814  19.622  0.00  0.00    +0.000 A 
ATOM      9  N   UNL     1       2.137   4.855  20.679  0.00  0.00    +0.000 N 
ATOM     10  C   UNL     1       2.348   3.804  21.681  0.00  0.00    +0.000 C 
ATOM     11  C   UNL     1       0.744   4.970  20.252  0.00  0.00    +0.000 C 
ATOM     12  C   UNL     1       3.331   5.892  18.725  0.00  0.00    +0.000 A 
ATOM     13  H   UNL     1       5.187   6.841  16.278  0.00  0.00    +0.000 HD
ENDROOT
BRANCH   1  18
ATOM     14  C   UNL     1       0.864   8.955  21.193  0.00  0.00    +0.000 A 
ATOM     15  C   UNL     1      -0.006   9.731  20.441  0.00  0.00    +0.000 A 
ATOM     16  C   UNL     1       0.068   9.698  19.045  0.00  0.00    +0.000 A 
ATOM     17  C   UNL     1       0.996   8.873  18.400  0.00  0.00    +0.000 A 
ATOM     18  C   UNL     1       1.912   8.126  19.139  0.00  0.00    +0.000 A 
ATOM     19  C   UNL     1       1.840   8.189  20.543  0.00  0.00    +0.000 A 
BRANCH  14  21
ATOM     20  C   UNL     1      -0.129   9.604  23.251  0.00  0.00    +0.000 C 
ATOM     21  O   UNL     1       0.864   8.853  22.560  0.00  0.00    +0.000 OA
ENDBRANCH  14  21
BRANCH  16  22
ATOM     22  C   UNL     1      -0.812  10.515  18.272  0.00  0.00    +0.000 C 
ATOM     23  N   UNL     1      -1.516  11.195  17.651  0.00  0.00    +0.000 NA
ENDBRANCH  16  22
ENDBRANCH   1  18
TORSDOF 3
ENDMDL
MODEL 9
REMARK VINA RESULT:      -6.0      2.498      6.373
REMARK  Name = 
REMARK  6 active torsions:
REMARK  status: ('A' for Active; 'I' for Inactive)
REMARK    1  A    between atoms: C_1  and  O_2
REMARK    2  A    between atoms: O_2  and  C_3
REMARK    3  A    between atoms: C_5  and  C_6
REMARK    4  A    between atoms: C_9  and  C_10
REMARK    5  A    between atoms: N_18  and  C_19
REMARK    6  A    between atoms: N_18  and  C_20
REMARK                            x       y       z     vdW  Elec       q    Type
REMARK                         _______ _______ _______ _____ _____    ______ ____
ROOT
ATOM      1  C   UNL     1       4.259   6.242  17.672  0.00  0.00    +0.000 A 
ATOM      2  C   UNL     1       4.877   7.425  17.285  0.00  0.00    +0.000 A 
ATOM      3  N   UNL     1       5.758   7.148  16.284  0.00  0.00    +0.000 N 
ATOM      4  C   UNL     1       5.742   5.814  16.014  0.00  0.00    +0.000 A 
ATOM      5  N   UNL     1       6.544   5.260  15.095  0.00  0.00    +0.000 NA
ATOM      6  C   UNL     1       6.375   3.938  15.037  0.00  0.00    +0.000 A 
ATOM      7  N   UNL     1       5.524   3.189  15.756  0.00  0.00    +0.000 NA
ATOM      8  C   UNL     1       4.699   3.771  16.677  0.00  0.00    +0.000 A 
ATOM      9  N   UNL     1       3.874   2.933  17.449  0.00  0.00    +0.000 N 
ATOM     10  C   UNL     1       4.243   1.515  17.366  0.00  0.00    +0.000 C 
ATOM     11  C   UNL     1       2.442   3.166  17.268  0.00  0.00    +0.000 C 
ATOM     12  C   UNL     1       4.812   5.185  16.842  0.00  0.00    +0.000 A 
ATOM     13  H   UNL     1       6.367   7.806  15.821  0.00  0.00    +0.000 HD
ENDROOT
BRANCH   1  18
ATOM     14  C   UNL     1       1.687   7.458  20.172  0.00  0.00    +0.000 A 
ATOM     15  C   UNL     1       1.523   6.332  20.965  0.00  0.00    +0.000 A 
ATOM     16  C   UNL     1       2.254   5.174  20.683  0.00  0.00    +0.000 A 
ATOM     17  C   UNL     1       3.165   5.149  19.621  0.00  0.00    +0.000 A 
ATOM     18  C   UNL     1       3.304   6.253  18.781  0.00  0.00    +0.000 A 
ATOM     19  C   UNL     1       2.543   7.402  19.065  0.00  0.00    +0.000 A 
BRANCH  14  21
ATOM     20  C   UNL     1       0.249   8.781  21.524  0.00  0.00    +0.000 C 
ATOM     21  O   UNL     1       1.076   8.669  20.370  0.00  0.00    +0.000 OA
ENDBRANCH  14  21
BRANCH  16  22
ATOM     22  C   UNL     1       2.068   4.008  21.486  0.00  0.00    +0.000 C 
ATOM     23  N   UNL     1       1.897   3.061  22.131  0.00  0.00    +0.000 NA
ENDBRANCH  16  22
ENDBRANCH   1  18
TORSDOF 3
ENDMDL
