MODEL 1
REMARK VINA RESULT:      -8.0      0.000      0.000
REMARK  Name = 
REMARK  11 active torsions:
REMARK  status: ('A' for Active; 'I' for Inactive)
REMARK    1  A    between atoms: C_1  and  O_2
REMARK    2  A    between atoms: O_2  and  C_3
REMARK    3  A    between atoms: C_3  and  C_4
REMARK    4  A    between atoms: C_3  and  C_10
REMARK    5  A    between atoms: C_13  and  C_14
REMARK    6  A    between atoms: C_14  and  C_15
REMARK    7  A    between atoms: C_15  and  C_16
REMARK    8  A    between atoms: N_18  and  C_19
REMARK    9  A    between atoms: N_18  and  C_20
REMARK   10  A    between atoms: C_20  and  C_21
REMARK   11  A    between atoms: C_25  and  N_26
REMARK                            x       y       z     vdW  Elec       q    Type
REMARK                         _______ _______ _______ _____ _____    ______ ____
ROOT
ATOM      1  C   UNL     1       9.026   9.666  19.136  0.00  0.00    +0.000 C 
ENDROOT
BRANCH   1   2
ATOM      2  C   UNL     1       9.845  10.940  19.163  0.00  0.00    +0.000 C 
ATOM      3  O   UNL     1      10.538  11.258  18.195  0.00  0.00    +0.000 OA
ATOM      4  N   UNL     1       9.722  11.742  20.292  0.00  0.00    +0.000 N 
ATOM      5  C   UNL     1       8.900  11.400  21.447  0.00  0.00    +0.000 C 
BRANCH   4   6
ATOM      6  C   UNL     1      10.515  12.964  20.376  0.00  0.00    +0.000 C 
BRANCH   6   7
ATOM      7  C   UNL     1      10.017  14.127  19.545  0.00  0.00    +0.000 A 
ATOM      8  C   UNL     1      10.888  14.813  18.683  0.00  0.00    +0.000 A 
ATOM      9  C   UNL     1      10.399  15.756  17.776  0.00  0.00    +0.000 A 
ATOM     10  C   UNL     1       9.030  16.023  17.705  0.00  0.00    +0.000 A 
ATOM     11  C   UNL     1       8.153  15.380  18.586  0.00  0.00    +0.000 A 
ATOM     12  C   UNL     1       8.654  14.460  19.524  0.00  0.00    +0.000 A 
BRANCH  11  13
ATOM     13  N   UNL     1       6.753  15.622  18.531  0.00  0.00    +0.000 N 
ATOM     14  C   UNL     1       5.789  14.908  17.847  0.00  0.00    +0.000 A 
ATOM     15  C   UNL     1       4.592  15.557  18.036  0.00  0.00    +0.000 A 
ATOM     16  C   UNL     1       4.907  16.634  18.875  0.00  0.00    +0.000 A 
ATOM     17  N   UNL     1       6.197  16.660  19.211  0.00  0.00    +0.000 NA
ENDBRANCH  11  13
ENDBRANCH   6   7
ENDBRANCH   4   6
ENDBRANCH   1   2
BRANCH   1  18
ATOM     18  C   UNL     1       8.469   9.351  17.750  0.00  0.00    +0.000 C 
BRANCH  18  22
ATOM     19  C   UNL     1       6.637   6.386  17.106  0.00  0.00    +0.000 A 
ATOM     20  N   UNL     1       7.237   5.986  18.209  0.00  0.00    +0.000 NA
ATOM     21  N   UNL     1       8.016   7.032  18.640  0.00  0.00    +0.000 NA
ATOM     22  C   UNL     1       7.842   8.010  17.765  0.00  0.00    +0.000 A 
ATOM     23  O   UNL     1       6.977   7.674  16.755  0.00  0.00    +0.000 OA
BRANCH  19  24
ATOM     24  C   UNL     1       5.578   5.669  16.328  0.00  0.00    +0.000 C 
BRANCH  24  25
ATOM     25  C   UNL     1       4.318   5.425  17.148  0.00  0.00    +0.000 A 
ATOM     26  C   UNL     1       3.612   6.466  17.770  0.00  0.00    +0.000 A 
ATOM     27  C   UNL     1       2.444   6.205  18.494  0.00  0.00    +0.000 A 
ATOM     28  C   UNL     1       1.955   4.904  18.594  0.00  0.00    +0.000 A 
ATOM     29  C   UNL     1       2.638   3.859  17.979  0.00  0.00    +0.000 A 
ATOM     30  C   UNL     1       3.813   4.116  17.264  0.00  0.00    +0.000 A 
ENDBRANCH  24  25
BRANCH  24  32
ATOM     31  C   UNL     1       6.813   4.627  14.563  0.00  0.00    +0.000 C 
ATOM     32  O   UNL     1       6.111   4.440  15.792  0.00  0.00    +0.000 OA
ENDBRANCH  24  32
ENDBRANCH  19  24
ENDBRANCH  18  22
ENDBRANCH   1  18
TORSDOF 9
ENDMDL
MODEL 2
REMARK VINA RESULT:      -7.9      6.991      9.292
REMARK  Name = 
REMARK  11 active torsions:
REMARK  status: ('A' for Active; 'I' for Inactive)
REMARK    1  A    between atoms: C_1  and  O_2
REMARK    2  A    between atoms: O_2  and  C_3
REMARK    3  A    between atoms: C_3  and  C_4
REMARK    4  A    between atoms: C_3  and  C_10
REMARK    5  A    between atoms: C_13  and  C_14
REMARK    6  A    between atoms: C_14  and  C_15
REMARK    7  A    between atoms: C_15  and  C_16
REMARK    8  A    between atoms: N_18  and  C_19
REMARK    9  A    between atoms: N_18  and  C_20
REMARK   10  A    between atoms: C_20  and  C_21
REMARK   11  A    between atoms: C_25  and  N_26
REMARK                            x       y       z     vdW  Elec       q    Type
REMARK                         _______ _______ _______ _____ _____    ______ ____
ROOT
ATOM      1  C   UNL     1       0.687   9.329  17.954  0.00  0.00    +0.000 C 
ENDROOT
BRANCH   1   2
ATOM      2  C   UNL     1       0.377  10.621  18.681  0.00  0.00    +0.000 C 
ATOM      3  O   UNL     1       1.286  11.310  19.148  0.00  0.00    +0.000 OA
ATOM      4  N   UNL     1      -0.959  11.006  18.734  0.00  0.00    +0.000 N 
ATOM      5  C   UNL     1      -2.055  10.219  18.179  0.00  0.00    +0.000 C 
BRANCH   4   6
ATOM      6  C   UNL     1      -1.310  12.228  19.450  0.00  0.00    +0.000 C 
BRANCH   6   7
ATOM      7  C   UNL     1      -1.891  12.032  20.835  0.00  0.00    +0.000 A 
ATOM      8  C   UNL     1      -1.130  11.431  21.849  0.00  0.00    +0.000 A 
ATOM      9  C   UNL     1      -1.582  11.419  23.170  0.00  0.00    +0.000 A 
ATOM     10  C   UNL     1      -2.798  12.019  23.505  0.00  0.00    +0.000 A 
ATOM     11  C   UNL     1      -3.591  12.585  22.499  0.00  0.00    +0.000 A 
ATOM     12  C   UNL     1      -3.149  12.559  21.164  0.00  0.00    +0.000 A 
BRANCH  11  13
ATOM     13  N   UNL     1      -4.828  13.212  22.808  0.00  0.00    +0.000 N 
ATOM     14  C   UNL     1      -5.264  14.469  22.439  0.00  0.00    +0.000 A 
ATOM     15  C   UNL     1      -6.491  14.663  23.029  0.00  0.00    +0.000 A 
ATOM     16  C   UNL     1      -6.746  13.465  23.708  0.00  0.00    +0.000 A 
ATOM     17  N   UNL     1      -5.770  12.570  23.550  0.00  0.00    +0.000 NA
ENDBRANCH  11  13
ENDBRANCH   6   7
ENDBRANCH   4   6
ENDBRANCH   1   2
BRANCH   1  18
ATOM     18  C   UNL     1       2.177   8.993  17.959  0.00  0.00    +0.000 C 
BRANCH  18  22
ATOM     19  C   UNL     1       3.039   5.658  18.798  0.00  0.00    +0.000 A 
ATOM     20  N   UNL     1       2.452   5.979  19.933  0.00  0.00    +0.000 NA
ATOM     21  N   UNL     1       2.023   7.278  19.807  0.00  0.00    +0.000 NA
ATOM     22  C   UNL     1       2.379   7.670  18.594  0.00  0.00    +0.000 A 
ATOM     23  O   UNL     1       3.035   6.694  17.888  0.00  0.00    +0.000 OA
BRANCH  19  24
ATOM     24  C   UNL     1       3.550   4.316  18.378  0.00  0.00    +0.000 C 
BRANCH  24  25
ATOM     25  C   UNL     1       4.851   4.407  17.591  0.00  0.00    +0.000 A 
ATOM     26  C   UNL     1       6.078   4.714  18.200  0.00  0.00    +0.000 A 
ATOM     27  C   UNL     1       7.256   4.764  17.448  0.00  0.00    +0.000 A 
ATOM     28  C   UNL     1       7.229   4.493  16.081  0.00  0.00    +0.000 A 
ATOM     29  C   UNL     1       6.024   4.182  15.461  0.00  0.00    +0.000 A 
ATOM     30  C   UNL     1       4.841   4.142  16.209  0.00  0.00    +0.000 A 
ENDBRANCH  24  25
BRANCH  24  32
ATOM     31  C   UNL     1       2.254   2.315  18.170  0.00  0.00    +0.000 C 
ATOM     32  O   UNL     1       2.530   3.611  17.640  0.00  0.00    +0.000 OA
ENDBRANCH  24  32
ENDBRANCH  19  24
ENDBRANCH  18  22
ENDBRANCH   1  18
TORSDOF 9
ENDMDL
MODEL 3
REMARK VINA RESULT:      -7.6      6.471      9.119
REMARK  Name = 
REMARK  11 active torsions:
REMARK  status: ('A' for Active; 'I' for Inactive)
REMARK    1  A    between atoms: C_1  and  O_2
REMARK    2  A    between atoms: O_2  and  C_3
REMARK    3  A    between atoms: C_3  and  C_4
REMARK    4  A    between atoms: C_3  and  C_10
REMARK    5  A    between atoms: C_13  and  C_14
REMARK    6  A    between atoms: C_14  and  C_15
REMARK    7  A    between atoms: C_15  and  C_16
REMARK    8  A    between atoms: N_18  and  C_19
REMARK    9  A    between atoms: N_18  and  C_20
REMARK   10  A    between atoms: C_20  and  C_21
REMARK   11  A    between atoms: C_25  and  N_26
REMARK                            x       y       z     vdW  Elec       q    Type
REMARK                         _______ _______ _______ _____ _____    ______ ____
ROOT
ATOM      1  C   UNL     1       1.189   9.252  21.943  0.00  0.00    +0.000 C 
ENDROOT
BRANCH   1   2
ATOM      2  C   UNL     1       0.197  10.379  22.144  0.00  0.00    +0.000 C 
ATOM      3  O   UNL     1      -0.585  10.362  23.097  0.00  0.00    +0.000 OA
ATOM      4  N   UNL     1       0.262  11.440  21.248  0.00  0.00    +0.000 N 
ATOM      5  C   UNL     1       1.185  11.496  20.119  0.00  0.00    +0.000 C 
BRANCH   4   6
ATOM      6  C   UNL     1      -0.694  12.534  21.382  0.00  0.00    +0.000 C 
BRANCH   6   7
ATOM      7  C   UNL     1      -2.026  12.329  20.692  0.00  0.00    +0.000 A 
ATOM      8  C   UNL     1      -3.198  12.892  21.221  0.00  0.00    +0.000 A 
ATOM      9  C   UNL     1      -4.391  12.872  20.495  0.00  0.00    +0.000 A 
ATOM     10  C   UNL     1      -4.433  12.299  19.223  0.00  0.00    +0.000 A 
ATOM     11  C   UNL     1      -3.284  11.694  18.697  0.00  0.00    +0.000 A 
ATOM     12  C   UNL     1      -2.095  11.683  19.448  0.00  0.00    +0.000 A 
BRANCH  11  13
ATOM     13  N   UNL     1      -3.291  11.113  17.401  0.00  0.00    +0.000 N 
ATOM     14  C   UNL     1      -2.403  10.199  16.869  0.00  0.00    +0.000 A 
ATOM     15  C   UNL     1      -2.774   9.983  15.563  0.00  0.00    +0.000 A 
ATOM     16  C   UNL     1      -3.918  10.773  15.389  0.00  0.00    +0.000 A 
ATOM     17  N   UNL     1      -4.261  11.427  16.500  0.00  0.00    +0.000 NA
ENDBRANCH  11  13
ENDBRANCH   6   7
ENDBRANCH   4   6
ENDBRANCH   1   2
BRANCH   1  18
ATOM     18  C   UNL     1       0.560   8.022  21.293  0.00  0.00    +0.000 C 
BRANCH  18  22
ATOM     19  C   UNL     1       2.829   5.863  19.632  0.00  0.00    +0.000 A 
ATOM     20  N   UNL     1       2.936   6.894  18.817  0.00  0.00    +0.000 NA
ATOM     21  N   UNL     1       2.112   7.877  19.307  0.00  0.00    +0.000 NA
ATOM     22  C   UNL     1       1.550   7.380  20.397  0.00  0.00    +0.000 A 
ATOM     23  O   UNL     1       1.954   6.099  20.670  0.00  0.00    +0.000 OA
BRANCH  19  24
ATOM     24  C   UNL     1       3.625   4.597  19.617  0.00  0.00    +0.000 C 
BRANCH  24  25
ATOM     25  C   UNL     1       4.841   4.683  18.702  0.00  0.00    +0.000 A 
ATOM     26  C   UNL     1       4.814   4.236  17.372  0.00  0.00    +0.000 A 
ATOM     27  C   UNL     1       5.943   4.355  16.554  0.00  0.00    +0.000 A 
ATOM     28  C   UNL     1       7.109   4.937  17.048  0.00  0.00    +0.000 A 
ATOM     29  C   UNL     1       7.153   5.390  18.362  0.00  0.00    +0.000 A 
ATOM     30  C   UNL     1       6.029   5.262  19.186  0.00  0.00    +0.000 A 
ENDBRANCH  24  25
BRANCH  24  32
ATOM     31  C   UNL     1       2.410   2.687  20.393  0.00  0.00    +0.000 C 
ATOM     32  O   UNL     1       2.774   3.486  19.267  0.00  0.00    +0.000 OA
ENDBRANCH  24  32
ENDBRANCH  19  24
ENDBRANCH  18  22
ENDBRANCH   1  18
TORSDOF 9
ENDMDL
MODEL 4
REMARK VINA RESULT:      -7.6      5.464      7.958
REMARK  Name = 
REMARK  11 active torsions:
REMARK  status: ('A' for Active; 'I' for Inactive)
REMARK    1  A    between atoms: C_1  and  O_2
REMARK    2  A    between atoms: O_2  and  C_3
REMARK    3  A    between atoms: C_3  and  C_4
REMARK    4  A    between atoms: C_3  and  C_10
REMARK    5  A    between atoms: C_13  and  C_14
REMARK    6  A    between atoms: C_14  and  C_15
REMARK    7  A    between atoms: C_15  and  C_16
REMARK    8  A    between atoms: N_18  and  C_19
REMARK    9  A    between atoms: N_18  and  C_20
REMARK   10  A    between atoms: C_20  and  C_21
REMARK   11  A    between atoms: C_25  and  N_26
REMARK                            x       y       z     vdW  Elec       q    Type
REMARK                         _______ _______ _______ _____ _____    ______ ____
ROOT
ATOM      1  C   UNL     1       2.926   2.088  19.517  0.00  0.00    +0.000 C 
ENDROOT
BRANCH   1   2
ATOM      2  C   UNL     1       2.077   3.198  20.101  0.00  0.00    +0.000 C 
ATOM      3  O   UNL     1       0.886   3.008  20.355  0.00  0.00    +0.000 OA
ATOM      4  N   UNL     1       2.722   4.397  20.386  0.00  0.00    +0.000 N 
ATOM      5  C   UNL     1       4.132   4.648  20.110  0.00  0.00    +0.000 C 
BRANCH   4   6
ATOM      6  C   UNL     1       1.939   5.506  20.921  0.00  0.00    +0.000 C 
BRANCH   6   7
ATOM      7  C   UNL     1       1.980   6.787  20.114  0.00  0.00    +0.000 A 
ATOM      8  C   UNL     1       2.497   6.792  18.810  0.00  0.00    +0.000 A 
ATOM      9  C   UNL     1       2.365   7.917  17.993  0.00  0.00    +0.000 A 
ATOM     10  C   UNL     1       1.703   9.054  18.461  0.00  0.00    +0.000 A 
ATOM     11  C   UNL     1       1.219   9.082  19.774  0.00  0.00    +0.000 A 
ATOM     12  C   UNL     1       1.389   7.961  20.606  0.00  0.00    +0.000 A 
BRANCH  11  13
ATOM     13  N   UNL     1       0.531  10.220  20.276  0.00  0.00    +0.000 N 
ATOM     14  C   UNL     1      -0.682  10.736  19.864  0.00  0.00    +0.000 A 
ATOM     15  C   UNL     1      -0.907  11.879  20.594  0.00  0.00    +0.000 A 
ATOM     16  C   UNL     1       0.197  11.969  21.452  0.00  0.00    +0.000 A 
ATOM     17  N   UNL     1       1.049  10.955  21.297  0.00  0.00    +0.000 NA
ENDBRANCH  11  13
ENDBRANCH   6   7
ENDBRANCH   4   6
ENDBRANCH   1   2
BRANCH   1  18
ATOM     18  C   UNL     1       2.730   1.925  18.012  0.00  0.00    +0.000 C 
BRANCH  18  22
ATOM     19  C   UNL     1       5.042   4.055  16.374  0.00  0.00    +0.000 A 
ATOM     20  N   UNL     1       3.976   4.821  16.249  0.00  0.00    +0.000 NA
ATOM     21  N   UNL     1       2.935   4.157  16.848  0.00  0.00    +0.000 NA
ATOM     22  C   UNL     1       3.434   3.019  17.304  0.00  0.00    +0.000 A 
ATOM     23  O   UNL     1       4.772   2.879  17.038  0.00  0.00    +0.000 OA
BRANCH  19  24
ATOM     24  C   UNL     1       6.455   4.387  16.013  0.00  0.00    +0.000 C 
BRANCH  24  25
ATOM     25  C   UNL     1       7.081   5.392  16.971  0.00  0.00    +0.000 A 
ATOM     26  C   UNL     1       7.165   6.761  16.676  0.00  0.00    +0.000 A 
ATOM     27  C   UNL     1       7.725   7.658  17.592  0.00  0.00    +0.000 A 
ATOM     28  C   UNL     1       8.194   7.203  18.822  0.00  0.00    +0.000 A 
ATOM     29  C   UNL     1       8.114   5.850  19.136  0.00  0.00    +0.000 A 
ATOM     30  C   UNL     1       7.565   4.949  18.217  0.00  0.00    +0.000 A 
ENDBRANCH  24  25
BRANCH  24  32
ATOM     31  C   UNL     1       6.356   3.789  13.698  0.00  0.00    +0.000 C 
ATOM     32  O   UNL     1       6.518   4.844  14.646  0.00  0.00    +0.000 OA
ENDBRANCH  24  32
ENDBRANCH  19  24
ENDBRANCH  18  22
ENDBRANCH   1  18
TORSDOF 9
ENDMDL
MODEL 5
REMARK VINA RESULT:      -7.6      4.746      9.332
REMARK  Name = 
REMARK  11 active torsions:
REMARK  status: ('A' for Active; 'I' for Inactive)
REMARK    1  A    between atoms: C_1  and  O_2
REMARK    2  A    between atoms: O_2  and  C_3
REMARK    3  A    between atoms: C_3  and  C_4
REMARK    4  A    between atoms: C_3  and  C_10
REMARK    5  A    between atoms: C_13  and  C_14
REMARK    6  A    between atoms: C_14  and  C_15
REMARK    7  A    between atoms: C_15  and  C_16
REMARK    8  A    between atoms: N_18  and  C_19
REMARK    9  A    between atoms: N_18  and  C_20
REMARK   10  A    between atoms: C_20  and  C_21
REMARK   11  A    between atoms: C_25  and  N_26
REMARK                            x       y       z     vdW  Elec       q    Type
REMARK                         _______ _______ _______ _____ _____    ______ ____
ROOT
ATOM      1  C   UNL     1       1.770   4.963  20.132  0.00  0.00    +0.000 C 
ENDROOT
BRANCH   1   2
ATOM      2  C   UNL     1       2.863   4.084  19.560  0.00  0.00    +0.000 C 
ATOM      3  O   UNL     1       3.778   3.676  20.278  0.00  0.00    +0.000 OA
ATOM      4  N   UNL     1       2.741   3.721  18.223  0.00  0.00    +0.000 N 
ATOM      5  C   UNL     1       1.663   4.176  17.352  0.00  0.00    +0.000 C 
BRANCH   4   6
ATOM      6  C   UNL     1       3.785   2.900  17.620  0.00  0.00    +0.000 C 
BRANCH   6   7
ATOM      7  C   UNL     1       4.847   3.653  16.847  0.00  0.00    +0.000 A 
ATOM      8  C   UNL     1       4.961   3.499  15.457  0.00  0.00    +0.000 A 
ATOM      9  C   UNL     1       5.804   4.329  14.713  0.00  0.00    +0.000 A 
ATOM     10  C   UNL     1       6.539   5.335  15.343  0.00  0.00    +0.000 A 
ATOM     11  C   UNL     1       6.470   5.475  16.734  0.00  0.00    +0.000 A 
ATOM     12  C   UNL     1       5.650   4.612  17.483  0.00  0.00    +0.000 A 
BRANCH  11  13
ATOM     13  N   UNL     1       7.197   6.496  17.404  0.00  0.00    +0.000 N 
ATOM     14  C   UNL     1       7.894   6.409  18.593  0.00  0.00    +0.000 A 
ATOM     15  C   UNL     1       8.374   7.666  18.876  0.00  0.00    +0.000 A 
ATOM     16  C   UNL     1       7.956   8.452  17.793  0.00  0.00    +0.000 A 
ATOM     17  N   UNL     1       7.282   7.749  16.882  0.00  0.00    +0.000 NA
ENDBRANCH  11  13
ENDBRANCH   6   7
ENDBRANCH   4   6
ENDBRANCH   1   2
BRANCH   1  18
ATOM     18  C   UNL     1       2.302   6.292  20.666  0.00  0.00    +0.000 C 
BRANCH  18  22
ATOM     19  C   UNL     1       1.505   9.152  18.729  0.00  0.00    +0.000 A 
ATOM     20  N   UNL     1       2.276   8.549  17.845  0.00  0.00    +0.000 NA
ATOM     21  N   UNL     1       2.696   7.374  18.419  0.00  0.00    +0.000 NA
ATOM     22  C   UNL     1       2.152   7.334  19.624  0.00  0.00    +0.000 A 
ATOM     23  O   UNL     1       1.380   8.434  19.898  0.00  0.00    +0.000 OA
BRANCH  19  24
ATOM     24  C   UNL     1       0.691  10.393  18.538  0.00  0.00    +0.000 C 
BRANCH  24  25
ATOM     25  C   UNL     1       1.437  11.651  18.964  0.00  0.00    +0.000 A 
ATOM     26  C   UNL     1       1.334  12.185  20.258  0.00  0.00    +0.000 A 
ATOM     27  C   UNL     1       2.054  13.328  20.619  0.00  0.00    +0.000 A 
ATOM     28  C   UNL     1       2.900  13.945  19.699  0.00  0.00    +0.000 A 
ATOM     29  C   UNL     1       3.019  13.427  18.414  0.00  0.00    +0.000 A 
ATOM     30  C   UNL     1       2.291  12.290  18.046  0.00  0.00    +0.000 A 
ENDBRANCH  24  25
BRANCH  24  32
ATOM     31  C   UNL     1      -1.658  10.848  18.514  0.00  0.00    +0.000 C 
ATOM     32  O   UNL     1      -0.570  10.262  19.228  0.00  0.00    +0.000 OA
ENDBRANCH  24  32
ENDBRANCH  19  24
ENDBRANCH  18  22
ENDBRANCH   1  18
TORSDOF 9
ENDMDL
MODEL 6
REMARK VINA RESULT:      -7.5      6.795      9.030
REMARK  Name = 
REMARK  11 active torsions:
REMARK  status: ('A' for Active; 'I' for Inactive)
REMARK    1  A    between atoms: C_1  and  O_2
REMARK    2  A    between atoms: O_2  and  C_3
REMARK    3  A    between atoms: C_3  and  C_4
REMARK    4  A    between atoms: C_3  and  C_10
REMARK    5  A    between atoms: C_13  and  C_14
REMARK    6  A    between atoms: C_14  and  C_15
REMARK    7  A    between atoms: C_15  and  C_16
REMARK    8  A    between atoms: N_18  and  C_19
REMARK    9  A    between atoms: N_18  and  C_20
REMARK   10  A    between atoms: C_20  and  C_21
REMARK   11  A    between atoms: C_25  and  N_26
REMARK                            x       y       z     vdW  Elec       q    Type
REMARK                         _______ _______ _______ _____ _____    ______ ____
ROOT
ATOM      1  C   UNL     1       1.883  10.009  18.473  0.00  0.00    +0.000 C 
ENDROOT
BRANCH   1   2
ATOM      2  C   UNL     1       0.524  10.643  18.683  0.00  0.00    +0.000 C 
ATOM      3  O   UNL     1      -0.504  10.041  18.366  0.00  0.00    +0.000 OA
ATOM      4  N   UNL     1       0.501  11.890  19.299  0.00  0.00    +0.000 N 
ATOM      5  C   UNL     1       1.699  12.622  19.698  0.00  0.00    +0.000 C 
BRANCH   4   6
ATOM      6  C   UNL     1      -0.783  12.555  19.494  0.00  0.00    +0.000 C 
BRANCH   6   7
ATOM      7  C   UNL     1      -1.501  12.227  20.786  0.00  0.00    +0.000 A 
ATOM      8  C   UNL     1      -0.834  11.558  21.823  0.00  0.00    +0.000 A 
ATOM      9  C   UNL     1      -1.424  11.423  23.082  0.00  0.00    +0.000 A 
ATOM     10  C   UNL     1      -2.687  11.964  23.331  0.00  0.00    +0.000 A 
ATOM     11  C   UNL     1      -3.385  12.597  22.296  0.00  0.00    +0.000 A 
ATOM     12  C   UNL     1      -2.803  12.697  21.019  0.00  0.00    +0.000 A 
BRANCH  11  13
ATOM     13  N   UNL     1      -4.667  13.168  22.520  0.00  0.00    +0.000 N 
ATOM     14  C   UNL     1      -5.184  14.338  22.000  0.00  0.00    +0.000 A 
ATOM     15  C   UNL     1      -6.430  14.514  22.555  0.00  0.00    +0.000 A 
ATOM     16  C   UNL     1      -6.611  13.390  23.372  0.00  0.00    +0.000 A 
ATOM     17  N   UNL     1      -5.573  12.554  23.328  0.00  0.00    +0.000 NA
ENDBRANCH  11  13
ENDBRANCH   6   7
ENDBRANCH   4   6
ENDBRANCH   1   2
BRANCH   1  18
ATOM     18  C   UNL     1       1.815   8.732  17.638  0.00  0.00    +0.000 C 
BRANCH  18  22
ATOM     19  C   UNL     1       3.135   5.696  18.906  0.00  0.00    +0.000 A 
ATOM     20  N   UNL     1       2.759   6.219  20.056  0.00  0.00    +0.000 NA
ATOM     21  N   UNL     1       2.194   7.438  19.774  0.00  0.00    +0.000 NA
ATOM     22  C   UNL     1       2.262   7.583  18.460  0.00  0.00    +0.000 A 
ATOM     23  O   UNL     1       2.852   6.515  17.835  0.00  0.00    +0.000 OA
BRANCH  19  24
ATOM     24  C   UNL     1       3.674   4.322  18.657  0.00  0.00    +0.000 C 
BRANCH  24  25
ATOM     25  C   UNL     1       4.869   4.328  17.712  0.00  0.00    +0.000 A 
ATOM     26  C   UNL     1       4.748   4.040  16.344  0.00  0.00    +0.000 A 
ATOM     27  C   UNL     1       5.865   4.080  15.503  0.00  0.00    +0.000 A 
ATOM     28  C   UNL     1       7.115   4.423  16.012  0.00  0.00    +0.000 A 
ATOM     29  C   UNL     1       7.255   4.716  17.365  0.00  0.00    +0.000 A 
ATOM     30  C   UNL     1       6.141   4.666  18.211  0.00  0.00    +0.000 A 
ENDBRANCH  24  25
BRANCH  24  32
ATOM     31  C   UNL     1       1.962   2.749  19.225  0.00  0.00    +0.000 C 
ATOM     32  O   UNL     1       2.620   3.461  18.177  0.00  0.00    +0.000 OA
ENDBRANCH  24  32
ENDBRANCH  19  24
ENDBRANCH  18  22
ENDBRANCH   1  18
TORSDOF 9
ENDMDL
MODEL 7
REMARK VINA RESULT:      -7.5      1.702      2.264
REMARK  Name = 
REMARK  11 active torsions:
REMARK  status: ('A' for Active; 'I' for Inactive)
REMARK    1  A    between atoms: C_1  and  O_2
REMARK    2  A    between atoms: O_2  and  C_3
REMARK    3  A    between atoms: C_3  and  C_4
REMARK    4  A    between atoms: C_3  and  C_10
REMARK    5  A    between atoms: C_13  and  C_14
REMARK    6  A    between atoms: C_14  and  C_15
REMARK    7  A    between atoms: C_15  and  C_16
REMARK    8  A    between atoms: N_18  and  C_19
REMARK    9  A    between atoms: N_18  and  C_20
REMARK   10  A    between atoms: C_20  and  C_21
REMARK   11  A    between atoms: C_25  and  N_26
REMARK                            x       y       z     vdW  Elec       q    Type
REMARK                         _______ _______ _______ _____ _____    ______ ____
ROOT
ATOM      1  C   UNL     1       9.373   9.592  19.005  0.00  0.00    +0.000 C 
ENDROOT
BRANCH   1   2
ATOM      2  C   UNL     1       9.434  10.946  19.683  0.00  0.00    +0.000 C 
ATOM      3  O   UNL     1       8.924  11.113  20.792  0.00  0.00    +0.000 OA
ATOM      4  N   UNL     1      10.138  11.947  19.022  0.00  0.00    +0.000 N 
ATOM      5  C   UNL     1      10.763  11.775  17.715  0.00  0.00    +0.000 C 
BRANCH   4   6
ATOM      6  C   UNL     1      10.198  13.276  19.621  0.00  0.00    +0.000 C 
BRANCH   6   7
ATOM      7  C   UNL     1       8.971  14.141  19.422  0.00  0.00    +0.000 A 
ATOM      8  C   UNL     1       8.582  14.540  18.134  0.00  0.00    +0.000 A 
ATOM      9  C   UNL     1       7.354  15.172  17.922  0.00  0.00    +0.000 A 
ATOM     10  C   UNL     1       6.488  15.407  18.992  0.00  0.00    +0.000 A 
ATOM     11  C   UNL     1       6.880  15.055  20.290  0.00  0.00    +0.000 A 
ATOM     12  C   UNL     1       8.133  14.454  20.503  0.00  0.00    +0.000 A 
BRANCH  11  13
ATOM     13  N   UNL     1       6.016  15.271  21.398  0.00  0.00    +0.000 N 
ATOM     14  C   UNL     1       5.857  14.485  22.522  0.00  0.00    +0.000 A 
ATOM     15  C   UNL     1       4.864  15.059  23.281  0.00  0.00    +0.000 A 
ATOM     16  C   UNL     1       4.498  16.208  22.569  0.00  0.00    +0.000 A 
ATOM     17  N   UNL     1       5.212  16.367  21.454  0.00  0.00    +0.000 NA
ENDBRANCH  11  13
ENDBRANCH   6   7
ENDBRANCH   4   6
ENDBRANCH   1   2
BRANCH   1  18
ATOM     18  C   UNL     1       8.265   9.507  17.957  0.00  0.00    +0.000 C 
BRANCH  18  22
ATOM     19  C   UNL     1       6.805   6.416  17.018  0.00  0.00    +0.000 A 
ATOM     20  N   UNL     1       7.472   5.984  18.070  0.00  0.00    +0.000 NA
ATOM     21  N   UNL     1       8.122   7.070  18.603  0.00  0.00    +0.000 NA
ATOM     22  C   UNL     1       7.810   8.102  17.836  0.00  0.00    +0.000 A 
ATOM     23  O   UNL     1       6.976   7.766  16.802  0.00  0.00    +0.000 OA
BRANCH  19  24
ATOM     24  C   UNL     1       5.830   5.655  16.176  0.00  0.00    +0.000 C 
BRANCH  24  25
ATOM     25  C   UNL     1       4.525   5.369  16.910  0.00  0.00    +0.000 A 
ATOM     26  C   UNL     1       3.962   4.085  16.969  0.00  0.00    +0.000 A 
ATOM     27  C   UNL     1       2.776   3.857  17.675  0.00  0.00    +0.000 A 
ATOM     28  C   UNL     1       2.144   4.903  18.343  0.00  0.00    +0.000 A 
ATOM     29  C   UNL     1       2.690   6.182  18.301  0.00  0.00    +0.000 A 
ATOM     30  C   UNL     1       3.871   6.416  17.587  0.00  0.00    +0.000 A 
ENDBRANCH  24  25
BRANCH  24  32
ATOM     31  C   UNL     1       7.028   4.598  14.396  0.00  0.00    +0.000 C 
ATOM     32  O   UNL     1       6.443   4.444  15.689  0.00  0.00    +0.000 OA
ENDBRANCH  24  32
ENDBRANCH  19  24
ENDBRANCH  18  22
ENDBRANCH   1  18
TORSDOF 9
ENDMDL
MODEL 8
REMARK VINA RESULT:      -7.5      6.565     10.183
REMARK  Name = 
REMARK  11 active torsions:
REMARK  status: ('A' for Active; 'I' for Inactive)
REMARK    1  A    between atoms: C_1  and  O_2
REMARK    2  A    between atoms: O_2  and  C_3
REMARK    3  A    between atoms: C_3  and  C_4
REMARK    4  A    between atoms: C_3  and  C_10
REMARK    5  A    between atoms: C_13  and  C_14
REMARK    6  A    between atoms: C_14  and  C_15
REMARK    7  A    between atoms: C_15  and  C_16
REMARK    8  A    between atoms: N_18  and  C_19
REMARK    9  A    between atoms: N_18  and  C_20
REMARK   10  A    between atoms: C_20  and  C_21
REMARK   11  A    between atoms: C_25  and  N_26
REMARK                            x       y       z     vdW  Elec       q    Type
REMARK                         _______ _______ _______ _____ _____    ______ ____
ROOT
ATOM      1  C   UNL     1       1.438   5.741  19.993  0.00  0.00    +0.000 C 
ENDROOT
BRANCH   1   2
ATOM      2  C   UNL     1       2.186   5.060  18.866  0.00  0.00    +0.000 C 
ATOM      3  O   UNL     1       2.188   5.545  17.733  0.00  0.00    +0.000 OA
ATOM      4  N   UNL     1       2.907   3.916  19.192  0.00  0.00    +0.000 N 
ATOM      5  C   UNL     1       2.936   3.326  20.526  0.00  0.00    +0.000 C 
BRANCH   4   6
ATOM      6  C   UNL     1       3.619   3.208  18.133  0.00  0.00    +0.000 C 
BRANCH   6   7
ATOM      7  C   UNL     1       4.852   3.901  17.595  0.00  0.00    +0.000 A 
ATOM      8  C   UNL     1       5.826   4.407  18.470  0.00  0.00    +0.000 A 
ATOM      9  C   UNL     1       7.050   4.874  17.985  0.00  0.00    +0.000 A 
ATOM     10  C   UNL     1       7.328   4.833  16.617  0.00  0.00    +0.000 A 
ATOM     11  C   UNL     1       6.352   4.372  15.726  0.00  0.00    +0.000 A 
ATOM     12  C   UNL     1       5.107   3.939  16.215  0.00  0.00    +0.000 A 
BRANCH  11  13
ATOM     13  N   UNL     1       6.609   4.307  14.329  0.00  0.00    +0.000 N 
ATOM     14  C   UNL     1       7.541   5.017  13.598  0.00  0.00    +0.000 A 
ATOM     15  C   UNL     1       7.372   4.670  12.279  0.00  0.00    +0.000 A 
ATOM     16  C   UNL     1       6.344   3.719  12.296  0.00  0.00    +0.000 A 
ATOM     17  N   UNL     1       5.904   3.464  13.528  0.00  0.00    +0.000 NA
ENDBRANCH  11  13
ENDBRANCH   6   7
ENDBRANCH   4   6
ENDBRANCH   1   2
BRANCH   1  18
ATOM     18  C   UNL     1       2.173   6.966  20.533  0.00  0.00    +0.000 C 
BRANCH  18  22
ATOM     19  C   UNL     1       0.547   9.945  19.509  0.00  0.00    +0.000 A 
ATOM     20  N   UNL     1       1.353   9.819  18.474  0.00  0.00    +0.000 NA
ATOM     21  N   UNL     1       2.090   8.679  18.679  0.00  0.00    +0.000 NA
ATOM     22  C   UNL     1       1.685   8.178  19.835  0.00  0.00    +0.000 A 
ATOM     23  O   UNL     1       0.703   8.930  20.428  0.00  0.00    +0.000 OA
BRANCH  19  24
ATOM     24  C   UNL     1      -0.552  10.943  19.698  0.00  0.00    +0.000 C 
BRANCH  24  25
ATOM     25  C   UNL     1      -1.621  10.846  18.616  0.00  0.00    +0.000 A 
ATOM     26  C   UNL     1      -1.495   9.992  17.510  0.00  0.00    +0.000 A 
ATOM     27  C   UNL     1      -2.509   9.911  16.550  0.00  0.00    +0.000 A 
ATOM     28  C   UNL     1      -3.669  10.670  16.689  0.00  0.00    +0.000 A 
ATOM     29  C   UNL     1      -3.814  11.519  17.781  0.00  0.00    +0.000 A 
ATOM     30  C   UNL     1      -2.797  11.610  18.738  0.00  0.00    +0.000 A 
ENDBRANCH  24  25
BRANCH  24  32
ATOM     31  C   UNL     1       0.276  12.679  21.122  0.00  0.00    +0.000 C 
ATOM     32  O   UNL     1       0.001  12.273  19.781  0.00  0.00    +0.000 OA
ENDBRANCH  24  32
ENDBRANCH  19  24
ENDBRANCH  18  22
ENDBRANCH   1  18
TORSDOF 9
ENDMDL
MODEL 9
REMARK VINA RESULT:      -7.5      5.613     10.186
REMARK  Name = 
REMARK  11 active torsions:
REMARK  status: ('A' for Active; 'I' for Inactive)
REMARK    1  A    between atoms: C_1  and  O_2
REMARK    2  A    between atoms: O_2  and  C_3
REMARK    3  A    between atoms: C_3  and  C_4
REMARK    4  A    between atoms: C_3  and  C_10
REMARK    5  A    between atoms: C_13  and  C_14
REMARK    6  A    between atoms: C_14  and  C_15
REMARK    7  A    between atoms: C_15  and  C_16
REMARK    8  A    between atoms: N_18  and  C_19
REMARK    9  A    between atoms: N_18  and  C_20
REMARK   10  A    between atoms: C_20  and  C_21
REMARK   11  A    between atoms: C_25  and  N_26
REMARK                            x       y       z     vdW  Elec       q    Type
REMARK                         _______ _______ _______ _____ _____    ______ ____
ROOT
ATOM      1  C   UNL     1       1.623   6.063  20.554  0.00  0.00    +0.000 C 
ENDROOT
BRANCH   1   2
ATOM      2  C   UNL     1       2.181   5.631  19.214  0.00  0.00    +0.000 C 
ATOM      3  O   UNL     1       2.265   6.434  18.283  0.00  0.00    +0.000 OA
ATOM      4  N   UNL     1       2.642   4.322  19.119  0.00  0.00    +0.000 N 
ATOM      5  C   UNL     1       2.569   3.353  20.206  0.00  0.00    +0.000 C 
BRANCH   4   6
ATOM      6  C   UNL     1       3.161   3.851  17.839  0.00  0.00    +0.000 C 
BRANCH   6   7
ATOM      7  C   UNL     1       4.578   4.271  17.511  0.00  0.00    +0.000 A 
ATOM      8  C   UNL     1       5.532   4.417  18.530  0.00  0.00    +0.000 A 
ATOM      9  C   UNL     1       6.880   4.615  18.222  0.00  0.00    +0.000 A 
ATOM     10  C   UNL     1       7.302   4.659  16.892  0.00  0.00    +0.000 A 
ATOM     11  C   UNL     1       6.358   4.557  15.863  0.00  0.00    +0.000 A 
ATOM     12  C   UNL     1       4.996   4.397  16.178  0.00  0.00    +0.000 A 
BRANCH  11  13
ATOM     13  N   UNL     1       6.756   4.586  14.499  0.00  0.00    +0.000 N 
ATOM     14  C   UNL     1       6.300   3.801  13.459  0.00  0.00    +0.000 A 
ATOM     15  C   UNL     1       7.025   4.144  12.342  0.00  0.00    +0.000 A 
ATOM     16  C   UNL     1       7.875   5.169  12.778  0.00  0.00    +0.000 A 
ATOM     17  N   UNL     1       7.694   5.470  14.064  0.00  0.00    +0.000 NA
ENDBRANCH  11  13
ENDBRANCH   6   7
ENDBRANCH   4   6
ENDBRANCH   1   2
BRANCH   1  18
ATOM     18  C   UNL     1       2.145   7.428  20.998  0.00  0.00    +0.000 C 
BRANCH  18  22
ATOM     19  C   UNL     1       0.129  10.056  19.735  0.00  0.00    +0.000 A 
ATOM     20  N   UNL     1      -0.630   9.730  20.762  0.00  0.00    +0.000 NA
ATOM     21  N   UNL     1       0.002   8.698  21.412  0.00  0.00    +0.000 NA
ATOM     22  C   UNL     1       1.113   8.458  20.735  0.00  0.00    +0.000 A 
ATOM     23  O   UNL     1       1.265   9.281  19.649  0.00  0.00    +0.000 OA
BRANCH  19  24
ATOM     24  C   UNL     1      -0.045  11.209  18.797  0.00  0.00    +0.000 C 
BRANCH  24  25
ATOM     25  C   UNL     1       0.953  12.329  19.060  0.00  0.00    +0.000 A 
ATOM     26  C   UNL     1       0.881  13.151  20.195  0.00  0.00    +0.000 A 
ATOM     27  C   UNL     1       1.831  14.153  20.414  0.00  0.00    +0.000 A 
ATOM     28  C   UNL     1       2.876  14.340  19.512  0.00  0.00    +0.000 A 
ATOM     29  C   UNL     1       2.968  13.532  18.383  0.00  0.00    +0.000 A 
ATOM     30  C   UNL     1       2.012  12.536  18.155  0.00  0.00    +0.000 A 
ENDBRANCH  24  25
BRANCH  24  32
ATOM     31  C   UNL     1      -2.060  11.652  17.584  0.00  0.00    +0.000 C 
ATOM     32  O   UNL     1      -1.406  11.685  18.852  0.00  0.00    +0.000 OA
ENDBRANCH  24  32
ENDBRANCH  19  24
ENDBRANCH  18  22
ENDBRANCH   1  18
TORSDOF 9
ENDMDL
