MODEL 1
REMARK VINA RESULT:      -5.5      0.000      0.000
REMARK  Name = 
REMARK  5 active torsions:
REMARK  status: ('A' for Active; 'I' for Inactive)
REMARK    1  A    between atoms: C_1  and  N_2
REMARK    2  A    between atoms: N_2  and  C_3
REMARK    3  A    between atoms: C_3  and  C_4
REMARK    4  A    between atoms: C_3  and  C_5
REMARK    5  A    between atoms: C_5  and  C_6
REMARK                            x       y       z     vdW  Elec       q    Type
REMARK                         _______ _______ _______ _____ _____    ______ ____
ROOT
ATOM      1  C   UNL     1       3.991   4.295  18.025  0.00  0.00    +0.000 C 
ENDROOT
BRANCH   1   2
ATOM      2  C   UNL     1       2.650   5.076  18.050  0.00  0.00    +0.000 C 
ATOM      3  C   UNL     1       1.416   4.211  17.744  0.00  0.00    +0.000 C 
ATOM      4  C   UNL     1       1.153   3.171  18.829  0.00  0.00    +0.000 C 
ATOM      5  C   UNL     1       1.000   3.820  20.202  0.00  0.00    +0.000 C 
ATOM      6  C   UNL     1       2.141   4.775  20.544  0.00  0.00    +0.000 C 
ATOM      7  C   UNL     1       2.444   5.760  19.416  0.00  0.00    +0.000 C 
ENDBRANCH   1   2
BRANCH   1   8
ATOM      8  C   UNL     1       5.274   5.089  18.380  0.00  0.00    +0.000 C 
ATOM      9  C   UNL     1       5.477   6.184  17.319  0.00  0.00    +0.000 C 
BRANCH   8  11
ATOM     10  C   UNL     1       7.593   4.644  17.720  0.00  0.00    +0.000 C 
ATOM     11  N   UNL     1       6.422   4.173  18.451  0.00  0.00    +0.000 NA
ATOM     12  H   UNL     1       6.690   4.053  19.428  0.00  0.00    +0.000 HD
ENDBRANCH   8  11
ENDBRANCH   1   8
TORSDOF 3
ENDMDL
MODEL 2
REMARK VINA RESULT:      -5.5      1.092      1.439
REMARK  Name = 
REMARK  5 active torsions:
REMARK  status: ('A' for Active; 'I' for Inactive)
REMARK    1  A    between atoms: C_1  and  N_2
REMARK    2  A    between atoms: N_2  and  C_3
REMARK    3  A    between atoms: C_3  and  C_4
REMARK    4  A    between atoms: C_3  and  C_5
REMARK    5  A    between atoms: C_5  and  C_6
REMARK                            x       y       z     vdW  Elec       q    Type
REMARK                         _______ _______ _______ _____ _____    ______ ____
ROOT
ATOM      1  C   UNL     1       3.766   3.039  18.043  0.00  0.00    +0.000 C 
ENDROOT
BRANCH   1   2
ATOM      2  C   UNL     1       2.256   3.332  17.835  0.00  0.00    +0.000 C 
ATOM      3  C   UNL     1       1.322   2.367  18.584  0.00  0.00    +0.000 C 
ATOM      4  C   UNL     1       1.429   2.517  20.099  0.00  0.00    +0.000 C 
ATOM      5  C   UNL     1       1.150   3.952  20.541  0.00  0.00    +0.000 C 
ATOM      6  C   UNL     1       1.970   4.985  19.772  0.00  0.00    +0.000 C 
ATOM      7  C   UNL     1       1.917   4.774  18.260  0.00  0.00    +0.000 C 
ENDBRANCH   1   2
BRANCH   1   8
ATOM      8  C   UNL     1       4.761   4.155  17.635  0.00  0.00    +0.000 C 
ATOM      9  C   UNL     1       4.985   4.076  16.116  0.00  0.00    +0.000 C 
BRANCH   8  11
ATOM     10  C   UNL     1       7.136   4.738  17.809  0.00  0.00    +0.000 C 
ATOM     11  N   UNL     1       6.016   4.001  18.385  0.00  0.00    +0.000 NA
ATOM     12  H   UNL     1       5.877   4.337  19.337  0.00  0.00    +0.000 HD
ENDBRANCH   8  11
ENDBRANCH   1   8
TORSDOF 3
ENDMDL
MODEL 3
REMARK VINA RESULT:      -5.3      1.011      1.275
REMARK  Name = 
REMARK  5 active torsions:
REMARK  status: ('A' for Active; 'I' for Inactive)
REMARK    1  A    between atoms: C_1  and  N_2
REMARK    2  A    between atoms: N_2  and  C_3
REMARK    3  A    between atoms: C_3  and  C_4
REMARK    4  A    between atoms: C_3  and  C_5
REMARK    5  A    between atoms: C_5  and  C_6
REMARK                            x       y       z     vdW  Elec       q    Type
REMARK                         _______ _______ _______ _____ _____    ______ ____
ROOT
ATOM      1  C   UNL     1       4.152   4.495  19.227  0.00  0.00    +0.000 C 
ENDROOT
BRANCH   1   2
ATOM      2  C   UNL     1       2.988   4.615  18.208  0.00  0.00    +0.000 C 
ATOM      3  C   UNL     1       2.854   3.407  17.266  0.00  0.00    +0.000 C 
ATOM      4  C   UNL     1       2.445   2.137  18.007  0.00  0.00    +0.000 C 
ATOM      5  C   UNL     1       1.145   2.334  18.782  0.00  0.00    +0.000 C 
ATOM      6  C   UNL     1       1.160   3.575  19.672  0.00  0.00    +0.000 C 
ATOM      7  C   UNL     1       1.646   4.823  18.936  0.00  0.00    +0.000 C 
ENDBRANCH   1   2
BRANCH   1   8
ATOM      8  C   UNL     1       5.501   5.150  18.835  0.00  0.00    +0.000 C 
ATOM      9  C   UNL     1       5.239   6.173  17.718  0.00  0.00    +0.000 C 
BRANCH   8  11
ATOM     10  C   UNL     1       7.545   4.617  17.589  0.00  0.00    +0.000 C 
ATOM     11  N   UNL     1       6.456   4.112  18.418  0.00  0.00    +0.000 NA
ATOM     12  H   UNL     1       6.866   3.685  19.248  0.00  0.00    +0.000 HD
ENDBRANCH   8  11
ENDBRANCH   1   8
TORSDOF 3
ENDMDL
MODEL 4
REMARK VINA RESULT:      -5.3      1.156      1.345
REMARK  Name = 
REMARK  5 active torsions:
REMARK  status: ('A' for Active; 'I' for Inactive)
REMARK    1  A    between atoms: C_1  and  N_2
REMARK    2  A    between atoms: N_2  and  C_3
REMARK    3  A    between atoms: C_3  and  C_4
REMARK    4  A    between atoms: C_3  and  C_5
REMARK    5  A    between atoms: C_5  and  C_6
REMARK                            x       y       z     vdW  Elec       q    Type
REMARK                         _______ _______ _______ _____ _____    ______ ____
ROOT
ATOM      1  C   UNL     1       4.261   4.506  19.446  0.00  0.00    +0.000 C 
ENDROOT
BRANCH   1   2
ATOM      2  C   UNL     1       2.892   5.235  19.416  0.00  0.00    +0.000 C 
ATOM      3  C   UNL     1       1.993   4.831  18.236  0.00  0.00    +0.000 C 
ATOM      4  C   UNL     1       1.534   3.378  18.328  0.00  0.00    +0.000 C 
ATOM      5  C   UNL     1       0.812   3.101  19.644  0.00  0.00    +0.000 C 
ATOM      6  C   UNL     1       1.599   3.565  20.868  0.00  0.00    +0.000 C 
ATOM      7  C   UNL     1       2.119   4.995  20.728  0.00  0.00    +0.000 C 
ENDBRANCH   1   2
BRANCH   1   8
ATOM      8  C   UNL     1       5.453   5.220  18.758  0.00  0.00    +0.000 C 
ATOM      9  C   UNL     1       5.790   4.466  17.462  0.00  0.00    +0.000 C 
BRANCH   8  11
ATOM     10  C   UNL     1       7.809   5.822  19.076  0.00  0.00    +0.000 C 
ATOM     11  N   UNL     1       6.600   5.272  19.678  0.00  0.00    +0.000 NA
ATOM     12  H   UNL     1       6.356   5.854  20.479  0.00  0.00    +0.000 HD
ENDBRANCH   8  11
ENDBRANCH   1   8
TORSDOF 3
ENDMDL
MODEL 5
REMARK VINA RESULT:      -5.3      1.211      1.211
REMARK  Name = 
REMARK  5 active torsions:
REMARK  status: ('A' for Active; 'I' for Inactive)
REMARK    1  A    between atoms: C_1  and  N_2
REMARK    2  A    between atoms: N_2  and  C_3
REMARK    3  A    between atoms: C_3  and  C_4
REMARK    4  A    between atoms: C_3  and  C_5
REMARK    5  A    between atoms: C_5  and  C_6
REMARK                            x       y       z     vdW  Elec       q    Type
REMARK                         _______ _______ _______ _____ _____    ______ ____
ROOT
ATOM      1  C   UNL     1       4.146   4.383  18.395  0.00  0.00    +0.000 C 
ENDROOT
BRANCH   1   2
ATOM      2  C   UNL     1       2.803   5.143  18.235  0.00  0.00    +0.000 C 
ATOM      3  C   UNL     1       1.628   4.252  17.799  0.00  0.00    +0.000 C 
ATOM      4  C   UNL     1       1.246   3.233  18.869  0.00  0.00    +0.000 C 
ATOM      5  C   UNL     1       0.914   3.911  20.196  0.00  0.00    +0.000 C 
ATOM      6  C   UNL     1       1.992   4.892  20.653  0.00  0.00    +0.000 C 
ATOM      7  C   UNL     1       2.420   5.855  19.547  0.00  0.00    +0.000 C 
ENDBRANCH   1   2
BRANCH   1   8
ATOM      8  C   UNL     1       5.278   4.735  17.397  0.00  0.00    +0.000 C 
ATOM      9  C   UNL     1       4.836   5.955  16.571  0.00  0.00    +0.000 C 
BRANCH   8  11
ATOM     10  C   UNL     1       6.103   3.926  15.234  0.00  0.00    +0.000 C 
ATOM     11  N   UNL     1       5.571   3.572  16.546  0.00  0.00    +0.000 NA
ATOM     12  H   UNL     1       6.259   2.983  17.015  0.00  0.00    +0.000 HD
ENDBRANCH   8  11
ENDBRANCH   1   8
TORSDOF 3
ENDMDL
MODEL 6
REMARK VINA RESULT:      -5.2      1.349      1.762
REMARK  Name = 
REMARK  5 active torsions:
REMARK  status: ('A' for Active; 'I' for Inactive)
REMARK    1  A    between atoms: C_1  and  N_2
REMARK    2  A    between atoms: N_2  and  C_3
REMARK    3  A    between atoms: C_3  and  C_4
REMARK    4  A    between atoms: C_3  and  C_5
REMARK    5  A    between atoms: C_5  and  C_6
REMARK                            x       y       z     vdW  Elec       q    Type
REMARK                         _______ _______ _______ _____ _____    ______ ____
ROOT
ATOM      1  C   UNL     1       4.016   4.925  19.455  0.00  0.00    +0.000 C 
ENDROOT
BRANCH   1   2
ATOM      2  C   UNL     1       3.224   3.678  18.978  0.00  0.00    +0.000 C 
ATOM      3  C   UNL     1       3.374   2.453  19.893  0.00  0.00    +0.000 C 
ATOM      4  C   UNL     1       2.745   2.674  21.266  0.00  0.00    +0.000 C 
ATOM      5  C   UNL     1       1.271   3.055  21.152  0.00  0.00    +0.000 C 
ATOM      6  C   UNL     1       1.023   4.207  20.180  0.00  0.00    +0.000 C 
ATOM      7  C   UNL     1       1.725   4.007  18.838  0.00  0.00    +0.000 C 
ENDBRANCH   1   2
BRANCH   1   8
ATOM      8  C   UNL     1       5.210   5.378  18.577  0.00  0.00    +0.000 C 
ATOM      9  C   UNL     1       4.671   5.786  17.196  0.00  0.00    +0.000 C 
BRANCH   8  11
ATOM     10  C   UNL     1       7.327   4.605  17.612  0.00  0.00    +0.000 C 
ATOM     11  N   UNL     1       6.199   4.294  18.482  0.00  0.00    +0.000 NA
ATOM     12  H   UNL     1       6.566   4.098  19.413  0.00  0.00    +0.000 HD
ENDBRANCH   8  11
ENDBRANCH   1   8
TORSDOF 3
ENDMDL
MODEL 7
REMARK VINA RESULT:      -5.2      1.684      1.854
REMARK  Name = 
REMARK  5 active torsions:
REMARK  status: ('A' for Active; 'I' for Inactive)
REMARK    1  A    between atoms: C_1  and  N_2
REMARK    2  A    between atoms: N_2  and  C_3
REMARK    3  A    between atoms: C_3  and  C_4
REMARK    4  A    between atoms: C_3  and  C_5
REMARK    5  A    between atoms: C_5  and  C_6
REMARK                            x       y       z     vdW  Elec       q    Type
REMARK                         _______ _______ _______ _____ _____    ______ ____
ROOT
ATOM      1  C   UNL     1       4.327   4.040  18.063  0.00  0.00    +0.000 C 
ENDROOT
BRANCH   1   2
ATOM      2  C   UNL     1       2.974   3.659  17.407  0.00  0.00    +0.000 C 
ATOM      3  C   UNL     1       2.528   2.213  17.683  0.00  0.00    +0.000 C 
ATOM      4  C   UNL     1       2.200   1.980  19.155  0.00  0.00    +0.000 C 
ATOM      5  C   UNL     1       1.133   2.952  19.652  0.00  0.00    +0.000 C 
ATOM      6  C   UNL     1       1.453   4.410  19.329  0.00  0.00    +0.000 C 
ATOM      7  C   UNL     1       1.856   4.615  17.869  0.00  0.00    +0.000 C 
ENDBRANCH   1   2
BRANCH   1   8
ATOM      8  C   UNL     1       5.465   4.496  17.115  0.00  0.00    +0.000 C 
ATOM      9  C   UNL     1       5.036   5.807  16.435  0.00  0.00    +0.000 C 
BRANCH   8  11
ATOM     10  C   UNL     1       6.230   3.940  14.852  0.00  0.00    +0.000 C 
ATOM     11  N   UNL     1       5.751   3.437  16.135  0.00  0.00    +0.000 NA
ATOM     12  H   UNL     1       6.467   2.818  16.516  0.00  0.00    +0.000 HD
ENDBRANCH   8  11
ENDBRANCH   1   8
TORSDOF 3
ENDMDL
MODEL 8
REMARK VINA RESULT:      -5.2      2.096      4.812
REMARK  Name = 
REMARK  5 active torsions:
REMARK  status: ('A' for Active; 'I' for Inactive)
REMARK    1  A    between atoms: C_1  and  N_2
REMARK    2  A    between atoms: N_2  and  C_3
REMARK    3  A    between atoms: C_3  and  C_4
REMARK    4  A    between atoms: C_3  and  C_5
REMARK    5  A    between atoms: C_5  and  C_6
REMARK                            x       y       z     vdW  Elec       q    Type
REMARK                         _______ _______ _______ _____ _____    ______ ____
ROOT
ATOM      1  C   UNL     1       4.236   3.762  17.328  0.00  0.00    +0.000 C 
ENDROOT
BRANCH   1   2
ATOM      2  C   UNL     1       4.912   4.527  16.159  0.00  0.00    +0.000 C 
ATOM      3  C   UNL     1       4.889   6.056  16.314  0.00  0.00    +0.000 C 
ATOM      4  C   UNL     1       5.741   6.531  17.489  0.00  0.00    +0.000 C 
ATOM      5  C   UNL     1       7.184   6.047  17.367  0.00  0.00    +0.000 C 
ATOM      6  C   UNL     1       7.292   4.545  17.111  0.00  0.00    +0.000 C 
ATOM      7  C   UNL     1       6.375   4.072  15.985  0.00  0.00    +0.000 C 
ENDBRANCH   1   2
BRANCH   1   8
ATOM      8  C   UNL     1       2.742   3.388  17.152  0.00  0.00    +0.000 C 
ATOM      9  C   UNL     1       1.886   4.466  17.839  0.00  0.00    +0.000 C 
BRANCH   8  11
ATOM     10  C   UNL     1       3.609   1.528  18.495  0.00  0.00    +0.000 C 
ATOM     11  N   UNL     1       2.494   2.051  17.712  0.00  0.00    +0.000 NA
ATOM     12  H   UNL     1       1.676   2.093  18.321  0.00  0.00    +0.000 HD
ENDBRANCH   8  11
ENDBRANCH   1   8
TORSDOF 3
ENDMDL
MODEL 9
REMARK VINA RESULT:      -5.2      1.521      2.660
REMARK  Name = 
REMARK  5 active torsions:
REMARK  status: ('A' for Active; 'I' for Inactive)
REMARK    1  A    between atoms: C_1  and  N_2
REMARK    2  A    between atoms: N_2  and  C_3
REMARK    3  A    between atoms: C_3  and  C_4
REMARK    4  A    between atoms: C_3  and  C_5
REMARK    5  A    between atoms: C_5  and  C_6
REMARK                            x       y       z     vdW  Elec       q    Type
REMARK                         _______ _______ _______ _____ _____    ______ ____
ROOT
ATOM      1  C   UNL     1       5.630   5.068  17.844  0.00  0.00    +0.000 C 
ENDROOT
BRANCH   1   2
ATOM      2  C   UNL     1       4.702   4.469  18.934  0.00  0.00    +0.000 C 
ATOM      3  C   UNL     1       3.648   5.452  19.469  0.00  0.00    +0.000 C 
ATOM      4  C   UNL     1       2.621   5.835  18.407  0.00  0.00    +0.000 C 
ATOM      5  C   UNL     1       1.929   4.604  17.827  0.00  0.00    +0.000 C 
ATOM      6  C   UNL     1       2.910   3.530  17.360  0.00  0.00    +0.000 C 
ATOM      7  C   UNL     1       3.980   3.214  18.404  0.00  0.00    +0.000 C 
ENDBRANCH   1   2
BRANCH   1   8
ATOM      8  C   UNL     1       7.153   4.835  18.011  0.00  0.00    +0.000 C 
ATOM      9  C   UNL     1       7.764   6.073  18.688  0.00  0.00    +0.000 C 
BRANCH   8  11
ATOM     10  C   UNL     1       6.796   4.484  15.611  0.00  0.00    +0.000 C 
ATOM     11  N   UNL     1       7.763   4.568  16.699  0.00  0.00    +0.000 NA
ATOM     12  H   UNL     1       8.418   5.318  16.480  0.00  0.00    +0.000 HD
ENDBRANCH   8  11
ENDBRANCH   1   8
TORSDOF 3
ENDMDL
