MODEL 1
REMARK VINA RESULT:      -7.9      0.000      0.000
REMARK  Name = 
REMARK  9 active torsions:
REMARK  status: ('A' for Active; 'I' for Inactive)
REMARK    1  A    between atoms: C_1  and  C_2
REMARK    2  A    between atoms: C_3  and  C_4
REMARK    3  A    between atoms: C_4  and  C_5
REMARK    4  A    between atoms: C_5  and  N_6
REMARK    5  A    between atoms: N_6  and  C_7
REMARK    6  A    between atoms: N_6  and  C_8
REMARK    7  A    between atoms: C_11  and  S_12
REMARK    8  A    between atoms: S_12  and  N_15
REMARK    9  A    between atoms: N_15  and  C_16
REMARK                            x       y       z     vdW  Elec       q    Type
REMARK                         _______ _______ _______ _____ _____    ______ ____
ROOT
ATOM      1  C   UNL     1       4.835   4.810  17.377  0.00  0.00    +0.000 C 
ATOM      2  C   UNL     1       3.989   5.928  17.884  0.00  0.00    +0.000 C 
ATOM      3  C   UNL     1       3.321   6.042  19.053  0.00  0.00    +0.000 C 
ATOM      4  C   UNL     1       2.632   7.341  19.033  0.00  0.00    +0.000 A 
ATOM      5  C   UNL     1       1.819   7.954  19.972  0.00  0.00    +0.000 A 
ATOM      6  C   UNL     1       1.274   9.209  19.664  0.00  0.00    +0.000 A 
ATOM      7  C   UNL     1       1.566   9.853  18.445  0.00  0.00    +0.000 A 
ATOM      8  C   UNL     1       2.386   9.230  17.504  0.00  0.00    +0.000 A 
ATOM      9  C   UNL     1       2.905   7.983  17.815  0.00  0.00    +0.000 A 
ATOM     10  C   UNL     1       3.810   7.132  16.983  0.00  0.00    +0.000 C 
ENDROOT
BRANCH   6  11
ATOM     11  S   UNL     1       0.261  10.047  20.866  0.00  0.00    +0.000 S 
ATOM     12  O   UNL     1      -0.897   9.222  21.132  0.00  0.00    +0.000 OA
ATOM     13  O   UNL     1       1.136  10.470  21.942  0.00  0.00    +0.000 OA
BRANCH  11  14
ATOM     14  N   UNL     1      -0.223  11.459  20.095  0.00  0.00    +0.000 N 
ATOM     15  H   UNL     1       0.450  11.835  19.431  0.00  0.00    +0.000 HD
BRANCH  14  16
ATOM     16  C   UNL     1      -1.605  11.747  19.900  0.00  0.00    +0.000 A 
ATOM     17  C   UNL     1      -2.267  12.455  20.906  0.00  0.00    +0.000 A 
ATOM     18  C   UNL     1      -3.608  12.795  20.755  0.00  0.00    +0.000 A 
ATOM     19  C   UNL     1      -4.296  12.407  19.606  0.00  0.00    +0.000 A 
ATOM     20  C   UNL     1      -3.655  11.677  18.593  0.00  0.00    +0.000 A 
ATOM     21  C   UNL     1      -4.364  11.279  17.447  0.00  0.00    +0.000 A 
ATOM     22  C   UNL     1      -3.741  10.549  16.435  0.00  0.00    +0.000 A 
ATOM     23  C   UNL     1      -2.396  10.220  16.547  0.00  0.00    +0.000 A 
ATOM     24  C   UNL     1      -1.674  10.624  17.671  0.00  0.00    +0.000 A 
ATOM     25  C   UNL     1      -2.285  11.344  18.724  0.00  0.00    +0.000 A 
ENDBRANCH  14  16
ENDBRANCH  11  14
ENDBRANCH   6  11
BRANCH   3  26
ATOM     26  C   UNL     1       3.212   5.070  20.194  0.00  0.00    +0.000 C 
BRANCH  26  27
ATOM     27  C   UNL     1       1.806   4.458  20.348  0.00  0.00    +0.000 C 
BRANCH  27  28
ATOM     28  N   UNL     1       1.759   2.980  20.364  0.00  0.00    +0.000 NA
ATOM     29  C   UNL     1       1.444   2.437  21.688  0.00  0.00    +0.000 C 
ATOM     30  C   UNL     1       0.755   2.520  19.398  0.00  0.00    +0.000 C 
ENDBRANCH  27  28
ENDBRANCH  26  27
ENDBRANCH   3  26
TORSDOF 6
ENDMDL
MODEL 2
REMARK VINA RESULT:      -7.7      2.446      3.299
REMARK  Name = 
REMARK  9 active torsions:
REMARK  status: ('A' for Active; 'I' for Inactive)
REMARK    1  A    between atoms: C_1  and  C_2
REMARK    2  A    between atoms: C_3  and  C_4
REMARK    3  A    between atoms: C_4  and  C_5
REMARK    4  A    between atoms: C_5  and  N_6
REMARK    5  A    between atoms: N_6  and  C_7
REMARK    6  A    between atoms: N_6  and  C_8
REMARK    7  A    between atoms: C_11  and  S_12
REMARK    8  A    between atoms: S_12  and  N_15
REMARK    9  A    between atoms: N_15  and  C_16
REMARK                            x       y       z     vdW  Elec       q    Type
REMARK                         _______ _______ _______ _____ _____    ______ ____
ROOT
ATOM      1  C   UNL     1       4.828   4.835  17.154  0.00  0.00    +0.000 C 
ATOM      2  C   UNL     1       3.940   5.822  17.834  0.00  0.00    +0.000 C 
ATOM      3  C   UNL     1       3.377   5.772  19.062  0.00  0.00    +0.000 C 
ATOM      4  C   UNL     1       2.582   6.998  19.223  0.00  0.00    +0.000 A 
ATOM      5  C   UNL     1       1.811   7.449  20.282  0.00  0.00    +0.000 A 
ATOM      6  C   UNL     1       1.134   8.670  20.141  0.00  0.00    +0.000 A 
ATOM      7  C   UNL     1       1.255   9.441  18.966  0.00  0.00    +0.000 A 
ATOM      8  C   UNL     1       2.033   8.980  17.904  0.00  0.00    +0.000 A 
ATOM      9  C   UNL     1       2.683   7.764  18.052  0.00  0.00    +0.000 A 
ATOM     10  C   UNL     1       3.575   7.076  17.069  0.00  0.00    +0.000 C 
ENDROOT
BRANCH   6  11
ATOM     11  S   UNL     1       0.170   9.303  21.498  0.00  0.00    +0.000 S 
ATOM     12  O   UNL     1      -0.818   8.308  21.852  0.00  0.00    +0.000 OA
ATOM     13  O   UNL     1       1.104   9.808  22.486  0.00  0.00    +0.000 OA
BRANCH  11  14
ATOM     14  N   UNL     1      -0.600  10.658  20.869  0.00  0.00    +0.000 N 
ATOM     15  H   UNL     1      -1.355  10.456  20.218  0.00  0.00    +0.000 HD
BRANCH  14  16
ATOM     16  C   UNL     1      -0.640  11.879  21.603  0.00  0.00    +0.000 A 
ATOM     17  C   UNL     1      -1.543  11.967  22.665  0.00  0.00    +0.000 A 
ATOM     18  C   UNL     1      -1.602  13.122  23.440  0.00  0.00    +0.000 A 
ATOM     19  C   UNL     1      -0.772  14.200  23.139  0.00  0.00    +0.000 A 
ATOM     20  C   UNL     1       0.129  14.140  22.064  0.00  0.00    +0.000 A 
ATOM     21  C   UNL     1       0.949  15.240  21.762  0.00  0.00    +0.000 A 
ATOM     22  C   UNL     1       1.845  15.196  20.693  0.00  0.00    +0.000 A 
ATOM     23  C   UNL     1       1.943  14.046  19.921  0.00  0.00    +0.000 A 
ATOM     24  C   UNL     1       1.148  12.940  20.219  0.00  0.00    +0.000 A 
ATOM     25  C   UNL     1       0.214  12.963  21.281  0.00  0.00    +0.000 A 
ENDBRANCH  14  16
ENDBRANCH  11  14
ENDBRANCH   6  11
BRANCH   3  26
ATOM     26  C   UNL     1       3.459   4.700  20.111  0.00  0.00    +0.000 C 
BRANCH  26  27
ATOM     27  C   UNL     1       2.265   3.726  20.090  0.00  0.00    +0.000 C 
BRANCH  27  28
ATOM     28  N   UNL     1       2.099   2.959  18.836  0.00  0.00    +0.000 NA
ATOM     29  C   UNL     1       3.078   1.877  18.700  0.00  0.00    +0.000 C 
ATOM     30  C   UNL     1       0.744   2.397  18.792  0.00  0.00    +0.000 C 
ENDBRANCH  27  28
ENDBRANCH  26  27
ENDBRANCH   3  26
TORSDOF 6
ENDMDL
MODEL 3
REMARK VINA RESULT:      -7.7      2.650      8.545
REMARK  Name = 
REMARK  9 active torsions:
REMARK  status: ('A' for Active; 'I' for Inactive)
REMARK    1  A    between atoms: C_1  and  C_2
REMARK    2  A    between atoms: C_3  and  C_4
REMARK    3  A    between atoms: C_4  and  C_5
REMARK    4  A    between atoms: C_5  and  N_6
REMARK    5  A    between atoms: N_6  and  C_7
REMARK    6  A    between atoms: N_6  and  C_8
REMARK    7  A    between atoms: C_11  and  S_12
REMARK    8  A    between atoms: S_12  and  N_15
REMARK    9  A    between atoms: N_15  and  C_16
REMARK                            x       y       z     vdW  Elec       q    Type
REMARK                         _______ _______ _______ _____ _____    ______ ____
ROOT
ATOM      1  C   UNL     1      -2.322  12.508  23.102  0.00  0.00    +0.000 C 
ATOM      2  C   UNL     1      -1.438  11.590  22.327  0.00  0.00    +0.000 C 
ATOM      3  C   UNL     1      -1.118  11.608  21.014  0.00  0.00    +0.000 C 
ATOM      4  C   UNL     1      -0.225  10.465  20.771  0.00  0.00    +0.000 A 
ATOM      5  C   UNL     1       0.395  10.024  19.613  0.00  0.00    +0.000 A 
ATOM      6  C   UNL     1       1.188   8.869  19.679  0.00  0.00    +0.000 A 
ATOM      7  C   UNL     1       1.382   8.186  20.897  0.00  0.00    +0.000 A 
ATOM      8  C   UNL     1       0.755   8.635  22.059  0.00  0.00    +0.000 A 
ATOM      9  C   UNL     1      -0.039   9.768  21.975  0.00  0.00    +0.000 A 
ATOM     10  C   UNL     1      -0.793  10.443  23.075  0.00  0.00    +0.000 C 
ENDROOT
BRANCH   6  11
ATOM     11  S   UNL     1       2.035   8.300  18.220  0.00  0.00    +0.000 S 
ATOM     12  O   UNL     1       1.086   7.579  17.401  0.00  0.00    +0.000 OA
ATOM     13  O   UNL     1       2.772   9.429  17.686  0.00  0.00    +0.000 OA
BRANCH  11  14
ATOM     14  N   UNL     1       3.198   7.234  18.800  0.00  0.00    +0.000 N 
ATOM     15  H   UNL     1       3.334   7.258  19.808  0.00  0.00    +0.000 HD
BRANCH  14  16
ATOM     16  C   UNL     1       3.495   6.029  18.100  0.00  0.00    +0.000 A 
ATOM     17  C   UNL     1       4.478   6.080  17.109  0.00  0.00    +0.000 A 
ATOM     18  C   UNL     1       4.835   4.926  16.417  0.00  0.00    +0.000 A 
ATOM     19  C   UNL     1       4.193   3.722  16.701  0.00  0.00    +0.000 A 
ATOM     20  C   UNL     1       3.188   3.653  17.680  0.00  0.00    +0.000 A 
ATOM     21  C   UNL     1       2.538   2.436  17.946  0.00  0.00    +0.000 A 
ATOM     22  C   UNL     1       1.536   2.353  18.912  0.00  0.00    +0.000 A 
ATOM     23  C   UNL     1       1.179   3.484  19.636  0.00  0.00    +0.000 A 
ATOM     24  C   UNL     1       1.828   4.695  19.396  0.00  0.00    +0.000 A 
ATOM     25  C   UNL     1       2.831   4.814  18.406  0.00  0.00    +0.000 A 
ENDBRANCH  14  16
ENDBRANCH  11  14
ENDBRANCH   6  11
BRANCH   3  26
ATOM     26  C   UNL     1      -1.565  12.547  19.930  0.00  0.00    +0.000 C 
BRANCH  26  27
ATOM     27  C   UNL     1      -0.920  13.943  20.021  0.00  0.00    +0.000 C 
BRANCH  27  28
ATOM     28  N   UNL     1       0.553  13.968  19.896  0.00  0.00    +0.000 NA
ATOM     29  C   UNL     1       1.018  13.525  18.578  0.00  0.00    +0.000 C 
ATOM     30  C   UNL     1       1.036  15.330  20.150  0.00  0.00    +0.000 C 
ENDBRANCH  27  28
ENDBRANCH  26  27
ENDBRANCH   3  26
TORSDOF 6
ENDMDL
MODEL 4
REMARK VINA RESULT:      -7.6      2.125      3.701
REMARK  Name = 
REMARK  9 active torsions:
REMARK  status: ('A' for Active; 'I' for Inactive)
REMARK    1  A    between atoms: C_1  and  C_2
REMARK    2  A    between atoms: C_3  and  C_4
REMARK    3  A    between atoms: C_4  and  C_5
REMARK    4  A    between atoms: C_5  and  N_6
REMARK    5  A    between atoms: N_6  and  C_7
REMARK    6  A    between atoms: N_6  and  C_8
REMARK    7  A    between atoms: C_11  and  S_12
REMARK    8  A    between atoms: S_12  and  N_15
REMARK    9  A    between atoms: N_15  and  C_16
REMARK                            x       y       z     vdW  Elec       q    Type
REMARK                         _______ _______ _______ _____ _____    ______ ____
ROOT
ATOM      1  C   UNL     1       5.054   3.791  16.406  0.00  0.00    +0.000 C 
ATOM      2  C   UNL     1       4.171   4.503  17.375  0.00  0.00    +0.000 C 
ATOM      3  C   UNL     1       4.108   5.819  17.677  0.00  0.00    +0.000 C 
ATOM      4  C   UNL     1       3.076   5.975  18.712  0.00  0.00    +0.000 A 
ATOM      5  C   UNL     1       2.609   7.103  19.368  0.00  0.00    +0.000 A 
ATOM      6  C   UNL     1       1.613   6.943  20.343  0.00  0.00    +0.000 A 
ATOM      7  C   UNL     1       1.072   5.674  20.633  0.00  0.00    +0.000 A 
ATOM      8  C   UNL     1       1.547   4.543  19.969  0.00  0.00    +0.000 A 
ATOM      9  C   UNL     1       2.542   4.714  19.019  0.00  0.00    +0.000 A 
ATOM     10  C   UNL     1       3.195   3.667  18.175  0.00  0.00    +0.000 C 
ENDROOT
BRANCH   6  11
ATOM     11  S   UNL     1       0.958   8.375  21.174  0.00  0.00    +0.000 S 
ATOM     12  O   UNL     1      -0.389   8.070  21.603  0.00  0.00    +0.000 OA
ATOM     13  O   UNL     1       1.961   8.813  22.125  0.00  0.00    +0.000 OA
BRANCH  11  14
ATOM     14  N   UNL     1       0.913   9.564  19.987  0.00  0.00    +0.000 N 
ATOM     15  H   UNL     1       1.353   9.306  19.107  0.00  0.00    +0.000 HD
BRANCH  14  16
ATOM     16  C   UNL     1      -0.131  10.535  19.967  0.00  0.00    +0.000 A 
ATOM     17  C   UNL     1      -0.205  11.427  21.039  0.00  0.00    +0.000 A 
ATOM     18  C   UNL     1      -1.181  12.419  21.057  0.00  0.00    +0.000 A 
ATOM     19  C   UNL     1      -2.100  12.506  20.012  0.00  0.00    +0.000 A 
ATOM     20  C   UNL     1      -2.055  11.606  18.935  0.00  0.00    +0.000 A 
ATOM     21  C   UNL     1      -2.997  11.695  17.896  0.00  0.00    +0.000 A 
ATOM     22  C   UNL     1      -2.967  10.804  16.823  0.00  0.00    +0.000 A 
ATOM     23  C   UNL     1      -1.987   9.823  16.766  0.00  0.00    +0.000 A 
ATOM     24  C   UNL     1      -1.034   9.733  17.782  0.00  0.00    +0.000 A 
ATOM     25  C   UNL     1      -1.054  10.606  18.894  0.00  0.00    +0.000 A 
ENDBRANCH  14  16
ENDBRANCH  11  14
ENDBRANCH   6  11
BRANCH   3  26
ATOM     26  C   UNL     1       4.917   6.965  17.141  0.00  0.00    +0.000 C 
BRANCH  26  27
ATOM     27  C   UNL     1       6.179   6.523  16.376  0.00  0.00    +0.000 C 
BRANCH  27  28
ATOM     28  N   UNL     1       7.462   6.796  17.060  0.00  0.00    +0.000 NA
ATOM     29  C   UNL     1       7.569   8.180  17.532  0.00  0.00    +0.000 C 
ATOM     30  C   UNL     1       7.605   5.881  18.198  0.00  0.00    +0.000 C 
ENDBRANCH  27  28
ENDBRANCH  26  27
ENDBRANCH   3  26
TORSDOF 6
ENDMDL
MODEL 5
REMARK VINA RESULT:      -7.6      0.877      1.020
REMARK  Name = 
REMARK  9 active torsions:
REMARK  status: ('A' for Active; 'I' for Inactive)
REMARK    1  A    between atoms: C_1  and  C_2
REMARK    2  A    between atoms: C_3  and  C_4
REMARK    3  A    between atoms: C_4  and  C_5
REMARK    4  A    between atoms: C_5  and  N_6
REMARK    5  A    between atoms: N_6  and  C_7
REMARK    6  A    between atoms: N_6  and  C_8
REMARK    7  A    between atoms: C_11  and  S_12
REMARK    8  A    between atoms: S_12  and  N_15
REMARK    9  A    between atoms: N_15  and  C_16
REMARK                            x       y       z     vdW  Elec       q    Type
REMARK                         _______ _______ _______ _____ _____    ______ ____
ROOT
ATOM      1  C   UNL     1       3.599   5.266  17.721  0.00  0.00    +0.000 C 
ATOM      2  C   UNL     1       2.959   6.525  18.201  0.00  0.00    +0.000 C 
ATOM      3  C   UNL     1       2.228   6.750  19.316  0.00  0.00    +0.000 C 
ATOM      4  C   UNL     1       1.825   8.164  19.290  0.00  0.00    +0.000 A 
ATOM      5  C   UNL     1       1.075   8.912  20.183  0.00  0.00    +0.000 A 
ATOM      6  C   UNL     1       0.828  10.260  19.881  0.00  0.00    +0.000 A 
ATOM      7  C   UNL     1       1.353  10.855  18.716  0.00  0.00    +0.000 A 
ATOM      8  C   UNL     1       2.106  10.095  17.821  0.00  0.00    +0.000 A 
ATOM      9  C   UNL     1       2.329   8.761  18.125  0.00  0.00    +0.000 A 
ATOM     10  C   UNL     1       3.110   7.759  17.337  0.00  0.00    +0.000 C 
ENDROOT
BRANCH   6  11
ATOM     11  S   UNL     1      -0.093  11.263  21.028  0.00  0.00    +0.000 S 
ATOM     12  O   UNL     1      -1.074  10.421  21.677  0.00  0.00    +0.000 OA
ATOM     13  O   UNL     1       0.871  12.017  21.806  0.00  0.00    +0.000 OA
BRANCH  11  14
ATOM     14  N   UNL     1      -0.876  12.393  20.061  0.00  0.00    +0.000 N 
ATOM     15  H   UNL     1      -0.291  12.825  19.351  0.00  0.00    +0.000 HD
BRANCH  14  16
ATOM     16  C   UNL     1      -2.279  12.303  19.826  0.00  0.00    +0.000 A 
ATOM     17  C   UNL     1      -3.135  12.772  20.826  0.00  0.00    +0.000 A 
ATOM     18  C   UNL     1      -4.513  12.742  20.637  0.00  0.00    +0.000 A 
ATOM     19  C   UNL     1      -5.040  12.222  19.456  0.00  0.00    +0.000 A 
ATOM     20  C   UNL     1      -4.198  11.726  18.447  0.00  0.00    +0.000 A 
ATOM     21  C   UNL     1      -4.742  11.190  17.268  0.00  0.00    +0.000 A 
ATOM     22  C   UNL     1      -3.918  10.690  16.260  0.00  0.00    +0.000 A 
ATOM     23  C   UNL     1      -2.539  10.733  16.411  0.00  0.00    +0.000 A 
ATOM     24  C   UNL     1      -1.983  11.278  17.568  0.00  0.00    +0.000 A 
ATOM     25  C   UNL     1      -2.794  11.771  18.618  0.00  0.00    +0.000 A 
ENDBRANCH  14  16
ENDBRANCH  11  14
ENDBRANCH   6  11
BRANCH   3  26
ATOM     26  C   UNL     1       1.823   5.798  20.404  0.00  0.00    +0.000 C 
BRANCH  26  27
ATOM     27  C   UNL     1       2.765   4.586  20.544  0.00  0.00    +0.000 C 
BRANCH  27  28
ATOM     28  N   UNL     1       2.108   3.263  20.457  0.00  0.00    +0.000 NA
ATOM     29  C   UNL     1       1.552   2.822  21.739  0.00  0.00    +0.000 C 
ATOM     30  C   UNL     1       1.038   3.321  19.455  0.00  0.00    +0.000 C 
ENDBRANCH  27  28
ENDBRANCH  26  27
ENDBRANCH   3  26
TORSDOF 6
ENDMDL
MODEL 6
REMARK VINA RESULT:      -7.6      2.459      3.397
REMARK  Name = 
REMARK  9 active torsions:
REMARK  status: ('A' for Active; 'I' for Inactive)
REMARK    1  A    between atoms: C_1  and  C_2
REMARK    2  A    between atoms: C_3  and  C_4
REMARK    3  A    between atoms: C_4  and  C_5
REMARK    4  A    between atoms: C_5  and  N_6
REMARK    5  A    between atoms: N_6  and  C_7
REMARK    6  A    between atoms: N_6  and  C_8
REMARK    7  A    between atoms: C_11  and  S_12
REMARK    8  A    between atoms: S_12  and  N_15
REMARK    9  A    between atoms: N_15  and  C_16
REMARK                            x       y       z     vdW  Elec       q    Type
REMARK                         _______ _______ _______ _____ _____    ______ ____
ROOT
ATOM      1  C   UNL     1       5.200   4.690  16.963  0.00  0.00    +0.000 C 
ATOM      2  C   UNL     1       4.287   5.647  17.653  0.00  0.00    +0.000 C 
ATOM      3  C   UNL     1       3.734   5.575  18.884  0.00  0.00    +0.000 C 
ATOM      4  C   UNL     1       2.902   6.775  19.055  0.00  0.00    +0.000 A 
ATOM      5  C   UNL     1       2.124   7.199  20.120  0.00  0.00    +0.000 A 
ATOM      6  C   UNL     1       1.409   8.398  19.988  0.00  0.00    +0.000 A 
ATOM      7  C   UNL     1       1.498   9.176  18.816  0.00  0.00    +0.000 A 
ATOM      8  C   UNL     1       2.283   8.743  17.747  0.00  0.00    +0.000 A 
ATOM      9  C   UNL     1       2.971   7.548  17.886  0.00  0.00    +0.000 A 
ATOM     10  C   UNL     1       3.878   6.892  16.895  0.00  0.00    +0.000 C 
ENDROOT
BRANCH   6  11
ATOM     11  S   UNL     1       0.434   8.996  21.354  0.00  0.00    +0.000 S 
ATOM     12  O   UNL     1      -0.508   7.962  21.721  0.00  0.00    +0.000 OA
ATOM     13  O   UNL     1       1.358   9.542  22.330  0.00  0.00    +0.000 OA
BRANCH  11  14
ATOM     14  N   UNL     1      -0.397  10.316  20.729  0.00  0.00    +0.000 N 
ATOM     15  H   UNL     1      -1.349  10.119  20.432  0.00  0.00    +0.000 HD
BRANCH  14  16
ATOM     16  C   UNL     1      -0.071  11.642  21.138  0.00  0.00    +0.000 A 
ATOM     17  C   UNL     1       1.089  12.216  20.612  0.00  0.00    +0.000 A 
ATOM     18  C   UNL     1       1.438  13.520  20.948  0.00  0.00    +0.000 A 
ATOM     19  C   UNL     1       0.639  14.246  21.830  0.00  0.00    +0.000 A 
ATOM     20  C   UNL     1      -0.520  13.681  22.386  0.00  0.00    +0.000 A 
ATOM     21  C   UNL     1      -1.309  14.418  23.285  0.00  0.00    +0.000 A 
ATOM     22  C   UNL     1      -2.459  13.868  23.849  0.00  0.00    +0.000 A 
ATOM     23  C   UNL     1      -2.846  12.578  23.510  0.00  0.00    +0.000 A 
ATOM     24  C   UNL     1      -2.083  11.839  22.605  0.00  0.00    +0.000 A 
ATOM     25  C   UNL     1      -0.898  12.363  22.035  0.00  0.00    +0.000 A 
ENDBRANCH  14  16
ENDBRANCH  11  14
ENDBRANCH   6  11
BRANCH   3  26
ATOM     26  C   UNL     1       3.856   4.503  19.929  0.00  0.00    +0.000 C 
BRANCH  26  27
ATOM     27  C   UNL     1       3.088   3.213  19.579  0.00  0.00    +0.000 C 
BRANCH  27  28
ATOM     28  N   UNL     1       2.016   2.839  20.528  0.00  0.00    +0.000 NA
ATOM     29  C   UNL     1       2.196   3.441  21.852  0.00  0.00    +0.000 C 
ATOM     30  C   UNL     1       0.720   3.251  19.977  0.00  0.00    +0.000 C 
ENDBRANCH  27  28
ENDBRANCH  26  27
ENDBRANCH   3  26
TORSDOF 6
ENDMDL
MODEL 7
REMARK VINA RESULT:      -7.6      2.047      3.159
REMARK  Name = 
REMARK  9 active torsions:
REMARK  status: ('A' for Active; 'I' for Inactive)
REMARK    1  A    between atoms: C_1  and  C_2
REMARK    2  A    between atoms: C_3  and  C_4
REMARK    3  A    between atoms: C_4  and  C_5
REMARK    4  A    between atoms: C_5  and  N_6
REMARK    5  A    between atoms: N_6  and  C_7
REMARK    6  A    between atoms: N_6  and  C_8
REMARK    7  A    between atoms: C_11  and  S_12
REMARK    8  A    between atoms: S_12  and  N_15
REMARK    9  A    between atoms: N_15  and  C_16
REMARK                            x       y       z     vdW  Elec       q    Type
REMARK                         _______ _______ _______ _____ _____    ______ ____
ROOT
ATOM      1  C   UNL     1       3.992   4.712  17.682  0.00  0.00    +0.000 C 
ATOM      2  C   UNL     1       3.284   5.913  18.213  0.00  0.00    +0.000 C 
ATOM      3  C   UNL     1       2.641   6.084  19.390  0.00  0.00    +0.000 C 
ATOM      4  C   UNL     1       2.108   7.455  19.395  0.00  0.00    +0.000 A 
ATOM      5  C   UNL     1       1.378   8.143  20.351  0.00  0.00    +0.000 A 
ATOM      6  C   UNL     1       0.981   9.458  20.067  0.00  0.00    +0.000 A 
ATOM      7  C   UNL     1       1.338  10.083  18.855  0.00  0.00    +0.000 A 
ATOM      8  C   UNL     1       2.074   9.384  17.898  0.00  0.00    +0.000 A 
ATOM      9  C   UNL     1       2.446   8.080  18.186  0.00  0.00    +0.000 A 
ATOM     10  C   UNL     1       3.241   7.144  17.333  0.00  0.00    +0.000 C 
ENDROOT
BRANCH   6  11
ATOM     11  S   UNL     1       0.080  10.387  21.290  0.00  0.00    +0.000 S 
ATOM     12  O   UNL     1      -0.559   9.450  22.188  0.00  0.00    +0.000 OA
ATOM     13  O   UNL     1       0.976  11.409  21.795  0.00  0.00    +0.000 OA
BRANCH  11  14
ATOM     14  N   UNL     1      -1.093  11.209  20.411  0.00  0.00    +0.000 N 
ATOM     15  H   UNL     1      -1.880  10.638  20.111  0.00  0.00    +0.000 HD
BRANCH  14  16
ATOM     16  C   UNL     1      -1.298  12.607  20.599  0.00  0.00    +0.000 A 
ATOM     17  C   UNL     1      -0.703  13.477  19.683  0.00  0.00    +0.000 A 
ATOM     18  C   UNL     1      -0.898  14.851  19.795  0.00  0.00    +0.000 A 
ATOM     19  C   UNL     1      -1.670  15.358  20.839  0.00  0.00    +0.000 A 
ATOM     20  C   UNL     1      -2.260  14.502  21.782  0.00  0.00    +0.000 A 
ATOM     21  C   UNL     1      -3.024  15.026  22.838  0.00  0.00    +0.000 A 
ATOM     22  C   UNL     1      -3.612  14.188  23.785  0.00  0.00    +0.000 A 
ATOM     23  C   UNL     1      -3.456  12.812  23.681  0.00  0.00    +0.000 A 
ATOM     24  C   UNL     1      -2.716  12.274  22.628  0.00  0.00    +0.000 A 
ATOM     25  C   UNL     1      -2.088  13.101  21.666  0.00  0.00    +0.000 A 
ENDBRANCH  14  16
ENDBRANCH  11  14
ENDBRANCH   6  11
BRANCH   3  26
ATOM     26  C   UNL     1       2.427   5.113  20.515  0.00  0.00    +0.000 C 
BRANCH  26  27
ATOM     27  C   UNL     1       1.121   4.305  20.391  0.00  0.00    +0.000 C 
BRANCH  27  28
ATOM     28  N   UNL     1       1.261   2.845  20.582  0.00  0.00    +0.000 NA
ATOM     29  C   UNL     1       1.589   2.140  19.340  0.00  0.00    +0.000 C 
ATOM     30  C   UNL     1       2.306   2.588  21.579  0.00  0.00    +0.000 C 
ENDBRANCH  27  28
ENDBRANCH  26  27
ENDBRANCH   3  26
TORSDOF 6
ENDMDL
MODEL 8
REMARK VINA RESULT:      -7.5      1.262      2.758
REMARK  Name = 
REMARK  9 active torsions:
REMARK  status: ('A' for Active; 'I' for Inactive)
REMARK    1  A    between atoms: C_1  and  C_2
REMARK    2  A    between atoms: C_3  and  C_4
REMARK    3  A    between atoms: C_4  and  C_5
REMARK    4  A    between atoms: C_5  and  N_6
REMARK    5  A    between atoms: N_6  and  C_7
REMARK    6  A    between atoms: N_6  and  C_8
REMARK    7  A    between atoms: C_11  and  S_12
REMARK    8  A    between atoms: S_12  and  N_15
REMARK    9  A    between atoms: N_15  and  C_16
REMARK                            x       y       z     vdW  Elec       q    Type
REMARK                         _______ _______ _______ _____ _____    ______ ____
ROOT
ATOM      1  C   UNL     1       4.751   5.197  16.816  0.00  0.00    +0.000 C 
ATOM      2  C   UNL     1       3.913   6.170  17.574  0.00  0.00    +0.000 C 
ATOM      3  C   UNL     1       3.376   6.066  18.810  0.00  0.00    +0.000 C 
ATOM      4  C   UNL     1       2.626   7.305  19.061  0.00  0.00    +0.000 A 
ATOM      5  C   UNL     1       1.895   7.718  20.163  0.00  0.00    +0.000 A 
ATOM      6  C   UNL     1       1.256   8.966  20.110  0.00  0.00    +0.000 A 
ATOM      7  C   UNL     1       1.377   9.800  18.980  0.00  0.00    +0.000 A 
ATOM      8  C   UNL     1       2.114   9.378  17.874  0.00  0.00    +0.000 A 
ATOM      9  C   UNL     1       2.727   8.136  17.935  0.00  0.00    +0.000 A 
ATOM     10  C   UNL     1       3.573   7.478  16.893  0.00  0.00    +0.000 C 
ENDROOT
BRANCH   6  11
ATOM     11  S   UNL     1       0.345   9.549  21.525  0.00  0.00    +0.000 S 
ATOM     12  O   UNL     1      -0.914   8.838  21.574  0.00  0.00    +0.000 OA
ATOM     13  O   UNL     1       1.254   9.532  22.655  0.00  0.00    +0.000 OA
BRANCH  11  14
ATOM     14  N   UNL     1       0.059  11.173  21.199  0.00  0.00    +0.000 N 
ATOM     15  H   UNL     1       0.880  11.702  20.918  0.00  0.00    +0.000 HD
BRANCH  14  16
ATOM     16  C   UNL     1      -1.221  11.611  20.752  0.00  0.00    +0.000 A 
ATOM     17  C   UNL     1      -1.490  11.538  19.383  0.00  0.00    +0.000 A 
ATOM     18  C   UNL     1      -2.735  11.919  18.893  0.00  0.00    +0.000 A 
ATOM     19  C   UNL     1      -3.708  12.396  19.770  0.00  0.00    +0.000 A 
ATOM     20  C   UNL     1      -3.452  12.497  21.147  0.00  0.00    +0.000 A 
ATOM     21  C   UNL     1      -4.436  12.994  22.019  0.00  0.00    +0.000 A 
ATOM     22  C   UNL     1      -4.193  13.104  23.387  0.00  0.00    +0.000 A 
ATOM     23  C   UNL     1      -2.969  12.705  23.906  0.00  0.00    +0.000 A 
ATOM     24  C   UNL     1      -1.988  12.193  23.057  0.00  0.00    +0.000 A 
ATOM     25  C   UNL     1      -2.197  12.092  21.661  0.00  0.00    +0.000 A 
ENDBRANCH  14  16
ENDBRANCH  11  14
ENDBRANCH   6  11
BRANCH   3  26
ATOM     26  C   UNL     1       3.445   4.932  19.793  0.00  0.00    +0.000 C 
BRANCH  26  27
ATOM     27  C   UNL     1       2.181   4.051  19.806  0.00  0.00    +0.000 C 
BRANCH  27  28
ATOM     28  N   UNL     1       2.044   3.126  18.660  0.00  0.00    +0.000 NA
ATOM     29  C   UNL     1       3.195   2.231  18.513  0.00  0.00    +0.000 C 
ATOM     30  C   UNL     1       0.825   2.328  18.828  0.00  0.00    +0.000 C 
ENDBRANCH  27  28
ENDBRANCH  26  27
ENDBRANCH   3  26
TORSDOF 6
ENDMDL
MODEL 9
REMARK VINA RESULT:      -7.4      2.535      3.631
REMARK  Name = 
REMARK  9 active torsions:
REMARK  status: ('A' for Active; 'I' for Inactive)
REMARK    1  A    between atoms: C_1  and  C_2
REMARK    2  A    between atoms: C_3  and  C_4
REMARK    3  A    between atoms: C_4  and  C_5
REMARK    4  A    between atoms: C_5  and  N_6
REMARK    5  A    between atoms: N_6  and  C_7
REMARK    6  A    between atoms: N_6  and  C_8
REMARK    7  A    between atoms: C_11  and  S_12
REMARK    8  A    between atoms: S_12  and  N_15
REMARK    9  A    between atoms: N_15  and  C_16
REMARK                            x       y       z     vdW  Elec       q    Type
REMARK                         _______ _______ _______ _____ _____    ______ ____
ROOT
ATOM      1  C   UNL     1       4.453   5.048  17.113  0.00  0.00    +0.000 C 
ATOM      2  C   UNL     1       3.627   6.042  17.857  0.00  0.00    +0.000 C 
ATOM      3  C   UNL     1       3.078   5.957  19.089  0.00  0.00    +0.000 C 
ATOM      4  C   UNL     1       2.349   7.212  19.325  0.00  0.00    +0.000 A 
ATOM      5  C   UNL     1       1.617   7.647  20.418  0.00  0.00    +0.000 A 
ATOM      6  C   UNL     1       1.003   8.906  20.351  0.00  0.00    +0.000 A 
ATOM      7  C   UNL     1       1.150   9.730  19.217  0.00  0.00    +0.000 A 
ATOM      8  C   UNL     1       1.889   9.286  18.120  0.00  0.00    +0.000 A 
ATOM      9  C   UNL     1       2.477   8.033  18.195  0.00  0.00    +0.000 A 
ATOM     10  C   UNL     1       3.320   7.352  17.164  0.00  0.00    +0.000 C 
ENDROOT
BRANCH   6  11
ATOM     11  S   UNL     1       0.091   9.516  21.754  0.00  0.00    +0.000 S 
ATOM     12  O   UNL     1      -0.820   8.478  22.183  0.00  0.00    +0.000 OA
ATOM     13  O   UNL     1       1.055  10.088  22.674  0.00  0.00    +0.000 OA
BRANCH  11  14
ATOM     14  N   UNL     1      -0.785  10.817  21.150  0.00  0.00    +0.000 N 
ATOM     15  H   UNL     1      -1.689  10.575  20.751  0.00  0.00    +0.000 HD
BRANCH  14  16
ATOM     16  C   UNL     1      -0.605  12.126  21.683  0.00  0.00    +0.000 A 
ATOM     17  C   UNL     1       0.505  12.856  21.248  0.00  0.00    +0.000 A 
ATOM     18  C   UNL     1       0.713  14.153  21.706  0.00  0.00    +0.000 A 
ATOM     19  C   UNL     1      -0.177  14.715  22.620  0.00  0.00    +0.000 A 
ATOM     20  C   UNL     1      -1.287  13.993  23.086  0.00  0.00    +0.000 A 
ATOM     21  C   UNL     1      -2.168  14.566  24.018  0.00  0.00    +0.000 A 
ATOM     22  C   UNL     1      -3.272  13.857  24.493  0.00  0.00    +0.000 A 
ATOM     23  C   UNL     1      -3.518  12.571  24.031  0.00  0.00    +0.000 A 
ATOM     24  C   UNL     1      -2.662  11.995  23.092  0.00  0.00    +0.000 A 
ATOM     25  C   UNL     1      -1.522  12.680  22.610  0.00  0.00    +0.000 A 
ENDBRANCH  14  16
ENDBRANCH  11  14
ENDBRANCH   6  11
BRANCH   3  26
ATOM     26  C   UNL     1       3.116   4.829  20.080  0.00  0.00    +0.000 C 
BRANCH  26  27
ATOM     27  C   UNL     1       2.733   3.464  19.474  0.00  0.00    +0.000 C 
BRANCH  27  28
ATOM     28  N   UNL     1       3.872   2.583  19.134  0.00  0.00    +0.000 NA
ATOM     29  C   UNL     1       4.571   2.078  20.319  0.00  0.00    +0.000 C 
ATOM     30  C   UNL     1       3.383   1.451  18.338  0.00  0.00    +0.000 C 
ENDBRANCH  27  28
ENDBRANCH  26  27
ENDBRANCH   3  26
TORSDOF 6
ENDMDL
