MODEL 1
REMARK VINA RESULT:      -7.5      0.000      0.000
REMARK  Name = 
REMARK  9 active torsions:
REMARK  status: ('A' for Active; 'I' for Inactive)
REMARK    1  A    between atoms: C_2  and  C_19
REMARK    2  A    between atoms: N_3  and  N_4
REMARK    3  A    between atoms: C_5  and  C_6
REMARK    4  A    between atoms: C_9  and  N_10
REMARK    5  A    between atoms: N_10  and  C_11
REMARK    6  A    between atoms: N_10  and  C_14
REMARK    7  A    between atoms: C_11  and  C_12
REMARK    8  A    between atoms: C_14  and  C_15
REMARK    9  A    between atoms: C_19  and  C_21
REMARK                            x       y       z     vdW  Elec       q    Type
REMARK                         _______ _______ _______ _____ _____    ______ ____
ROOT
ATOM      1  O   UNL     1       2.489   4.635  17.964  0.00  0.00    +0.000 OA
ATOM      2  C   UNL     1       3.567   4.989  17.535  0.00  0.00    +0.000 C 
ATOM      3  N   UNL     1       4.059   6.329  17.689  0.00  0.00    +0.000 N 
ATOM      4  H   UNL     1       4.975   6.572  17.300  0.00  0.00    +0.000 HD
ENDROOT
BRANCH   3   5
ATOM      5  N   UNL     1       3.294   7.263  18.389  0.00  0.00    +0.000 NA
ATOM      6  C   UNL     1       2.669   8.215  17.752  0.00  0.00    +0.000 C 
BRANCH   6   7
ATOM      7  C   UNL     1       1.828   9.258  18.467  0.00  0.00    +0.000 A 
ATOM      8  C   UNL     1       0.962   8.919  19.507  0.00  0.00    +0.000 A 
ATOM      9  C   UNL     1       0.188   9.912  20.179  0.00  0.00    +0.000 A 
ATOM     10  C   UNL     1       0.217  11.284  19.853  0.00  0.00    +0.000 A 
ATOM     11  C   UNL     1       1.091  11.588  18.789  0.00  0.00    +0.000 A 
ATOM     12  C   UNL     1       1.884  10.616  18.115  0.00  0.00    +0.000 A 
BRANCH  10  13
ATOM     13  N   UNL     1      -0.541  12.242  20.524  0.00  0.00    +0.000 N 
BRANCH  13  14
ATOM     14  C   UNL     1      -1.601  13.050  19.863  0.00  0.00    +0.000 C 
BRANCH  14  15
ATOM     15  C   UNL     1      -2.891  12.276  19.557  0.00  0.00    +0.000 C 
ATOM     16 CL   UNL     1      -2.959  11.645  17.889  0.00  0.00    +0.000 Cl
ENDBRANCH  14  15
ENDBRANCH  13  14
BRANCH  13  17
ATOM     17  C   UNL     1      -0.408  12.508  21.981  0.00  0.00    +0.000 C 
BRANCH  17  18
ATOM     18  C   UNL     1      -1.471  11.770  22.796  0.00  0.00    +0.000 C 
ATOM     19 CL   UNL     1      -0.875  10.162  23.296  0.00  0.00    +0.000 Cl
ENDBRANCH  17  18
ENDBRANCH  13  17
ENDBRANCH  10  13
ENDBRANCH   6   7
ENDBRANCH   3   5
BRANCH   2  20
ATOM     20  C   UNL     1       4.469   3.997  16.798  0.00  0.00    +0.000 C 
ATOM     21  O   UNL     1       4.254   2.805  17.072  0.00  0.00    +0.000 OA
BRANCH  20  22
ATOM     22  C   UNL     1       5.588   4.339  15.852  0.00  0.00    +0.000 A 
ATOM     23  C   UNL     1       6.780   4.862  16.335  0.00  0.00    +0.000 A 
ATOM     24  N   UNL     1       7.407   5.504  15.306  0.00  0.00    +0.000 N 
ATOM     25  C   UNL     1       7.040   4.896  14.144  0.00  0.00    +0.000 A 
ATOM     26  C   UNL     1       7.666   4.931  12.890  0.00  0.00    +0.000 A 
ATOM     27  C   UNL     1       7.107   4.177  11.861  0.00  0.00    +0.000 A 
ATOM     28  C   UNL     1       5.905   3.501  12.075  0.00  0.00    +0.000 A 
ATOM     29  C   UNL     1       5.255   3.533  13.322  0.00  0.00    +0.000 A 
ATOM     30  C   UNL     1       5.844   4.194  14.425  0.00  0.00    +0.000 A 
ATOM     31  H   UNL     1       8.153   6.182  15.388  0.00  0.00    +0.000 HD
ENDBRANCH  20  22
ENDBRANCH   2  20
TORSDOF 9
ENDMDL
MODEL 2
REMARK VINA RESULT:      -7.4      4.312     11.476
REMARK  Name = 
REMARK  9 active torsions:
REMARK  status: ('A' for Active; 'I' for Inactive)
REMARK    1  A    between atoms: C_2  and  C_19
REMARK    2  A    between atoms: N_3  and  N_4
REMARK    3  A    between atoms: C_5  and  C_6
REMARK    4  A    between atoms: C_9  and  N_10
REMARK    5  A    between atoms: N_10  and  C_11
REMARK    6  A    between atoms: N_10  and  C_14
REMARK    7  A    between atoms: C_11  and  C_12
REMARK    8  A    between atoms: C_14  and  C_15
REMARK    9  A    between atoms: C_19  and  C_21
REMARK                            x       y       z     vdW  Elec       q    Type
REMARK                         _______ _______ _______ _____ _____    ______ ____
ROOT
ATOM      1  O   UNL     1      -0.090  10.561  23.193  0.00  0.00    +0.000 OA
ATOM      2  C   UNL     1      -0.770  11.223  22.439  0.00  0.00    +0.000 C 
ATOM      3  N   UNL     1      -0.887  10.927  21.039  0.00  0.00    +0.000 N 
ATOM      4  H   UNL     1      -1.473  11.526  20.450  0.00  0.00    +0.000 HD
ENDROOT
BRANCH   3   5
ATOM      5  N   UNL     1      -0.225   9.816  20.517  0.00  0.00    +0.000 NA
ATOM      6  C   UNL     1       0.942   9.949  19.947  0.00  0.00    +0.000 C 
BRANCH   6   7
ATOM      7  C   UNL     1       1.701   8.772  19.360  0.00  0.00    +0.000 A 
ATOM      8  C   UNL     1       1.936   7.608  20.091  0.00  0.00    +0.000 A 
ATOM      9  C   UNL     1       2.639   6.505  19.522  0.00  0.00    +0.000 A 
ATOM     10  C   UNL     1       3.158   6.497  18.210  0.00  0.00    +0.000 A 
ATOM     11  C   UNL     1       2.915   7.694  17.505  0.00  0.00    +0.000 A 
ATOM     12  C   UNL     1       2.202   8.802  18.049  0.00  0.00    +0.000 A 
BRANCH  10  13
ATOM     13  N   UNL     1       3.837   5.409  17.666  0.00  0.00    +0.000 N 
BRANCH  13  14
ATOM     14  C   UNL     1       4.909   5.547  16.643  0.00  0.00    +0.000 C 
BRANCH  14  15
ATOM     15  C   UNL     1       6.271   5.974  17.205  0.00  0.00    +0.000 C 
ATOM     16 CL   UNL     1       7.351   4.600  17.565  0.00  0.00    +0.000 Cl
ENDBRANCH  14  15
ENDBRANCH  13  14
BRANCH  13  17
ATOM     17  C   UNL     1       3.601   4.006  18.100  0.00  0.00    +0.000 C 
BRANCH  17  18
ATOM     18  C   UNL     1       2.431   3.365  17.351  0.00  0.00    +0.000 C 
ATOM     19 CL   UNL     1       1.094   2.995  18.476  0.00  0.00    +0.000 Cl
ENDBRANCH  17  18
ENDBRANCH  13  17
ENDBRANCH  10  13
ENDBRANCH   6   7
ENDBRANCH   3   5
BRANCH   2  20
ATOM     20  C   UNL     1      -1.555  12.427  22.963  0.00  0.00    +0.000 C 
ATOM     21  O   UNL     1      -0.858  13.296  23.512  0.00  0.00    +0.000 OA
BRANCH  20  22
ATOM     22  C   UNL     1      -3.048  12.608  22.923  0.00  0.00    +0.000 A 
ATOM     23  C   UNL     1      -3.763  12.814  24.095  0.00  0.00    +0.000 A 
ATOM     24  N   UNL     1      -5.066  12.480  23.860  0.00  0.00    +0.000 N 
ATOM     25  C   UNL     1      -5.324  12.696  22.540  0.00  0.00    +0.000 A 
ATOM     26  C   UNL     1      -6.558  12.858  21.895  0.00  0.00    +0.000 A 
ATOM     27  C   UNL     1      -6.550  13.115  20.526  0.00  0.00    +0.000 A 
ATOM     28  C   UNL     1      -5.341  13.104  19.830  0.00  0.00    +0.000 A 
ATOM     29  C   UNL     1      -4.118  12.872  20.484  0.00  0.00    +0.000 A 
ATOM     30  C   UNL     1      -4.069  12.717  21.889  0.00  0.00    +0.000 A 
ATOM     31  H   UNL     1      -5.770  12.287  24.559  0.00  0.00    +0.000 HD
ENDBRANCH  20  22
ENDBRANCH   2  20
TORSDOF 9
ENDMDL
MODEL 3
REMARK VINA RESULT:      -7.3      4.566     11.070
REMARK  Name = 
REMARK  9 active torsions:
REMARK  status: ('A' for Active; 'I' for Inactive)
REMARK    1  A    between atoms: C_2  and  C_19
REMARK    2  A    between atoms: N_3  and  N_4
REMARK    3  A    between atoms: C_5  and  C_6
REMARK    4  A    between atoms: C_9  and  N_10
REMARK    5  A    between atoms: N_10  and  C_11
REMARK    6  A    between atoms: N_10  and  C_14
REMARK    7  A    between atoms: C_11  and  C_12
REMARK    8  A    between atoms: C_14  and  C_15
REMARK    9  A    between atoms: C_19  and  C_21
REMARK                            x       y       z     vdW  Elec       q    Type
REMARK                         _______ _______ _______ _____ _____    ______ ____
ROOT
ATOM      1  O   UNL     1      -1.676   9.567  17.159  0.00  0.00    +0.000 OA
ATOM      2  C   UNL     1      -1.276  10.551  17.744  0.00  0.00    +0.000 C 
ATOM      3  N   UNL     1       0.063  10.657  18.254  0.00  0.00    +0.000 N 
ATOM      4  H   UNL     1       0.343  11.512  18.744  0.00  0.00    +0.000 HD
ENDROOT
BRANCH   3   5
ATOM      5  N   UNL     1       0.960   9.610  18.045  0.00  0.00    +0.000 NA
ATOM      6  C   UNL     1       1.344   8.860  19.042  0.00  0.00    +0.000 C 
BRANCH   6   7
ATOM      7  C   UNL     1       2.322   7.711  18.869  0.00  0.00    +0.000 A 
ATOM      8  C   UNL     1       3.151   7.613  17.752  0.00  0.00    +0.000 A 
ATOM      9  C   UNL     1       4.075   6.534  17.609  0.00  0.00    +0.000 A 
ATOM     10  C   UNL     1       4.219   5.493  18.550  0.00  0.00    +0.000 A 
ATOM     11  C   UNL     1       3.355   5.617  19.657  0.00  0.00    +0.000 A 
ATOM     12  C   UNL     1       2.437   6.693  19.828  0.00  0.00    +0.000 A 
BRANCH  10  13
ATOM     13  N   UNL     1       5.131   4.451  18.398  0.00  0.00    +0.000 N 
BRANCH  13  14
ATOM     14  C   UNL     1       4.818   3.039  18.748  0.00  0.00    +0.000 C 
BRANCH  14  15
ATOM     15  C   UNL     1       3.647   2.435  17.962  0.00  0.00    +0.000 C 
ATOM     16 CL   UNL     1       2.199   2.139  18.962  0.00  0.00    +0.000 Cl
ENDBRANCH  14  15
ENDBRANCH  13  14
BRANCH  13  17
ATOM     17  C   UNL     1       6.485   4.636  17.814  0.00  0.00    +0.000 C 
BRANCH  17  18
ATOM     18  C   UNL     1       7.386   5.483  18.715  0.00  0.00    +0.000 C 
ATOM     19 CL   UNL     1       7.697   7.077  17.971  0.00  0.00    +0.000 Cl
ENDBRANCH  17  18
ENDBRANCH  13  17
ENDBRANCH  10  13
ENDBRANCH   6   7
ENDBRANCH   3   5
BRANCH   2  20
ATOM     20  C   UNL     1      -2.201  11.749  17.963  0.00  0.00    +0.000 C 
ATOM     21  O   UNL     1      -1.615  12.807  18.248  0.00  0.00    +0.000 OA
BRANCH  20  22
ATOM     22  C   UNL     1      -3.705  11.736  17.923  0.00  0.00    +0.000 A 
ATOM     23  C   UNL     1      -4.373  11.261  16.802  0.00  0.00    +0.000 A 
ATOM     24  N   UNL     1      -5.638  11.776  16.815  0.00  0.00    +0.000 N 
ATOM     25  C   UNL     1      -5.993  11.988  18.113  0.00  0.00    +0.000 A 
ATOM     26  C   UNL     1      -7.271  12.147  18.666  0.00  0.00    +0.000 A 
ATOM     27  C   UNL     1      -7.369  12.309  20.046  0.00  0.00    +0.000 A 
ATOM     28  C   UNL     1      -6.208  12.409  20.813  0.00  0.00    +0.000 A 
ATOM     29  C   UNL     1      -4.932  12.314  20.230  0.00  0.00    +0.000 A 
ATOM     30  C   UNL     1      -4.787  12.039  18.850  0.00  0.00    +0.000 A 
ATOM     31  H   UNL     1      -6.275  11.821  16.031  0.00  0.00    +0.000 HD
ENDBRANCH  20  22
ENDBRANCH   2  20
TORSDOF 9
ENDMDL
MODEL 4
REMARK VINA RESULT:      -7.3      3.562      4.677
REMARK  Name = 
REMARK  9 active torsions:
REMARK  status: ('A' for Active; 'I' for Inactive)
REMARK    1  A    between atoms: C_2  and  C_19
REMARK    2  A    between atoms: N_3  and  N_4
REMARK    3  A    between atoms: C_5  and  C_6
REMARK    4  A    between atoms: C_9  and  N_10
REMARK    5  A    between atoms: N_10  and  C_11
REMARK    6  A    between atoms: N_10  and  C_14
REMARK    7  A    between atoms: C_11  and  C_12
REMARK    8  A    between atoms: C_14  and  C_15
REMARK    9  A    between atoms: C_19  and  C_21
REMARK                            x       y       z     vdW  Elec       q    Type
REMARK                         _______ _______ _______ _____ _____    ______ ____
ROOT
ATOM      1  O   UNL     1       2.692   8.764  17.214  0.00  0.00    +0.000 OA
ATOM      2  C   UNL     1       2.923   7.847  17.973  0.00  0.00    +0.000 C 
ATOM      3  N   UNL     1       2.314   7.743  19.269  0.00  0.00    +0.000 N 
ATOM      4  H   UNL     1       2.552   6.947  19.870  0.00  0.00    +0.000 HD
ENDROOT
BRANCH   3   5
ATOM      5  N   UNL     1       1.392   8.708  19.672  0.00  0.00    +0.000 NA
ATOM      6  C   UNL     1       1.114   8.870  20.937  0.00  0.00    +0.000 C 
BRANCH   6   7
ATOM      7  C   UNL     1       0.114   9.904  21.426  0.00  0.00    +0.000 A 
ATOM      8  C   UNL     1      -0.370  10.911  20.593  0.00  0.00    +0.000 A 
ATOM      9  C   UNL     1      -1.319  11.868  21.062  0.00  0.00    +0.000 A 
ATOM     10  C   UNL     1      -1.828  11.889  22.378  0.00  0.00    +0.000 A 
ATOM     11  C   UNL     1      -1.306  10.866  23.196  0.00  0.00    +0.000 A 
ATOM     12  C   UNL     1      -0.370   9.892  22.744  0.00  0.00    +0.000 A 
BRANCH  10  13
ATOM     13  N   UNL     1      -2.760  12.826  22.819  0.00  0.00    +0.000 N 
BRANCH  13  14
ATOM     14  C   UNL     1      -4.195  12.794  22.428  0.00  0.00    +0.000 C 
BRANCH  14  15
ATOM     15  C   UNL     1      -4.503  13.481  21.091  0.00  0.00    +0.000 C 
ATOM     16 CL   UNL     1      -4.691  12.338  19.733  0.00  0.00    +0.000 Cl
ENDBRANCH  14  15
ENDBRANCH  13  14
BRANCH  13  17
ATOM     17  C   UNL     1      -2.425  13.916  23.774  0.00  0.00    +0.000 C 
BRANCH  17  18
ATOM     18  C   UNL     1      -3.679  14.593  24.331  0.00  0.00    +0.000 C 
ATOM     19 CL   UNL     1      -3.242  16.061  25.250  0.00  0.00    +0.000 Cl
ENDBRANCH  17  18
ENDBRANCH  13  17
ENDBRANCH  10  13
ENDBRANCH   6   7
ENDBRANCH   3   5
BRANCH   2  20
ATOM     20  C   UNL     1       3.892   6.734  17.568  0.00  0.00    +0.000 C 
ATOM     21  O   UNL     1       4.700   7.054  16.681  0.00  0.00    +0.000 OA
BRANCH  20  22
ATOM     22  C   UNL     1       3.905   5.325  18.094  0.00  0.00    +0.000 A 
ATOM     23  C   UNL     1       5.060   4.796  18.657  0.00  0.00    +0.000 A 
ATOM     24  N   UNL     1       4.965   3.435  18.613  0.00  0.00    +0.000 N 
ATOM     25  C   UNL     1       3.645   3.102  18.666  0.00  0.00    +0.000 A 
ATOM     26  C   UNL     1       3.054   1.880  19.013  0.00  0.00    +0.000 A 
ATOM     27  C   UNL     1       1.662   1.810  19.032  0.00  0.00    +0.000 A 
ATOM     28  C   UNL     1       0.911   2.910  18.615  0.00  0.00    +0.000 A 
ATOM     29  C   UNL     1       1.525   4.107  18.206  0.00  0.00    +0.000 A 
ATOM     30  C   UNL     1       2.930   4.259  18.276  0.00  0.00    +0.000 A 
ATOM     31  H   UNL     1       5.727   2.778  18.714  0.00  0.00    +0.000 HD
ENDBRANCH  20  22
ENDBRANCH   2  20
TORSDOF 9
ENDMDL
MODEL 5
REMARK VINA RESULT:      -7.3      2.959      4.207
REMARK  Name = 
REMARK  9 active torsions:
REMARK  status: ('A' for Active; 'I' for Inactive)
REMARK    1  A    between atoms: C_2  and  C_19
REMARK    2  A    between atoms: N_3  and  N_4
REMARK    3  A    between atoms: C_5  and  C_6
REMARK    4  A    between atoms: C_9  and  N_10
REMARK    5  A    between atoms: N_10  and  C_11
REMARK    6  A    between atoms: N_10  and  C_14
REMARK    7  A    between atoms: C_11  and  C_12
REMARK    8  A    between atoms: C_14  and  C_15
REMARK    9  A    between atoms: C_19  and  C_21
REMARK                            x       y       z     vdW  Elec       q    Type
REMARK                         _______ _______ _______ _____ _____    ______ ____
ROOT
ATOM      1  O   UNL     1       0.520   4.564  20.457  0.00  0.00    +0.000 OA
ATOM      2  C   UNL     1       1.693   4.871  20.435  0.00  0.00    +0.000 C 
ATOM      3  N   UNL     1       2.153   6.189  20.772  0.00  0.00    +0.000 N 
ATOM      4  H   UNL     1       3.157   6.392  20.731  0.00  0.00    +0.000 HD
ENDROOT
BRANCH   3   5
ATOM      5  N   UNL     1       1.231   7.155  21.175  0.00  0.00    +0.000 NA
ATOM      6  C   UNL     1       1.572   8.413  21.229  0.00  0.00    +0.000 C 
BRANCH   6   7
ATOM      7  C   UNL     1       0.607   9.502  21.665  0.00  0.00    +0.000 A 
ATOM      8  C   UNL     1       0.365  10.628  20.880  0.00  0.00    +0.000 A 
ATOM      9  C   UNL     1      -0.555  11.637  21.295  0.00  0.00    +0.000 A 
ATOM     10  C   UNL     1      -1.272  11.594  22.510  0.00  0.00    +0.000 A 
ATOM     11  C   UNL     1      -0.991  10.450  23.284  0.00  0.00    +0.000 A 
ATOM     12  C   UNL     1      -0.089   9.423  22.881  0.00  0.00    +0.000 A 
BRANCH  10  13
ATOM     13  N   UNL     1      -2.171  12.584  22.898  0.00  0.00    +0.000 N 
BRANCH  13  14
ATOM     14  C   UNL     1      -1.746  13.911  23.419  0.00  0.00    +0.000 C 
BRANCH  14  15
ATOM     15  C   UNL     1      -2.663  14.490  24.506  0.00  0.00    +0.000 C 
ATOM     16 CL   UNL     1      -3.540  15.954  23.987  0.00  0.00    +0.000 Cl
ENDBRANCH  14  15
ENDBRANCH  13  14
BRANCH  13  17
ATOM     17  C   UNL     1      -3.646  12.436  22.773  0.00  0.00    +0.000 C 
BRANCH  17  18
ATOM     18  C   UNL     1      -4.166  12.995  21.447  0.00  0.00    +0.000 C 
ATOM     19 CL   UNL     1      -5.679  13.909  21.704  0.00  0.00    +0.000 Cl
ENDBRANCH  17  18
ENDBRANCH  13  17
ENDBRANCH  10  13
ENDBRANCH   6   7
ENDBRANCH   3   5
BRANCH   2  20
ATOM     20  C   UNL     1       2.755   3.842  20.044  0.00  0.00    +0.000 C 
ATOM     21  O   UNL     1       3.062   3.050  20.951  0.00  0.00    +0.000 OA
BRANCH  20  22
ATOM     22  C   UNL     1       3.470   3.753  18.724  0.00  0.00    +0.000 A 
ATOM     23  C   UNL     1       3.537   2.545  18.041  0.00  0.00    +0.000 A 
ATOM     24  N   UNL     1       4.587   2.611  17.170  0.00  0.00    +0.000 N 
ATOM     25  C   UNL     1       4.757   3.913  16.813  0.00  0.00    +0.000 A 
ATOM     26  C   UNL     1       5.429   4.446  15.704  0.00  0.00    +0.000 A 
ATOM     27  C   UNL     1       5.421   5.829  15.539  0.00  0.00    +0.000 A 
ATOM     28  C   UNL     1       4.843   6.637  16.518  0.00  0.00    +0.000 A 
ATOM     29  C   UNL     1       4.232   6.087  17.659  0.00  0.00    +0.000 A 
ATOM     30  C   UNL     1       4.119   4.685  17.812  0.00  0.00    +0.000 A 
ATOM     31  H   UNL     1       5.041   1.827  16.720  0.00  0.00    +0.000 HD
ENDBRANCH  20  22
ENDBRANCH   2  20
TORSDOF 9
ENDMDL
MODEL 6
REMARK VINA RESULT:      -7.3      4.578     10.848
REMARK  Name = 
REMARK  9 active torsions:
REMARK  status: ('A' for Active; 'I' for Inactive)
REMARK    1  A    between atoms: C_2  and  C_19
REMARK    2  A    between atoms: N_3  and  N_4
REMARK    3  A    between atoms: C_5  and  C_6
REMARK    4  A    between atoms: C_9  and  N_10
REMARK    5  A    between atoms: N_10  and  C_11
REMARK    6  A    between atoms: N_10  and  C_14
REMARK    7  A    between atoms: C_11  and  C_12
REMARK    8  A    between atoms: C_14  and  C_15
REMARK    9  A    between atoms: C_19  and  C_21
REMARK                            x       y       z     vdW  Elec       q    Type
REMARK                         _______ _______ _______ _____ _____    ______ ____
ROOT
ATOM      1  O   UNL     1      -0.948  10.171  20.091  0.00  0.00    +0.000 OA
ATOM      2  C   UNL     1      -0.706  11.029  19.269  0.00  0.00    +0.000 C 
ATOM      3  N   UNL     1       0.519  11.058  18.519  0.00  0.00    +0.000 N 
ATOM      4  H   UNL     1       0.670  11.812  17.842  0.00  0.00    +0.000 HD
ENDROOT
BRANCH   3   5
ATOM      5  N   UNL     1       1.461  10.047  18.707  0.00  0.00    +0.000 NA
ATOM      6  C   UNL     1       1.395   8.944  18.013  0.00  0.00    +0.000 C 
BRANCH   6   7
ATOM      7  C   UNL     1       2.393   7.812  18.182  0.00  0.00    +0.000 A 
ATOM      8  C   UNL     1       2.401   7.002  19.317  0.00  0.00    +0.000 A 
ATOM      9  C   UNL     1       3.336   5.933  19.457  0.00  0.00    +0.000 A 
ATOM     10  C   UNL     1       4.317   5.617  18.494  0.00  0.00    +0.000 A 
ATOM     11  C   UNL     1       4.289   6.464  17.368  0.00  0.00    +0.000 A 
ATOM     12  C   UNL     1       3.355   7.527  17.201  0.00  0.00    +0.000 A 
BRANCH  10  13
ATOM     13  N   UNL     1       5.218   4.565  18.643  0.00  0.00    +0.000 N 
BRANCH  13  14
ATOM     14  C   UNL     1       6.664   4.679  18.309  0.00  0.00    +0.000 C 
BRANCH  14  15
ATOM     15  C   UNL     1       7.422   5.736  19.123  0.00  0.00    +0.000 C 
ATOM     16 CL   UNL     1       7.851   7.186  18.176  0.00  0.00    +0.000 Cl
ENDBRANCH  14  15
ENDBRANCH  13  14
BRANCH  13  17
ATOM     17  C   UNL     1       4.838   3.244  19.209  0.00  0.00    +0.000 C 
BRANCH  17  18
ATOM     18  C   UNL     1       3.787   2.535  18.351  0.00  0.00    +0.000 C 
ATOM     19 CL   UNL     1       2.241   2.405  19.236  0.00  0.00    +0.000 Cl
ENDBRANCH  17  18
ENDBRANCH  13  17
ENDBRANCH  10  13
ENDBRANCH   6   7
ENDBRANCH   3   5
BRANCH   2  20
ATOM     20  C   UNL     1      -1.721  12.139  18.988  0.00  0.00    +0.000 C 
ATOM     21  O   UNL     1      -1.347  13.275  19.324  0.00  0.00    +0.000 OA
BRANCH  20  22
ATOM     22  C   UNL     1      -3.101  11.964  18.417  0.00  0.00    +0.000 A 
ATOM     23  C   UNL     1      -3.271  11.484  17.125  0.00  0.00    +0.000 A 
ATOM     24  N   UNL     1      -4.513  11.856  16.696  0.00  0.00    +0.000 N 
ATOM     25  C   UNL     1      -5.323  11.953  17.786  0.00  0.00    +0.000 A 
ATOM     26  C   UNL     1      -6.724  11.939  17.853  0.00  0.00    +0.000 A 
ATOM     27  C   UNL     1      -7.318  12.009  19.111  0.00  0.00    +0.000 A 
ATOM     28  C   UNL     1      -6.520  12.190  20.241  0.00  0.00    +0.000 A 
ATOM     29  C   UNL     1      -5.120  12.270  20.148  0.00  0.00    +0.000 A 
ATOM     30  C   UNL     1      -4.468  12.092  18.905  0.00  0.00    +0.000 A 
ATOM     31  H   UNL     1      -4.835  11.875  15.738  0.00  0.00    +0.000 HD
ENDBRANCH  20  22
ENDBRANCH   2  20
TORSDOF 9
ENDMDL
MODEL 7
REMARK VINA RESULT:      -7.3      0.701      1.121
REMARK  Name = 
REMARK  9 active torsions:
REMARK  status: ('A' for Active; 'I' for Inactive)
REMARK    1  A    between atoms: C_2  and  C_19
REMARK    2  A    between atoms: N_3  and  N_4
REMARK    3  A    between atoms: C_5  and  C_6
REMARK    4  A    between atoms: C_9  and  N_10
REMARK    5  A    between atoms: N_10  and  C_11
REMARK    6  A    between atoms: N_10  and  C_14
REMARK    7  A    between atoms: C_11  and  C_12
REMARK    8  A    between atoms: C_14  and  C_15
REMARK    9  A    between atoms: C_19  and  C_21
REMARK                            x       y       z     vdW  Elec       q    Type
REMARK                         _______ _______ _______ _____ _____    ______ ____
ROOT
ATOM      1  O   UNL     1       2.756   4.241  18.556  0.00  0.00    +0.000 OA
ATOM      2  C   UNL     1       3.498   4.694  17.712  0.00  0.00    +0.000 C 
ATOM      3  N   UNL     1       3.500   6.083  17.347  0.00  0.00    +0.000 N 
ATOM      4  H   UNL     1       4.147   6.407  16.621  0.00  0.00    +0.000 HD
ENDROOT
BRANCH   3   5
ATOM      5  N   UNL     1       2.644   6.965  18.005  0.00  0.00    +0.000 NA
ATOM      6  C   UNL     1       2.809   8.254  17.892  0.00  0.00    +0.000 C 
BRANCH   6   7
ATOM      7  C   UNL     1       1.907   9.256  18.592  0.00  0.00    +0.000 A 
ATOM      8  C   UNL     1       1.793  10.575  18.154  0.00  0.00    +0.000 A 
ATOM      9  C   UNL     1       0.932  11.503  18.813  0.00  0.00    +0.000 A 
ATOM     10  C   UNL     1       0.151  11.183  19.943  0.00  0.00    +0.000 A 
ATOM     11  C   UNL     1       0.302   9.846  20.367  0.00  0.00    +0.000 A 
ATOM     12  C   UNL     1       1.144   8.900  19.714  0.00  0.00    +0.000 A 
BRANCH  10  13
ATOM     13  N   UNL     1      -0.690  12.098  20.571  0.00  0.00    +0.000 N 
BRANCH  13  14
ATOM     14  C   UNL     1      -1.821  12.773  19.879  0.00  0.00    +0.000 C 
BRANCH  14  15
ATOM     15  C   UNL     1      -2.723  11.830  19.070  0.00  0.00    +0.000 C 
ATOM     16 CL   UNL     1      -2.256  11.703  17.353  0.00  0.00    +0.000 Cl
ENDBRANCH  14  15
ENDBRANCH  13  14
BRANCH  13  17
ATOM     17  C   UNL     1      -0.580  12.446  22.013  0.00  0.00    +0.000 C 
BRANCH  17  18
ATOM     18  C   UNL     1      -1.825  13.172  22.523  0.00  0.00    +0.000 C 
ATOM     19 CL   UNL     1      -2.878  12.050  23.431  0.00  0.00    +0.000 Cl
ENDBRANCH  17  18
ENDBRANCH  13  17
ENDBRANCH  10  13
ENDBRANCH   6   7
ENDBRANCH   3   5
BRANCH   2  20
ATOM     20  C   UNL     1       4.490   3.782  16.986  0.00  0.00    +0.000 C 
ATOM     21  O   UNL     1       4.351   2.573  17.232  0.00  0.00    +0.000 OA
BRANCH  20  22
ATOM     22  C   UNL     1       5.611   4.220  16.084  0.00  0.00    +0.000 A 
ATOM     23  C   UNL     1       6.770   4.768  16.619  0.00  0.00    +0.000 A 
ATOM     24  N   UNL     1       7.389   5.488  15.638  0.00  0.00    +0.000 N 
ATOM     25  C   UNL     1       7.071   4.927  14.439  0.00  0.00    +0.000 A 
ATOM     26  C   UNL     1       7.719   5.053  13.202  0.00  0.00    +0.000 A 
ATOM     27  C   UNL     1       7.213   4.331  12.124  0.00  0.00    +0.000 A 
ATOM     28  C   UNL     1       6.038   3.595  12.277  0.00  0.00    +0.000 A 
ATOM     29  C   UNL     1       5.364   3.534  13.509  0.00  0.00    +0.000 A 
ATOM     30  C   UNL     1       5.901   4.161  14.658  0.00  0.00    +0.000 A 
ATOM     31  H   UNL     1       8.102   6.192  15.771  0.00  0.00    +0.000 HD
ENDBRANCH  20  22
ENDBRANCH   2  20
TORSDOF 9
ENDMDL
MODEL 8
REMARK VINA RESULT:      -7.3      1.093      2.085
REMARK  Name = 
REMARK  9 active torsions:
REMARK  status: ('A' for Active; 'I' for Inactive)
REMARK    1  A    between atoms: C_2  and  C_19
REMARK    2  A    between atoms: N_3  and  N_4
REMARK    3  A    between atoms: C_5  and  C_6
REMARK    4  A    between atoms: C_9  and  N_10
REMARK    5  A    between atoms: N_10  and  C_11
REMARK    6  A    between atoms: N_10  and  C_14
REMARK    7  A    between atoms: C_11  and  C_12
REMARK    8  A    between atoms: C_14  and  C_15
REMARK    9  A    between atoms: C_19  and  C_21
REMARK                            x       y       z     vdW  Elec       q    Type
REMARK                         _______ _______ _______ _____ _____    ______ ____
ROOT
ATOM      1  O   UNL     1       3.234   4.832  18.753  0.00  0.00    +0.000 OA
ATOM      2  C   UNL     1       3.881   5.184  17.789  0.00  0.00    +0.000 C 
ATOM      3  N   UNL     1       4.001   6.561  17.400  0.00  0.00    +0.000 N 
ATOM      4  H   UNL     1       4.557   6.799  16.572  0.00  0.00    +0.000 HD
ENDROOT
BRANCH   3   5
ATOM      5  N   UNL     1       3.384   7.547  18.170  0.00  0.00    +0.000 NA
ATOM      6  C   UNL     1       2.372   8.220  17.695  0.00  0.00    +0.000 C 
BRANCH   6   7
ATOM      7  C   UNL     1       1.668   9.306  18.491  0.00  0.00    +0.000 A 
ATOM      8  C   UNL     1       1.587  10.620  18.031  0.00  0.00    +0.000 A 
ATOM      9  C   UNL     1       0.911  11.627  18.783  0.00  0.00    +0.000 A 
ATOM     10  C   UNL     1       0.293  11.394  20.029  0.00  0.00    +0.000 A 
ATOM     11  C   UNL     1       0.408  10.060  20.470  0.00  0.00    +0.000 A 
ATOM     12  C   UNL     1       1.064   9.035  19.728  0.00  0.00    +0.000 A 
BRANCH  10  13
ATOM     13  N   UNL     1      -0.368  12.387  20.748  0.00  0.00    +0.000 N 
BRANCH  13  14
ATOM     14  C   UNL     1      -1.831  12.358  21.020  0.00  0.00    +0.000 C 
BRANCH  14  15
ATOM     15  C   UNL     1      -2.198  12.153  22.496  0.00  0.00    +0.000 C 
ATOM     16 CL   UNL     1      -1.255  10.862  23.288  0.00  0.00    +0.000 Cl
ENDBRANCH  14  15
ENDBRANCH  13  14
BRANCH  13  17
ATOM     17  C   UNL     1       0.332  13.544  21.367  0.00  0.00    +0.000 C 
BRANCH  17  18
ATOM     18  C   UNL     1      -0.278  14.879  20.935  0.00  0.00    +0.000 C 
ATOM     19 CL   UNL     1      -0.234  15.042  19.157  0.00  0.00    +0.000 Cl
ENDBRANCH  17  18
ENDBRANCH  13  17
ENDBRANCH  10  13
ENDBRANCH   6   7
ENDBRANCH   3   5
BRANCH   2  20
ATOM     20  C   UNL     1       4.616   4.152  16.933  0.00  0.00    +0.000 C 
ATOM     21  O   UNL     1       4.273   2.976  17.137  0.00  0.00    +0.000 OA
BRANCH  20  22
ATOM     22  C   UNL     1       5.718   4.431  15.947  0.00  0.00    +0.000 A 
ATOM     23  C   UNL     1       6.947   4.907  16.383  0.00  0.00    +0.000 A 
ATOM     24  N   UNL     1       7.568   5.506  15.324  0.00  0.00    +0.000 N 
ATOM     25  C   UNL     1       7.136   4.899  14.184  0.00  0.00    +0.000 A 
ATOM     26  C   UNL     1       7.721   4.888  12.910  0.00  0.00    +0.000 A 
ATOM     27  C   UNL     1       7.096   4.145  11.911  0.00  0.00    +0.000 A 
ATOM     28  C   UNL     1       5.873   3.527  12.175  0.00  0.00    +0.000 A 
ATOM     29  C   UNL     1       5.267   3.605  13.441  0.00  0.00    +0.000 A 
ATOM     30  C   UNL     1       5.920   4.255  14.514  0.00  0.00    +0.000 A 
ATOM     31  H   UNL     1       8.344   6.151  15.372  0.00  0.00    +0.000 HD
ENDBRANCH  20  22
ENDBRANCH   2  20
TORSDOF 9
ENDMDL
MODEL 9
REMARK VINA RESULT:      -7.2      3.881      4.918
REMARK  Name = 
REMARK  9 active torsions:
REMARK  status: ('A' for Active; 'I' for Inactive)
REMARK    1  A    between atoms: C_2  and  C_19
REMARK    2  A    between atoms: N_3  and  N_4
REMARK    3  A    between atoms: C_5  and  C_6
REMARK    4  A    between atoms: C_9  and  N_10
REMARK    5  A    between atoms: N_10  and  C_11
REMARK    6  A    between atoms: N_10  and  C_14
REMARK    7  A    between atoms: C_11  and  C_12
REMARK    8  A    between atoms: C_14  and  C_15
REMARK    9  A    between atoms: C_19  and  C_21
REMARK                            x       y       z     vdW  Elec       q    Type
REMARK                         _______ _______ _______ _____ _____    ______ ____
ROOT
ATOM      1  O   UNL     1       2.629   8.796  17.263  0.00  0.00    +0.000 OA
ATOM      2  C   UNL     1       2.856   7.872  18.014  0.00  0.00    +0.000 C 
ATOM      3  N   UNL     1       2.229   7.747  19.300  0.00  0.00    +0.000 N 
ATOM      4  H   UNL     1       2.464   6.946  19.894  0.00  0.00    +0.000 HD
ENDROOT
BRANCH   3   5
ATOM      5  N   UNL     1       1.293   8.700  19.700  0.00  0.00    +0.000 NA
ATOM      6  C   UNL     1       1.077   8.923  20.968  0.00  0.00    +0.000 C 
BRANCH   6   7
ATOM      7  C   UNL     1       0.067   9.946  21.456  0.00  0.00    +0.000 A 
ATOM      8  C   UNL     1      -0.370   9.975  22.780  0.00  0.00    +0.000 A 
ATOM      9  C   UNL     1      -1.310  10.951  23.228  0.00  0.00    +0.000 A 
ATOM     10  C   UNL     1      -1.876  11.937  22.394  0.00  0.00    +0.000 A 
ATOM     11  C   UNL     1      -1.423  11.869  21.060  0.00  0.00    +0.000 A 
ATOM     12  C   UNL     1      -0.474  10.913  20.595  0.00  0.00    +0.000 A 
BRANCH  10  13
ATOM     13  N   UNL     1      -2.788  12.887  22.848  0.00  0.00    +0.000 N 
BRANCH  13  14
ATOM     14  C   UNL     1      -2.395  14.066  23.668  0.00  0.00    +0.000 C 
BRANCH  14  15
ATOM     15  C   UNL     1      -2.453  15.405  22.921  0.00  0.00    +0.000 C 
ATOM     16 CL   UNL     1      -2.091  16.811  23.959  0.00  0.00    +0.000 Cl
ENDBRANCH  14  15
ENDBRANCH  13  14
BRANCH  13  17
ATOM     17  C   UNL     1      -4.235  12.852  22.508  0.00  0.00    +0.000 C 
BRANCH  17  18
ATOM     18  C   UNL     1      -5.118  12.932  23.755  0.00  0.00    +0.000 C 
ATOM     19 CL   UNL     1      -6.011  14.478  23.792  0.00  0.00    +0.000 Cl
ENDBRANCH  17  18
ENDBRANCH  13  17
ENDBRANCH  10  13
ENDBRANCH   6   7
ENDBRANCH   3   5
BRANCH   2  20
ATOM     20  C   UNL     1       3.840   6.772  17.610  0.00  0.00    +0.000 C 
ATOM     21  O   UNL     1       4.600   7.080  16.677  0.00  0.00    +0.000 OA
BRANCH  20  22
ATOM     22  C   UNL     1       3.917   5.385  18.188  0.00  0.00    +0.000 A 
ATOM     23  C   UNL     1       5.065   4.961  18.845  0.00  0.00    +0.000 A 
ATOM     24  N   UNL     1       5.070   3.595  18.846  0.00  0.00    +0.000 N 
ATOM     25  C   UNL     1       3.777   3.169  18.823  0.00  0.00    +0.000 A 
ATOM     26  C   UNL     1       3.251   1.918  19.175  0.00  0.00    +0.000 A 
ATOM     27  C   UNL     1       1.871   1.747  19.104  0.00  0.00    +0.000 A 
ATOM     28  C   UNL     1       1.074   2.774  18.597  0.00  0.00    +0.000 A 
ATOM     29  C   UNL     1       1.628   3.999  18.186  0.00  0.00    +0.000 A 
ATOM     30  C   UNL     1       3.010   4.256  18.344  0.00  0.00    +0.000 A 
ATOM     31  H   UNL     1       5.868   3.000  19.021  0.00  0.00    +0.000 HD
ENDBRANCH  20  22
ENDBRANCH   2  20
TORSDOF 9
ENDMDL
