MODEL 1
REMARK VINA RESULT:      -7.9      0.000      0.000
REMARK  Name = 
REMARK  12 active torsions:
REMARK  status: ('A' for Active; 'I' for Inactive)
REMARK    1  A    between atoms: C_1  and  C_2
REMARK    2  A    between atoms: C_2  and  O_3
REMARK    3  A    between atoms: O_3  and  C_4
REMARK    4  A    between atoms: C_4  and  C_6
REMARK    5  A    between atoms: C_13  and  C_15
REMARK    6  A    between atoms: C_15  and  O_16
REMARK    7  A    between atoms: O_16  and  C_17
REMARK    8  A    between atoms: C_17  and  C_19
REMARK    9  A    between atoms: C_19  and  S_20
REMARK   10  A    between atoms: S_20  and  C_21
REMARK   11  A    between atoms: C_23  and  C_24
REMARK   12  A    between atoms: C_26  and  C_27
REMARK                            x       y       z     vdW  Elec       q    Type
REMARK                         _______ _______ _______ _____ _____    ______ ____
ROOT
ATOM      1  C   UNL     1       5.454   4.738  15.954  0.00  0.00    +0.000 A 
ATOM      2  C   UNL     1       5.050   3.596  16.661  0.00  0.00    +0.000 A 
ATOM      3  C   UNL     1       4.247   3.705  17.813  0.00  0.00    +0.000 A 
ATOM      4  C   UNL     1       3.810   4.973  18.253  0.00  0.00    +0.000 A 
ATOM      5  N   UNL     1       3.026   5.276  19.369  0.00  0.00    +0.000 NA
ATOM      6  C   UNL     1       2.735   6.560  19.384  0.00  0.00    +0.000 A 
ATOM      7  N   UNL     1       2.001   7.191  20.370  0.00  0.00    +0.000 N 
ATOM      8  C   UNL     1       1.410   8.439  20.247  0.00  0.00    +0.000 C 
ATOM      9  O   UNL     1       1.361   9.114  19.220  0.00  0.00    +0.000 OA
ATOM     10  S   UNL     1       3.413   7.442  18.110  0.00  0.00    +0.000 S 
ATOM     11  C   UNL     1       4.188   6.075  17.494  0.00  0.00    +0.000 A 
ATOM     12  C   UNL     1       5.029   5.998  16.377  0.00  0.00    +0.000 A 
ATOM     13  H   UNL     1       1.816   6.621  21.184  0.00  0.00    +0.000 HD
ENDROOT
BRANCH   1  14
ATOM     14  C   UNL     1       6.216   4.689  14.683  0.00  0.00    +0.000 C 
ATOM     15  O   UNL     1       6.833   5.649  14.224  0.00  0.00    +0.000 OA
BRANCH  14  16
ATOM     16  O   UNL     1       5.989   3.516  14.054  0.00  0.00    +0.000 OA
BRANCH  16  18
ATOM     17  C   UNL     1       6.686   3.106  11.819  0.00  0.00    +0.000 C 
ATOM     18  C   UNL     1       5.558   3.630  12.691  0.00  0.00    +0.000 C 
ENDBRANCH  16  18
ENDBRANCH  14  16
ENDBRANCH   1  14
BRANCH   8  19
ATOM     19  C   UNL     1       0.693   8.955  21.504  0.00  0.00    +0.000 C 
BRANCH  19  20
ATOM     20  O   UNL     1      -0.430   9.800  21.231  0.00  0.00    +0.000 OA
BRANCH  20  21
ATOM     21  C   UNL     1      -0.656  10.751  22.183  0.00  0.00    +0.000 C 
ATOM     22  O   UNL     1      -0.321  10.613  23.353  0.00  0.00    +0.000 OA
BRANCH  21  23
ATOM     23  C   UNL     1      -1.435  11.924  21.613  0.00  0.00    +0.000 C 
BRANCH  23  24
ATOM     24  S   UNL     1      -0.772  12.447  19.990  0.00  0.00    +0.000 S 
BRANCH  24  25
ATOM     25  C   UNL     1      -2.171  12.079  18.957  0.00  0.00    +0.000 A 
ATOM     26  N   UNL     1      -1.924  11.585  17.738  0.00  0.00    +0.000 NA
ATOM     27  C   UNL     1      -2.984  11.214  17.000  0.00  0.00    +0.000 A 
ATOM     28  C   UNL     1      -2.706  10.555  15.692  0.00  0.00    +0.000 C 
ATOM     29  C   UNL     1      -4.280  11.358  17.438  0.00  0.00    +0.000 A 
ATOM     30  C   UNL     1      -4.444  11.860  18.710  0.00  0.00    +0.000 A 
ATOM     31  C   UNL     1      -5.818  11.942  19.306  0.00  0.00    +0.000 C 
ATOM     32  N   UNL     1      -3.399  12.224  19.487  0.00  0.00    +0.000 NA
ENDBRANCH  24  25
ENDBRANCH  23  24
ENDBRANCH  21  23
ENDBRANCH  20  21
ENDBRANCH  19  20
ENDBRANCH   8  19
TORSDOF 9
ENDMDL
MODEL 2
REMARK VINA RESULT:      -7.4      3.330     10.484
REMARK  Name = 
REMARK  12 active torsions:
REMARK  status: ('A' for Active; 'I' for Inactive)
REMARK    1  A    between atoms: C_1  and  C_2
REMARK    2  A    between atoms: C_2  and  O_3
REMARK    3  A    between atoms: O_3  and  C_4
REMARK    4  A    between atoms: C_4  and  C_6
REMARK    5  A    between atoms: C_13  and  C_15
REMARK    6  A    between atoms: C_15  and  O_16
REMARK    7  A    between atoms: O_16  and  C_17
REMARK    8  A    between atoms: C_17  and  C_19
REMARK    9  A    between atoms: C_19  and  S_20
REMARK   10  A    between atoms: S_20  and  C_21
REMARK   11  A    between atoms: C_23  and  C_24
REMARK   12  A    between atoms: C_26  and  C_27
REMARK                            x       y       z     vdW  Elec       q    Type
REMARK                         _______ _______ _______ _____ _____    ______ ____
ROOT
ATOM      1  C   UNL     1      -1.569  11.493  22.406  0.00  0.00    +0.000 A 
ATOM      2  C   UNL     1      -1.053  10.631  23.385  0.00  0.00    +0.000 A 
ATOM      3  C   UNL     1      -0.163   9.596  23.041  0.00  0.00    +0.000 A 
ATOM      4  C   UNL     1       0.248   9.433  21.700  0.00  0.00    +0.000 A 
ATOM      5  N   UNL     1       1.108   8.466  21.173  0.00  0.00    +0.000 NA
ATOM      6  C   UNL     1       1.338   8.710  19.900  0.00  0.00    +0.000 A 
ATOM      7  N   UNL     1       2.121   7.925  19.075  0.00  0.00    +0.000 N 
ATOM      8  C   UNL     1       2.640   8.324  17.853  0.00  0.00    +0.000 C 
ATOM      9  O   UNL     1       2.570   9.456  17.378  0.00  0.00    +0.000 OA
ATOM     10  S   UNL     1       0.515  10.055  19.289  0.00  0.00    +0.000 S 
ATOM     11  C   UNL     1      -0.243  10.341  20.769  0.00  0.00    +0.000 A 
ATOM     12  C   UNL     1      -1.170  11.345  21.077  0.00  0.00    +0.000 A 
ATOM     13  H   UNL     1       2.400   7.042  19.479  0.00  0.00    +0.000 HD
ENDROOT
BRANCH   1  14
ATOM     14  C   UNL     1      -2.432  12.659  22.712  0.00  0.00    +0.000 C 
ATOM     15  O   UNL     1      -2.008  13.809  22.817  0.00  0.00    +0.000 OA
BRANCH  14  16
ATOM     16  O   UNL     1      -3.681  12.242  23.012  0.00  0.00    +0.000 OA
BRANCH  16  18
ATOM     17  C   UNL     1      -5.925  12.899  22.584  0.00  0.00    +0.000 C 
ATOM     18  C   UNL     1      -4.627  13.289  23.269  0.00  0.00    +0.000 C 
ENDBRANCH  16  18
ENDBRANCH  14  16
ENDBRANCH   1  14
BRANCH   8  19
ATOM     19  C   UNL     1       3.434   7.251  17.092  0.00  0.00    +0.000 C 
BRANCH  19  20
ATOM     20  O   UNL     1       4.817   7.182  17.454  0.00  0.00    +0.000 OA
BRANCH  20  21
ATOM     21  C   UNL     1       5.577   6.429  16.607  0.00  0.00    +0.000 C 
ATOM     22  O   UNL     1       5.527   6.542  15.389  0.00  0.00    +0.000 OA
BRANCH  21  23
ATOM     23  C   UNL     1       6.401   5.406  17.372  0.00  0.00    +0.000 C 
BRANCH  23  24
ATOM     24  S   UNL     1       6.144   5.551  19.178  0.00  0.00    +0.000 S 
BRANCH  24  25
ATOM     25  C   UNL     1       4.720   4.503  19.368  0.00  0.00    +0.000 A 
ATOM     26  N   UNL     1       3.643   5.029  19.964  0.00  0.00    +0.000 NA
ATOM     27  C   UNL     1       2.537   4.268  20.014  0.00  0.00    +0.000 A 
ATOM     28  C   UNL     1       1.304   4.894  20.571  0.00  0.00    +0.000 C 
ATOM     29  C   UNL     1       2.494   2.987  19.515  0.00  0.00    +0.000 A 
ATOM     30  C   UNL     1       3.641   2.530  18.903  0.00  0.00    +0.000 A 
ATOM     31  C   UNL     1       3.642   1.187  18.234  0.00  0.00    +0.000 C 
ATOM     32  N   UNL     1       4.764   3.276  18.818  0.00  0.00    +0.000 NA
ENDBRANCH  24  25
ENDBRANCH  23  24
ENDBRANCH  21  23
ENDBRANCH  20  21
ENDBRANCH  19  20
ENDBRANCH   8  19
TORSDOF 9
ENDMDL
MODEL 3
REMARK VINA RESULT:      -7.3      1.024      1.852
REMARK  Name = 
REMARK  12 active torsions:
REMARK  status: ('A' for Active; 'I' for Inactive)
REMARK    1  A    between atoms: C_1  and  C_2
REMARK    2  A    between atoms: C_2  and  O_3
REMARK    3  A    between atoms: O_3  and  C_4
REMARK    4  A    between atoms: C_4  and  C_6
REMARK    5  A    between atoms: C_13  and  C_15
REMARK    6  A    between atoms: C_15  and  O_16
REMARK    7  A    between atoms: O_16  and  C_17
REMARK    8  A    between atoms: C_17  and  C_19
REMARK    9  A    between atoms: C_19  and  S_20
REMARK   10  A    between atoms: S_20  and  C_21
REMARK   11  A    between atoms: C_23  and  C_24
REMARK   12  A    between atoms: C_26  and  C_27
REMARK                            x       y       z     vdW  Elec       q    Type
REMARK                         _______ _______ _______ _____ _____    ______ ____
ROOT
ATOM      1  C   UNL     1       6.186   4.578  15.208  0.00  0.00    +0.000 A 
ATOM      2  C   UNL     1       5.778   3.378  15.809  0.00  0.00    +0.000 A 
ATOM      3  C   UNL     1       4.945   3.385  16.944  0.00  0.00    +0.000 A 
ATOM      4  C   UNL     1       4.483   4.609  17.476  0.00  0.00    +0.000 A 
ATOM      5  N   UNL     1       3.669   4.812  18.592  0.00  0.00    +0.000 NA
ATOM      6  C   UNL     1       3.363   6.087  18.704  0.00  0.00    +0.000 A 
ATOM      7  N   UNL     1       2.598   6.629  19.720  0.00  0.00    +0.000 N 
ATOM      8  C   UNL     1       1.996   7.877  19.684  0.00  0.00    +0.000 C 
ATOM      9  O   UNL     1       1.965   8.633  18.715  0.00  0.00    +0.000 OA
ATOM     10  S   UNL     1       4.062   7.077  17.525  0.00  0.00    +0.000 S 
ATOM     11  C   UNL     1       4.867   5.772  16.819  0.00  0.00    +0.000 A 
ATOM     12  C   UNL     1       5.736   5.795  15.721  0.00  0.00    +0.000 A 
ATOM     13  H   UNL     1       2.399   5.993  20.479  0.00  0.00    +0.000 HD
ENDROOT
BRANCH   1  14
ATOM     14  C   UNL     1       6.980   4.641  13.957  0.00  0.00    +0.000 C 
ATOM     15  O   UNL     1       7.869   5.467  13.758  0.00  0.00    +0.000 OA
BRANCH  14  16
ATOM     16  O   UNL     1       6.471   3.785  13.044  0.00  0.00    +0.000 OA
BRANCH  16  18
ATOM     17  C   UNL     1       4.731   2.992  11.633  0.00  0.00    +0.000 C 
ATOM     18  C   UNL     1       5.128   4.069  12.628  0.00  0.00    +0.000 C 
ENDBRANCH  16  18
ENDBRANCH  14  16
ENDBRANCH   1  14
BRANCH   8  19
ATOM     19  C   UNL     1       1.242   8.282  20.961  0.00  0.00    +0.000 C 
BRANCH  19  20
ATOM     20  O   UNL     1       1.219   9.693  21.204  0.00  0.00    +0.000 OA
BRANCH  20  21
ATOM     21  C   UNL     1       0.011  10.166  21.625  0.00  0.00    +0.000 C 
ATOM     22  O   UNL     1      -0.751   9.512  22.325  0.00  0.00    +0.000 OA
BRANCH  21  23
ATOM     23  C   UNL     1      -0.272  11.540  21.043  0.00  0.00    +0.000 C 
BRANCH  23  24
ATOM     24  S   UNL     1       0.152  11.619  19.265  0.00  0.00    +0.000 S 
BRANCH  24  25
ATOM     25  C   UNL     1      -1.465  11.407  18.557  0.00  0.00    +0.000 A 
ATOM     26  N   UNL     1      -2.514  11.815  19.281  0.00  0.00    +0.000 NA
ATOM     27  C   UNL     1      -3.724  11.746  18.701  0.00  0.00    +0.000 A 
ATOM     28  C   UNL     1      -4.876  12.308  19.461  0.00  0.00    +0.000 C 
ATOM     29  C   UNL     1      -3.912  11.247  17.433  0.00  0.00    +0.000 A 
ATOM     30  C   UNL     1      -2.778  10.865  16.751  0.00  0.00    +0.000 A 
ATOM     31  C   UNL     1      -2.883  10.417  15.323  0.00  0.00    +0.000 C 
ATOM     32  N   UNL     1      -1.543  10.940  17.297  0.00  0.00    +0.000 NA
ENDBRANCH  24  25
ENDBRANCH  23  24
ENDBRANCH  21  23
ENDBRANCH  20  21
ENDBRANCH  19  20
ENDBRANCH   8  19
TORSDOF 9
ENDMDL
MODEL 4
REMARK VINA RESULT:      -7.3      3.150     10.858
REMARK  Name = 
REMARK  12 active torsions:
REMARK  status: ('A' for Active; 'I' for Inactive)
REMARK    1  A    between atoms: C_1  and  C_2
REMARK    2  A    between atoms: C_2  and  O_3
REMARK    3  A    between atoms: O_3  and  C_4
REMARK    4  A    between atoms: C_4  and  C_6
REMARK    5  A    between atoms: C_13  and  C_15
REMARK    6  A    between atoms: C_15  and  O_16
REMARK    7  A    between atoms: O_16  and  C_17
REMARK    8  A    between atoms: C_17  and  C_19
REMARK    9  A    between atoms: C_19  and  S_20
REMARK   10  A    between atoms: S_20  and  C_21
REMARK   11  A    between atoms: C_23  and  C_24
REMARK   12  A    between atoms: C_26  and  C_27
REMARK                            x       y       z     vdW  Elec       q    Type
REMARK                         _______ _______ _______ _____ _____    ______ ____
ROOT
ATOM      1  C   UNL     1      -2.529  12.971  21.109  0.00  0.00    +0.000 A 
ATOM      2  C   UNL     1      -1.931  12.746  22.358  0.00  0.00    +0.000 A 
ATOM      3  C   UNL     1      -0.931  11.768  22.515  0.00  0.00    +0.000 A 
ATOM      4  C   UNL     1      -0.494  11.017  21.402  0.00  0.00    +0.000 A 
ATOM      5  N   UNL     1       0.469  10.006  21.367  0.00  0.00    +0.000 NA
ATOM      6  C   UNL     1       0.680   9.623  20.126  0.00  0.00    +0.000 A 
ATOM      7  N   UNL     1       1.550   8.618  19.747  0.00  0.00    +0.000 N 
ATOM      8  C   UNL     1       2.032   8.424  18.462  0.00  0.00    +0.000 C 
ATOM      9  O   UNL     1       1.844   9.171  17.503  0.00  0.00    +0.000 OA
ATOM     10  S   UNL     1      -0.279  10.415  18.980  0.00  0.00    +0.000 S 
ATOM     11  C   UNL     1      -1.075  11.307  20.172  0.00  0.00    +0.000 A 
ATOM     12  C   UNL     1      -2.107  12.237  20.000  0.00  0.00    +0.000 A 
ATOM     13  H   UNL     1       1.920   8.074  20.514  0.00  0.00    +0.000 HD
ENDROOT
BRANCH   1  14
ATOM     14  C   UNL     1      -3.516  14.047  20.854  0.00  0.00    +0.000 C 
ATOM     15  O   UNL     1      -3.267  15.244  20.990  0.00  0.00    +0.000 OA
BRANCH  14  16
ATOM     16  O   UNL     1      -4.734  13.511  20.622  0.00  0.00    +0.000 OA
BRANCH  16  18
ATOM     17  C   UNL     1      -6.652  13.808  19.250  0.00  0.00    +0.000 C 
ATOM     18  C   UNL     1      -5.763  14.456  20.297  0.00  0.00    +0.000 C 
ENDBRANCH  16  18
ENDBRANCH  14  16
ENDBRANCH   1  14
BRANCH   8  19
ATOM     19  C   UNL     1       2.943   7.201  18.278  0.00  0.00    +0.000 C 
BRANCH  19  20
ATOM     20  O   UNL     1       2.238   5.966  18.110  0.00  0.00    +0.000 OA
BRANCH  20  21
ATOM     21  C   UNL     1       2.216   5.182  19.226  0.00  0.00    +0.000 C 
ATOM     22  O   UNL     1       2.164   5.639  20.360  0.00  0.00    +0.000 OA
BRANCH  21  23
ATOM     23  C   UNL     1       2.348   3.712  18.865  0.00  0.00    +0.000 C 
BRANCH  23  24
ATOM     24  S   UNL     1       3.950   3.024  19.421  0.00  0.00    +0.000 S 
BRANCH  24  25
ATOM     25  C   UNL     1       5.057   3.964  18.395  0.00  0.00    +0.000 A 
ATOM     26  N   UNL     1       5.940   4.761  19.009  0.00  0.00    +0.000 NA
ATOM     27  C   UNL     1       6.840   5.390  18.235  0.00  0.00    +0.000 A 
ATOM     28  C   UNL     1       7.896   6.184  18.926  0.00  0.00    +0.000 C 
ATOM     29  C   UNL     1       6.854   5.269  16.865  0.00  0.00    +0.000 A 
ATOM     30  C   UNL     1       5.922   4.416  16.316  0.00  0.00    +0.000 A 
ATOM     31  C   UNL     1       5.943   4.140  14.842  0.00  0.00    +0.000 C 
ATOM     32  N   UNL     1       5.015   3.753  17.067  0.00  0.00    +0.000 NA
ENDBRANCH  24  25
ENDBRANCH  23  24
ENDBRANCH  21  23
ENDBRANCH  20  21
ENDBRANCH  19  20
ENDBRANCH   8  19
TORSDOF 9
ENDMDL
MODEL 5
REMARK VINA RESULT:      -7.3      3.288     10.756
REMARK  Name = 
REMARK  12 active torsions:
REMARK  status: ('A' for Active; 'I' for Inactive)
REMARK    1  A    between atoms: C_1  and  C_2
REMARK    2  A    between atoms: C_2  and  O_3
REMARK    3  A    between atoms: O_3  and  C_4
REMARK    4  A    between atoms: C_4  and  C_6
REMARK    5  A    between atoms: C_13  and  C_15
REMARK    6  A    between atoms: C_15  and  O_16
REMARK    7  A    between atoms: O_16  and  C_17
REMARK    8  A    between atoms: C_17  and  C_19
REMARK    9  A    between atoms: C_19  and  S_20
REMARK   10  A    between atoms: S_20  and  C_21
REMARK   11  A    between atoms: C_23  and  C_24
REMARK   12  A    between atoms: C_26  and  C_27
REMARK                            x       y       z     vdW  Elec       q    Type
REMARK                         _______ _______ _______ _____ _____    ______ ____
ROOT
ATOM      1  C   UNL     1      -2.046  12.355  21.933  0.00  0.00    +0.000 A 
ATOM      2  C   UNL     1      -1.555  11.763  23.106  0.00  0.00    +0.000 A 
ATOM      3  C   UNL     1      -0.645  10.689  23.047  0.00  0.00    +0.000 A 
ATOM      4  C   UNL     1      -0.191  10.214  21.798  0.00  0.00    +0.000 A 
ATOM      5  N   UNL     1       0.692   9.162  21.544  0.00  0.00    +0.000 NA
ATOM      6  C   UNL     1       0.959   9.095  20.257  0.00  0.00    +0.000 A 
ATOM      7  N   UNL     1       1.774   8.146  19.669  0.00  0.00    +0.000 N 
ATOM      8  C   UNL     1       2.327   8.246  18.402  0.00  0.00    +0.000 C 
ATOM      9  O   UNL     1       2.264   9.229  17.666  0.00  0.00    +0.000 OA
ATOM     10  S   UNL     1       0.145  10.240  19.316  0.00  0.00    +0.000 S 
ATOM     11  C   UNL     1      -0.661  10.863  20.662  0.00  0.00    +0.000 A 
ATOM     12  C   UNL     1      -1.605  11.897  20.692  0.00  0.00    +0.000 A 
ATOM     13  H   UNL     1       2.047   7.391  20.283  0.00  0.00    +0.000 HD
ENDROOT
BRANCH   1  14
ATOM     14  C   UNL     1      -2.928  13.547  21.924  0.00  0.00    +0.000 C 
ATOM     15  O   UNL     1      -4.096  13.531  22.308  0.00  0.00    +0.000 OA
BRANCH  14  16
ATOM     16  O   UNL     1      -2.314  14.570  21.290  0.00  0.00    +0.000 OA
BRANCH  16  18
ATOM     17  C   UNL     1      -0.525  15.639  22.434  0.00  0.00    +0.000 C 
ATOM     18  C   UNL     1      -2.009  15.702  22.115  0.00  0.00    +0.000 C 
ENDBRANCH  16  18
ENDBRANCH  14  16
ENDBRANCH   1  14
BRANCH   8  19
ATOM     19  C   UNL     1       3.154   7.034  17.946  0.00  0.00    +0.000 C 
BRANCH  19  20
ATOM     20  O   UNL     1       2.423   5.803  17.927  0.00  0.00    +0.000 OA
BRANCH  20  21
ATOM     21  C   UNL     1       2.563   5.055  19.060  0.00  0.00    +0.000 C 
ATOM     22  O   UNL     1       2.914   5.531  20.132  0.00  0.00    +0.000 OA
BRANCH  21  23
ATOM     23  C   UNL     1       2.311   3.583  18.780  0.00  0.00    +0.000 C 
BRANCH  23  24
ATOM     24  S   UNL     1       3.835   2.590  18.977  0.00  0.00    +0.000 S 
BRANCH  24  25
ATOM     25  C   UNL     1       5.001   3.657  18.162  0.00  0.00    +0.000 A 
ATOM     26  N   UNL     1       5.871   4.323  18.932  0.00  0.00    +0.000 NA
ATOM     27  C   UNL     1       6.813   5.048  18.306  0.00  0.00    +0.000 A 
ATOM     28  C   UNL     1       7.852   5.694  19.157  0.00  0.00    +0.000 C 
ATOM     29  C   UNL     1       6.883   5.150  16.936  0.00  0.00    +0.000 A 
ATOM     30  C   UNL     1       5.960   4.420  16.220  0.00  0.00    +0.000 A 
ATOM     31  C   UNL     1       6.039   4.386  14.722  0.00  0.00    +0.000 C 
ATOM     32  N   UNL     1       5.011   3.665  16.817  0.00  0.00    +0.000 NA
ENDBRANCH  24  25
ENDBRANCH  23  24
ENDBRANCH  21  23
ENDBRANCH  20  21
ENDBRANCH  19  20
ENDBRANCH   8  19
TORSDOF 9
ENDMDL
MODEL 6
REMARK VINA RESULT:      -7.2      7.027     10.343
REMARK  Name = 
REMARK  12 active torsions:
REMARK  status: ('A' for Active; 'I' for Inactive)
REMARK    1  A    between atoms: C_1  and  C_2
REMARK    2  A    between atoms: C_2  and  O_3
REMARK    3  A    between atoms: O_3  and  C_4
REMARK    4  A    between atoms: C_4  and  C_6
REMARK    5  A    between atoms: C_13  and  C_15
REMARK    6  A    between atoms: C_15  and  O_16
REMARK    7  A    between atoms: O_16  and  C_17
REMARK    8  A    between atoms: C_17  and  C_19
REMARK    9  A    between atoms: C_19  and  S_20
REMARK   10  A    between atoms: S_20  and  C_21
REMARK   11  A    between atoms: C_23  and  C_24
REMARK   12  A    between atoms: C_26  and  C_27
REMARK                            x       y       z     vdW  Elec       q    Type
REMARK                         _______ _______ _______ _____ _____    ______ ____
ROOT
ATOM      1  C   UNL     1      10.589  14.363  18.507  0.00  0.00    +0.000 A 
ATOM      2  C   UNL     1      11.404  13.913  19.556  0.00  0.00    +0.000 A 
ATOM      3  C   UNL     1      11.279  12.604  20.059  0.00  0.00    +0.000 A 
ATOM      4  C   UNL     1      10.345  11.713  19.488  0.00  0.00    +0.000 A 
ATOM      5  N   UNL     1      10.073  10.394  19.857  0.00  0.00    +0.000 NA
ATOM      6  C   UNL     1       9.218   9.854  19.015  0.00  0.00    +0.000 A 
ATOM      7  N   UNL     1       8.716   8.570  19.115  0.00  0.00    +0.000 N 
ATOM      8  C   UNL     1       8.092   7.877  18.089  0.00  0.00    +0.000 C 
ATOM      9  O   UNL     1       7.989   8.256  16.923  0.00  0.00    +0.000 OA
ATOM     10  S   UNL     1       8.685  10.899  17.797  0.00  0.00    +0.000 S 
ATOM     11  C   UNL     1       9.594  12.181  18.415  0.00  0.00    +0.000 A 
ATOM     12  C   UNL     1       9.663  13.493  17.932  0.00  0.00    +0.000 A 
ATOM     13  H   UNL     1       8.937   8.100  19.981  0.00  0.00    +0.000 HD
ENDROOT
BRANCH   1  14
ATOM     14  C   UNL     1      10.734  15.693  17.868  0.00  0.00    +0.000 C 
ATOM     15  O   UNL     1      10.871  15.853  16.656  0.00  0.00    +0.000 OA
BRANCH  14  16
ATOM     16  O   UNL     1      10.858  16.648  18.814  0.00  0.00    +0.000 OA
BRANCH  16  18
ATOM     17  C   UNL     1       8.934  17.175  20.106  0.00  0.00    +0.000 C 
ATOM     18  C   UNL     1       9.762  17.570  18.895  0.00  0.00    +0.000 C 
ENDBRANCH  16  18
ENDBRANCH  14  16
ENDBRANCH   1  14
BRANCH   8  19
ATOM     19  C   UNL     1       7.567   6.482  18.460  0.00  0.00    +0.000 C 
BRANCH  19  20
ATOM     20  O   UNL     1       7.860   5.470  17.491  0.00  0.00    +0.000 OA
BRANCH  20  21
ATOM     21  C   UNL     1       6.755   4.909  16.920  0.00  0.00    +0.000 C 
ATOM     22  O   UNL     1       6.819   4.071  16.029  0.00  0.00    +0.000 OA
BRANCH  21  23
ATOM     23  C   UNL     1       5.480   5.522  17.474  0.00  0.00    +0.000 C 
BRANCH  23  24
ATOM     24  S   UNL     1       4.047   4.406  17.255  0.00  0.00    +0.000 S 
BRANCH  24  25
ATOM     25  C   UNL     1       3.178   4.726  18.774  0.00  0.00    +0.000 A 
ATOM     26  N   UNL     1       2.860   5.998  19.046  0.00  0.00    +0.000 NA
ATOM     27  C   UNL     1       2.116   6.222  20.142  0.00  0.00    +0.000 A 
ATOM     28  C   UNL     1       1.664   7.622  20.382  0.00  0.00    +0.000 C 
ATOM     29  C   UNL     1       1.716   5.214  20.987  0.00  0.00    +0.000 A 
ATOM     30  C   UNL     1       2.071   3.933  20.624  0.00  0.00    +0.000 A 
ATOM     31  C   UNL     1       1.578   2.767  21.428  0.00  0.00    +0.000 C 
ATOM     32  N   UNL     1       2.802   3.670  19.517  0.00  0.00    +0.000 NA
ENDBRANCH  24  25
ENDBRANCH  23  24
ENDBRANCH  21  23
ENDBRANCH  20  21
ENDBRANCH  19  20
ENDBRANCH   8  19
TORSDOF 9
ENDMDL
MODEL 7
REMARK VINA RESULT:      -7.2      3.292     10.821
REMARK  Name = 
REMARK  12 active torsions:
REMARK  status: ('A' for Active; 'I' for Inactive)
REMARK    1  A    between atoms: C_1  and  C_2
REMARK    2  A    between atoms: C_2  and  O_3
REMARK    3  A    between atoms: O_3  and  C_4
REMARK    4  A    between atoms: C_4  and  C_6
REMARK    5  A    between atoms: C_13  and  C_15
REMARK    6  A    between atoms: C_15  and  O_16
REMARK    7  A    between atoms: O_16  and  C_17
REMARK    8  A    between atoms: C_17  and  C_19
REMARK    9  A    between atoms: C_19  and  S_20
REMARK   10  A    between atoms: S_20  and  C_21
REMARK   11  A    between atoms: C_23  and  C_24
REMARK   12  A    between atoms: C_26  and  C_27
REMARK                            x       y       z     vdW  Elec       q    Type
REMARK                         _______ _______ _______ _____ _____    ______ ____
ROOT
ATOM      1  C   UNL     1      -2.017  12.661  21.653  0.00  0.00    +0.000 A 
ATOM      2  C   UNL     1      -1.724  12.152  22.927  0.00  0.00    +0.000 A 
ATOM      3  C   UNL     1      -0.937  10.994  23.080  0.00  0.00    +0.000 A 
ATOM      4  C   UNL     1      -0.405  10.346  21.945  0.00  0.00    +0.000 A 
ATOM      5  N   UNL     1       0.381   9.192  21.900  0.00  0.00    +0.000 NA
ATOM      6  C   UNL     1       0.778   8.961  20.666  0.00  0.00    +0.000 A 
ATOM      7  N   UNL     1       1.543   7.879  20.273  0.00  0.00    +0.000 N 
ATOM      8  C   UNL     1       2.238   7.789  19.077  0.00  0.00    +0.000 C 
ATOM      9  O   UNL     1       2.364   8.689  18.248  0.00  0.00    +0.000 OA
ATOM     10  S   UNL     1       0.201  10.073  19.530  0.00  0.00    +0.000 S 
ATOM     11  C   UNL     1      -0.674  10.912  20.704  0.00  0.00    +0.000 A 
ATOM     12  C   UNL     1      -1.496  12.031  20.522  0.00  0.00    +0.000 A 
ATOM     13  H   UNL     1       1.663   7.171  20.984  0.00  0.00    +0.000 HD
ENDROOT
BRANCH   1  14
ATOM     14  C   UNL     1      -2.757  13.925  21.425  0.00  0.00    +0.000 C 
ATOM     15  O   UNL     1      -2.289  14.885  20.813  0.00  0.00    +0.000 OA
BRANCH  14  16
ATOM     16  O   UNL     1      -3.915  13.914  22.119  0.00  0.00    +0.000 OA
BRANCH  16  18
ATOM     17  C   UNL     1      -5.479  13.647  20.349  0.00  0.00    +0.000 C 
ATOM     18  C   UNL     1      -4.918  13.021  21.615  0.00  0.00    +0.000 C 
ENDBRANCH  16  18
ENDBRANCH  14  16
ENDBRANCH   1  14
BRANCH   8  19
ATOM     19  C   UNL     1       2.971   6.459  18.841  0.00  0.00    +0.000 C 
BRANCH  19  20
ATOM     20  O   UNL     1       3.048   5.620  19.998  0.00  0.00    +0.000 OA
BRANCH  20  21
ATOM     21  C   UNL     1       2.472   4.394  19.836  0.00  0.00    +0.000 C 
ATOM     22  O   UNL     1       1.262   4.234  19.744  0.00  0.00    +0.000 OA
BRANCH  21  23
ATOM     23  C   UNL     1       3.515   3.289  19.872  0.00  0.00    +0.000 C 
BRANCH  23  24
ATOM     24  S   UNL     1       3.836   2.612  18.202  0.00  0.00    +0.000 S 
BRANCH  24  25
ATOM     25  C   UNL     1       5.097   3.740  17.654  0.00  0.00    +0.000 A 
ATOM     26  N   UNL     1       5.851   4.324  18.592  0.00  0.00    +0.000 NA
ATOM     27  C   UNL     1       6.867   5.096  18.169  0.00  0.00    +0.000 A 
ATOM     28  C   UNL     1       7.779   5.652  19.209  0.00  0.00    +0.000 C 
ATOM     29  C   UNL     1       7.121   5.325  16.837  0.00  0.00    +0.000 A 
ATOM     30  C   UNL     1       6.306   4.672  15.938  0.00  0.00    +0.000 A 
ATOM     31  C   UNL     1       6.586   4.776  14.468  0.00  0.00    +0.000 C 
ATOM     32  N   UNL     1       5.288   3.873  16.329  0.00  0.00    +0.000 NA
ENDBRANCH  24  25
ENDBRANCH  23  24
ENDBRANCH  21  23
ENDBRANCH  20  21
ENDBRANCH  19  20
ENDBRANCH   8  19
TORSDOF 9
ENDMDL
MODEL 8
REMARK VINA RESULT:      -7.2      2.448      3.453
REMARK  Name = 
REMARK  12 active torsions:
REMARK  status: ('A' for Active; 'I' for Inactive)
REMARK    1  A    between atoms: C_1  and  C_2
REMARK    2  A    between atoms: C_2  and  O_3
REMARK    3  A    between atoms: O_3  and  C_4
REMARK    4  A    between atoms: C_4  and  C_6
REMARK    5  A    between atoms: C_13  and  C_15
REMARK    6  A    between atoms: C_15  and  O_16
REMARK    7  A    between atoms: O_16  and  C_17
REMARK    8  A    between atoms: C_17  and  C_19
REMARK    9  A    between atoms: C_19  and  S_20
REMARK   10  A    between atoms: S_20  and  C_21
REMARK   11  A    between atoms: C_23  and  C_24
REMARK   12  A    between atoms: C_26  and  C_27
REMARK                            x       y       z     vdW  Elec       q    Type
REMARK                         _______ _______ _______ _____ _____    ______ ____
ROOT
ATOM      1  C   UNL     1       5.510   5.195  16.146  0.00  0.00    +0.000 A 
ATOM      2  C   UNL     1       5.162   4.113  16.969  0.00  0.00    +0.000 A 
ATOM      3  C   UNL     1       4.299   4.289  18.068  0.00  0.00    +0.000 A 
ATOM      4  C   UNL     1       3.747   5.560  18.338  0.00  0.00    +0.000 A 
ATOM      5  N   UNL     1       2.891   5.925  19.379  0.00  0.00    +0.000 NA
ATOM      6  C   UNL     1       2.502   7.174  19.230  0.00  0.00    +0.000 A 
ATOM      7  N   UNL     1       1.677   7.854  20.106  0.00  0.00    +0.000 N 
ATOM      8  C   UNL     1       0.999   9.027  19.813  0.00  0.00    +0.000 C 
ATOM      9  O   UNL     1       0.947   9.572  18.712  0.00  0.00    +0.000 OA
ATOM     10  S   UNL     1       3.170   7.955  17.887  0.00  0.00    +0.000 S 
ATOM     11  C   UNL     1       4.075   6.594  17.468  0.00  0.00    +0.000 A 
ATOM     12  C   UNL     1       4.971   6.457  16.400  0.00  0.00    +0.000 A 
ATOM     13  H   UNL     1       1.498   7.369  20.974  0.00  0.00    +0.000 HD
ENDROOT
BRANCH   1  14
ATOM     14  C   UNL     1       6.333   5.062  14.921  0.00  0.00    +0.000 C 
ATOM     15  O   UNL     1       7.486   5.482  14.827  0.00  0.00    +0.000 OA
BRANCH  14  16
ATOM     16  O   UNL     1       5.580   4.576  13.910  0.00  0.00    +0.000 OA
BRANCH  16  18
ATOM     17  C   UNL     1       5.297   3.277  11.939  0.00  0.00    +0.000 C 
ATOM     18  C   UNL     1       6.199   3.542  13.132  0.00  0.00    +0.000 C 
ENDBRANCH  16  18
ENDBRANCH  14  16
ENDBRANCH   1  14
BRANCH   8  19
ATOM     19  C   UNL     1       0.187   9.625  20.973  0.00  0.00    +0.000 C 
BRANCH  19  20
ATOM     20  O   UNL     1       0.798  10.765  21.587  0.00  0.00    +0.000 OA
BRANCH  20  21
ATOM     21  C   UNL     1       0.370  11.961  21.091  0.00  0.00    +0.000 C 
ATOM     22  O   UNL     1       1.122  12.766  20.556  0.00  0.00    +0.000 OA
BRANCH  21  23
ATOM     23  C   UNL     1      -1.108  12.174  21.369  0.00  0.00    +0.000 C 
BRANCH  23  24
ATOM     24  S   UNL     1      -1.539  11.732  23.091  0.00  0.00    +0.000 S 
BRANCH  24  25
ATOM     25  C   UNL     1      -2.991  12.736  23.308  0.00  0.00    +0.000 A 
ATOM     26  N   UNL     1      -2.864  13.856  24.030  0.00  0.00    +0.000 NA
ATOM     27  C   UNL     1      -3.937  14.661  24.106  0.00  0.00    +0.000 A 
ATOM     28  C   UNL     1      -3.761  15.963  24.810  0.00  0.00    +0.000 C 
ATOM     29  C   UNL     1      -5.138  14.356  23.510  0.00  0.00    +0.000 A 
ATOM     30  C   UNL     1      -5.177  13.193  22.773  0.00  0.00    +0.000 A 
ATOM     31  C   UNL     1      -6.413  12.845  21.998  0.00  0.00    +0.000 C 
ATOM     32  N   UNL     1      -4.111  12.370  22.659  0.00  0.00    +0.000 NA
ENDBRANCH  24  25
ENDBRANCH  23  24
ENDBRANCH  21  23
ENDBRANCH  20  21
ENDBRANCH  19  20
ENDBRANCH   8  19
TORSDOF 9
ENDMDL
MODEL 9
REMARK VINA RESULT:      -7.2      1.323      2.413
REMARK  Name = 
REMARK  12 active torsions:
REMARK  status: ('A' for Active; 'I' for Inactive)
REMARK    1  A    between atoms: C_1  and  C_2
REMARK    2  A    between atoms: C_2  and  O_3
REMARK    3  A    between atoms: O_3  and  C_4
REMARK    4  A    between atoms: C_4  and  C_6
REMARK    5  A    between atoms: C_13  and  C_15
REMARK    6  A    between atoms: C_15  and  O_16
REMARK    7  A    between atoms: O_16  and  C_17
REMARK    8  A    between atoms: C_17  and  C_19
REMARK    9  A    between atoms: C_19  and  S_20
REMARK   10  A    between atoms: S_20  and  C_21
REMARK   11  A    between atoms: C_23  and  C_24
REMARK   12  A    between atoms: C_26  and  C_27
REMARK                            x       y       z     vdW  Elec       q    Type
REMARK                         _______ _______ _______ _____ _____    ______ ____
ROOT
ATOM      1  C   UNL     1       4.274   5.668  17.188  0.00  0.00    +0.000 A 
ATOM      2  C   UNL     1       3.955   4.532  17.946  0.00  0.00    +0.000 A 
ATOM      3  C   UNL     1       3.166   4.636  19.108  0.00  0.00    +0.000 A 
ATOM      4  C   UNL     1       2.657   5.890  19.508  0.00  0.00    +0.000 A 
ATOM      5  N   UNL     1       1.874   6.187  20.625  0.00  0.00    +0.000 NA
ATOM      6  C   UNL     1       1.503   7.449  20.597  0.00  0.00    +0.000 A 
ATOM      7  N   UNL     1       0.747   8.072  21.572  0.00  0.00    +0.000 N 
ATOM      8  C   UNL     1       0.076   9.274  21.413  0.00  0.00    +0.000 C 
ATOM      9  O   UNL     1      -0.033   9.904  20.362  0.00  0.00    +0.000 OA
ATOM     10  S   UNL     1       2.101   8.322  19.278  0.00  0.00    +0.000 S 
ATOM     11  C   UNL     1       2.951   6.983  18.700  0.00  0.00    +0.000 A 
ATOM     12  C   UNL     1       3.777   6.915  17.571  0.00  0.00    +0.000 A 
ATOM     13  H   UNL     1       0.612   7.524  22.411  0.00  0.00    +0.000 HD
ENDROOT
BRANCH   1  14
ATOM     14  C   UNL     1       5.017   5.618  15.906  0.00  0.00    +0.000 C 
ATOM     15  O   UNL     1       5.330   6.618  15.262  0.00  0.00    +0.000 OA
BRANCH  14  16
ATOM     16  O   UNL     1       5.138   4.337  15.494  0.00  0.00    +0.000 OA
BRANCH  16  18
ATOM     17  C   UNL     1       6.134   3.786  13.407  0.00  0.00    +0.000 C 
ATOM     18  C   UNL     1       6.395   4.010  14.887  0.00  0.00    +0.000 C 
ENDBRANCH  16  18
ENDBRANCH  14  16
ENDBRANCH   1  14
BRANCH   8  19
ATOM     19  C   UNL     1      -0.652   9.793  22.663  0.00  0.00    +0.000 C 
BRANCH  19  20
ATOM     20  O   UNL     1      -0.423  11.180  22.939  0.00  0.00    +0.000 OA
BRANCH  20  21
ATOM     21  C   UNL     1      -1.563  11.914  23.084  0.00  0.00    +0.000 C 
ATOM     22  O   UNL     1      -2.623  11.430  23.462  0.00  0.00    +0.000 OA
BRANCH  21  23
ATOM     23  C   UNL     1      -1.351  13.351  22.640  0.00  0.00    +0.000 C 
BRANCH  23  24
ATOM     24  S   UNL     1      -0.955  13.453  20.856  0.00  0.00    +0.000 S 
BRANCH  24  25
ATOM     25  C   UNL     1      -2.480  12.844  20.172  0.00  0.00    +0.000 A 
ATOM     26  N   UNL     1      -3.619  13.350  20.660  0.00  0.00    +0.000 NA
ATOM     27  C   UNL     1      -4.763  12.963  20.070  0.00  0.00    +0.000 A 
ATOM     28  C   UNL     1      -6.022  13.613  20.534  0.00  0.00    +0.000 C 
ATOM     29  C   UNL     1      -4.796  12.059  19.033  0.00  0.00    +0.000 A 
ATOM     30  C   UNL     1      -3.577  11.602  18.582  0.00  0.00    +0.000 A 
ATOM     31  C   UNL     1      -3.517  10.704  17.382  0.00  0.00    +0.000 C 
ATOM     32  N   UNL     1      -2.406  11.986  19.139  0.00  0.00    +0.000 NA
ENDBRANCH  24  25
ENDBRANCH  23  24
ENDBRANCH  21  23
ENDBRANCH  20  21
ENDBRANCH  19  20
ENDBRANCH   8  19
TORSDOF 9
ENDMDL
