MODEL 1
REMARK VINA RESULT:      -8.2      0.000      0.000
REMARK  Name = 
REMARK  8 active torsions:
REMARK  status: ('A' for Active; 'I' for Inactive)
REMARK    1  A    between atoms: C_1  and  O_2
REMARK    2  A    between atoms: O_2  and  C_3
REMARK    3  A    between atoms: C_5  and  N_6
REMARK    4  A    between atoms: C_7  and  C_8
REMARK    5  A    between atoms: C_22  and  O_23
REMARK    6  A    between atoms: O_23  and  C_24
REMARK    7  A    between atoms: C_25  and  O_26
REMARK    8  A    between atoms: O_26  and  C_27
REMARK                            x       y       z     vdW  Elec       q    Type
REMARK                         _______ _______ _______ _____ _____    ______ ____
ROOT
ATOM      1  N   UNL     1       3.314   3.644  18.642  0.00  0.00    +0.000 N 
ATOM      2  C   UNL     1       2.250   4.371  19.097  0.00  0.00    +0.000 A 
ATOM      3  C   UNL     1       1.252   3.511  19.242  0.00  0.00    +0.000 A 
ATOM      4  O   UNL     1       1.576   2.200  18.888  0.00  0.00    +0.000 OA
ATOM      5  C   UNL     1       2.902   2.331  18.470  0.00  0.00    +0.000 A 
ATOM      6  O   UNL     1       3.555   1.394  18.028  0.00  0.00    +0.000 OA
ENDROOT
BRANCH   2   7
ATOM      7  C   UNL     1       2.248   5.825  19.199  0.00  0.00    +0.000 A 
ATOM      8  C   UNL     1       2.353   6.632  18.044  0.00  0.00    +0.000 A 
ATOM      9  C   UNL     1       2.092   8.006  18.105  0.00  0.00    +0.000 A 
ATOM     10  C   UNL     1       1.707   8.525  19.320  0.00  0.00    +0.000 A 
ATOM     11  C   UNL     1       1.659   7.752  20.459  0.00  0.00    +0.000 A 
ATOM     12  C   UNL     1       1.955   6.409  20.441  0.00  0.00    +0.000 A 
ATOM     13  O   UNL     1       1.188   8.448  21.532  0.00  0.00    +0.000 OA
ATOM     14  C   UNL     1       0.675   9.613  20.853  0.00  0.00    +0.000 C 
ATOM     15  O   UNL     1       1.259   9.791  19.546  0.00  0.00    +0.000 OA
ENDBRANCH   2   7
BRANCH   1  18
ATOM     16  C   UNL     1       5.874   5.313  16.585  0.00  0.00    +0.000 A 
ATOM     17  C   UNL     1       4.831   4.435  16.929  0.00  0.00    +0.000 A 
ATOM     18  C   UNL     1       4.571   4.157  18.265  0.00  0.00    +0.000 A 
ATOM     19  C   UNL     1       5.427   4.636  19.239  0.00  0.00    +0.000 A 
ATOM     20  C   UNL     1       6.549   5.412  18.913  0.00  0.00    +0.000 A 
ATOM     21  C   UNL     1       6.784   5.772  17.567  0.00  0.00    +0.000 A 
BRANCH  16  23
ATOM     22  C   UNL     1       6.786   4.882  14.448  0.00  0.00    +0.000 C 
ATOM     23  O   UNL     1       5.992   5.732  15.283  0.00  0.00    +0.000 OA
ENDBRANCH  16  23
BRANCH  20  24
ATOM     24  O   UNL     1       7.253   5.763  20.039  0.00  0.00    +0.000 OA
ATOM     25  C   UNL     1       8.548   5.228  20.259  0.00  0.00    +0.000 C 
ENDBRANCH  20  24
BRANCH  21  26
ATOM     26  O   UNL     1       7.882   6.557  17.346  0.00  0.00    +0.000 OA
ATOM     27  C   UNL     1       7.836   7.962  17.522  0.00  0.00    +0.000 C 
ENDBRANCH  21  26
ENDBRANCH   1  18
TORSDOF 5
ENDMDL
MODEL 2
REMARK VINA RESULT:      -6.8      1.093      2.614
REMARK  Name = 
REMARK  8 active torsions:
REMARK  status: ('A' for Active; 'I' for Inactive)
REMARK    1  A    between atoms: C_1  and  O_2
REMARK    2  A    between atoms: O_2  and  C_3
REMARK    3  A    between atoms: C_5  and  N_6
REMARK    4  A    between atoms: C_7  and  C_8
REMARK    5  A    between atoms: C_22  and  O_23
REMARK    6  A    between atoms: O_23  and  C_24
REMARK    7  A    between atoms: C_25  and  O_26
REMARK    8  A    between atoms: O_26  and  C_27
REMARK                            x       y       z     vdW  Elec       q    Type
REMARK                         _______ _______ _______ _____ _____    ______ ____
ROOT
ATOM      1  N   UNL     1       3.230   3.687  18.690  0.00  0.00    +0.000 N 
ATOM      2  C   UNL     1       2.305   4.436  19.364  0.00  0.00    +0.000 A 
ATOM      3  C   UNL     1       1.418   3.576  19.847  0.00  0.00    +0.000 A 
ATOM      4  O   UNL     1       1.681   2.245  19.520  0.00  0.00    +0.000 OA
ATOM      5  C   UNL     1       2.835   2.358  18.741  0.00  0.00    +0.000 A 
ATOM      6  O   UNL     1       3.376   1.397  18.211  0.00  0.00    +0.000 OA
ENDROOT
BRANCH   2   7
ATOM      7  C   UNL     1       2.277   5.892  19.350  0.00  0.00    +0.000 A 
ATOM      8  C   UNL     1       2.379   6.606  18.135  0.00  0.00    +0.000 A 
ATOM      9  C   UNL     1       2.094   7.976  18.083  0.00  0.00    +0.000 A 
ATOM     10  C   UNL     1       1.690   8.583  19.250  0.00  0.00    +0.000 A 
ATOM     11  C   UNL     1       1.645   7.903  20.447  0.00  0.00    +0.000 A 
ATOM     12  C   UNL     1       1.964   6.569  20.539  0.00  0.00    +0.000 A 
ATOM     13  O   UNL     1       1.153   8.674  21.457  0.00  0.00    +0.000 OA
ATOM     14  C   UNL     1       0.625   9.772  20.683  0.00  0.00    +0.000 C 
ATOM     15  O   UNL     1       1.218   9.856  19.370  0.00  0.00    +0.000 OA
ENDBRANCH   2   7
BRANCH   1  18
ATOM     16  C   UNL     1       6.708   4.520  17.809  0.00  0.00    +0.000 A 
ATOM     17  C   UNL     1       5.529   4.437  18.569  0.00  0.00    +0.000 A 
ATOM     18  C   UNL     1       4.315   4.184  17.941  0.00  0.00    +0.000 A 
ATOM     19  C   UNL     1       4.257   4.154  16.561  0.00  0.00    +0.000 A 
ATOM     20  C   UNL     1       5.399   4.359  15.773  0.00  0.00    +0.000 A 
ATOM     21  C   UNL     1       6.655   4.538  16.395  0.00  0.00    +0.000 A 
BRANCH  16  23
ATOM     22  C   UNL     1       8.116   5.734  19.269  0.00  0.00    +0.000 C 
ATOM     23  O   UNL     1       7.918   4.571  18.457  0.00  0.00    +0.000 OA
ENDBRANCH  16  23
BRANCH  20  24
ATOM     24  O   UNL     1       5.097   4.294  14.435  0.00  0.00    +0.000 OA
ATOM     25  C   UNL     1       5.840   3.438  13.582  0.00  0.00    +0.000 C 
ENDBRANCH  20  24
BRANCH  21  26
ATOM     26  O   UNL     1       7.718   4.697  15.550  0.00  0.00    +0.000 OA
ATOM     27  C   UNL     1       7.858   5.855  14.744  0.00  0.00    +0.000 C 
ENDBRANCH  21  26
ENDBRANCH   1  18
TORSDOF 5
ENDMDL
MODEL 3
REMARK VINA RESULT:      -6.6      1.393      2.682
REMARK  Name = 
REMARK  8 active torsions:
REMARK  status: ('A' for Active; 'I' for Inactive)
REMARK    1  A    between atoms: C_1  and  O_2
REMARK    2  A    between atoms: O_2  and  C_3
REMARK    3  A    between atoms: C_5  and  N_6
REMARK    4  A    between atoms: C_7  and  C_8
REMARK    5  A    between atoms: C_22  and  O_23
REMARK    6  A    between atoms: O_23  and  C_24
REMARK    7  A    between atoms: C_25  and  O_26
REMARK    8  A    between atoms: O_26  and  C_27
REMARK                            x       y       z     vdW  Elec       q    Type
REMARK                         _______ _______ _______ _____ _____    ______ ____
ROOT
ATOM      1  N   UNL     1       3.397   4.370  19.590  0.00  0.00    +0.000 N 
ATOM      2  C   UNL     1       2.444   5.243  20.035  0.00  0.00    +0.000 A 
ATOM      3  C   UNL     1       1.622   4.534  20.797  0.00  0.00    +0.000 A 
ATOM      4  O   UNL     1       1.959   3.182  20.890  0.00  0.00    +0.000 OA
ATOM      5  C   UNL     1       3.086   3.106  20.068  0.00  0.00    +0.000 A 
ATOM      6  O   UNL     1       3.673   2.056  19.841  0.00  0.00    +0.000 OA
ENDROOT
BRANCH   2   7
ATOM      7  C   UNL     1       2.327   6.619  19.569  0.00  0.00    +0.000 A 
ATOM      8  C   UNL     1       2.487   6.936  18.202  0.00  0.00    +0.000 A 
ATOM      9  C   UNL     1       2.122   8.196  17.712  0.00  0.00    +0.000 A 
ATOM     10  C   UNL     1       1.583   9.092  18.606  0.00  0.00    +0.000 A 
ATOM     11  C   UNL     1       1.478   8.806  19.950  0.00  0.00    +0.000 A 
ATOM     12  C   UNL     1       1.870   7.595  20.469  0.00  0.00    +0.000 A 
ATOM     13  O   UNL     1       0.854   9.802  20.639  0.00  0.00    +0.000 OA
ATOM     14  C   UNL     1       0.327  10.563  19.532  0.00  0.00    +0.000 C 
ATOM     15  O   UNL     1       1.024  10.296  18.298  0.00  0.00    +0.000 OA
ENDBRANCH   2   7
BRANCH   1  18
ATOM     16  C   UNL     1       6.760   5.252  18.372  0.00  0.00    +0.000 A 
ATOM     17  C   UNL     1       5.573   5.322  19.123  0.00  0.00    +0.000 A 
ATOM     18  C   UNL     1       4.433   4.663  18.681  0.00  0.00    +0.000 A 
ATOM     19  C   UNL     1       4.435   4.057  17.439  0.00  0.00    +0.000 A 
ATOM     20  C   UNL     1       5.570   4.079  16.613  0.00  0.00    +0.000 A 
ATOM     21  C   UNL     1       6.763   4.676  17.080  0.00  0.00    +0.000 A 
BRANCH  16  23
ATOM     22  C   UNL     1       8.192   7.114  18.628  0.00  0.00    +0.000 C 
ATOM     23  O   UNL     1       7.924   5.737  18.916  0.00  0.00    +0.000 OA
ENDBRANCH  16  23
BRANCH  20  24
ATOM     24  O   UNL     1       5.334   3.426  15.429  0.00  0.00    +0.000 OA
ATOM     25  C   UNL     1       5.090   4.170  14.246  0.00  0.00    +0.000 C 
ENDBRANCH  20  24
BRANCH  21  26
ATOM     26  O   UNL     1       7.827   4.622  16.222  0.00  0.00    +0.000 OA
ATOM     27  C   UNL     1       7.869   5.405  15.041  0.00  0.00    +0.000 C 
ENDBRANCH  21  26
ENDBRANCH   1  18
TORSDOF 5
ENDMDL
MODEL 4
REMARK VINA RESULT:      -6.6      0.978      1.612
REMARK  Name = 
REMARK  8 active torsions:
REMARK  status: ('A' for Active; 'I' for Inactive)
REMARK    1  A    between atoms: C_1  and  O_2
REMARK    2  A    between atoms: O_2  and  C_3
REMARK    3  A    between atoms: C_5  and  N_6
REMARK    4  A    between atoms: C_7  and  C_8
REMARK    5  A    between atoms: C_22  and  O_23
REMARK    6  A    between atoms: O_23  and  C_24
REMARK    7  A    between atoms: C_25  and  O_26
REMARK    8  A    between atoms: O_26  and  C_27
REMARK                            x       y       z     vdW  Elec       q    Type
REMARK                         _______ _______ _______ _____ _____    ______ ____
ROOT
ATOM      1  N   UNL     1       3.339   3.095  18.756  0.00  0.00    +0.000 N 
ATOM      2  C   UNL     1       2.197   3.672  19.239  0.00  0.00    +0.000 A 
ATOM      3  C   UNL     1       1.364   2.675  19.501  0.00  0.00    +0.000 A 
ATOM      4  O   UNL     1       1.878   1.411  19.203  0.00  0.00    +0.000 OA
ATOM      5  C   UNL     1       3.138   1.724  18.689  0.00  0.00    +0.000 A 
ATOM      6  O   UNL     1       3.910   0.876  18.259  0.00  0.00    +0.000 OA
ENDROOT
BRANCH   2   7
ATOM      7  C   UNL     1       1.962   5.110  19.256  0.00  0.00    +0.000 A 
ATOM      8  C   UNL     1       1.827   5.806  20.478  0.00  0.00    +0.000 A 
ATOM      9  C   UNL     1       1.863   7.206  20.512  0.00  0.00    +0.000 A 
ATOM     10  C   UNL     1       2.060   7.864  19.319  0.00  0.00    +0.000 A 
ATOM     11  C   UNL     1       2.136   7.190  18.120  0.00  0.00    +0.000 A 
ATOM     12  C   UNL     1       2.057   5.819  18.049  0.00  0.00    +0.000 A 
ATOM     13  O   UNL     1       2.402   8.026  17.078  0.00  0.00    +0.000 OA
ATOM     14  C   UNL     1       2.780   9.209  17.812  0.00  0.00    +0.000 C 
ATOM     15  O   UNL     1       2.284   9.199  19.167  0.00  0.00    +0.000 OA
ENDBRANCH   2   7
BRANCH   1  18
ATOM     16  C   UNL     1       5.460   5.028  16.448  0.00  0.00    +0.000 A 
ATOM     17  C   UNL     1       4.594   4.019  16.904  0.00  0.00    +0.000 A 
ATOM     18  C   UNL     1       4.471   3.776  18.266  0.00  0.00    +0.000 A 
ATOM     19  C   UNL     1       5.302   4.433  19.153  0.00  0.00    +0.000 A 
ATOM     20  C   UNL     1       6.264   5.355  18.713  0.00  0.00    +0.000 A 
ATOM     21  C   UNL     1       6.349   5.674  17.339  0.00  0.00    +0.000 A 
BRANCH  16  23
ATOM     22  C   UNL     1       6.144   4.521  14.243  0.00  0.00    +0.000 C 
ATOM     23  O   UNL     1       5.424   5.391  15.123  0.00  0.00    +0.000 OA
ENDBRANCH  16  23
BRANCH  20  24
ATOM     24  O   UNL     1       6.976   5.871  19.768  0.00  0.00    +0.000 OA
ATOM     25  C   UNL     1       8.289   5.404  20.030  0.00  0.00    +0.000 C 
ENDBRANCH  20  24
BRANCH  21  26
ATOM     26  O   UNL     1       7.291   6.607  17.005  0.00  0.00    +0.000 OA
ATOM     27  C   UNL     1       7.187   7.954  17.435  0.00  0.00    +0.000 C 
ENDBRANCH  21  26
ENDBRANCH   1  18
TORSDOF 5
ENDMDL
MODEL 5
REMARK VINA RESULT:      -6.5      1.767      6.052
REMARK  Name = 
REMARK  8 active torsions:
REMARK  status: ('A' for Active; 'I' for Inactive)
REMARK    1  A    between atoms: C_1  and  O_2
REMARK    2  A    between atoms: O_2  and  C_3
REMARK    3  A    between atoms: C_5  and  N_6
REMARK    4  A    between atoms: C_7  and  C_8
REMARK    5  A    between atoms: C_22  and  O_23
REMARK    6  A    between atoms: O_23  and  C_24
REMARK    7  A    between atoms: C_25  and  O_26
REMARK    8  A    between atoms: O_26  and  C_27
REMARK                            x       y       z     vdW  Elec       q    Type
REMARK                         _______ _______ _______ _____ _____    ______ ____
ROOT
ATOM      1  N   UNL     1       3.061   4.133  19.921  0.00  0.00    +0.000 N 
ATOM      2  C   UNL     1       4.161   3.588  19.319  0.00  0.00    +0.000 A 
ATOM      3  C   UNL     1       4.395   2.443  19.947  0.00  0.00    +0.000 A 
ATOM      4  O   UNL     1       3.500   2.172  20.984  0.00  0.00    +0.000 OA
ATOM      5  C   UNL     1       2.678   3.301  20.963  0.00  0.00    +0.000 A 
ATOM      6  O   UNL     1       1.771   3.477  21.765  0.00  0.00    +0.000 OA
ENDROOT
BRANCH   2   7
ATOM      7  C   UNL     1       4.963   4.281  18.319  0.00  0.00    +0.000 A 
ATOM      8  C   UNL     1       6.123   4.996  18.689  0.00  0.00    +0.000 A 
ATOM      9  C   UNL     1       7.031   5.438  17.720  0.00  0.00    +0.000 A 
ATOM     10  C   UNL     1       6.759   5.127  16.407  0.00  0.00    +0.000 A 
ATOM     11  C   UNL     1       5.601   4.480  16.038  0.00  0.00    +0.000 A 
ATOM     12  C   UNL     1       4.667   4.074  16.962  0.00  0.00    +0.000 A 
ATOM     13  O   UNL     1       5.567   4.211  14.703  0.00  0.00    +0.000 OA
ATOM     14  C   UNL     1       6.944   4.483  14.371  0.00  0.00    +0.000 C 
ATOM     15  O   UNL     1       7.591   5.325  15.347  0.00  0.00    +0.000 OA
ENDBRANCH   2   7
BRANCH   1  18
ATOM     16  C   UNL     1       1.669   7.491  20.514  0.00  0.00    +0.000 A 
ATOM     17  C   UNL     1       1.857   6.104  20.645  0.00  0.00    +0.000 A 
ATOM     18  C   UNL     1       2.498   5.393  19.638  0.00  0.00    +0.000 A 
ATOM     19  C   UNL     1       2.821   6.030  18.455  0.00  0.00    +0.000 A 
ATOM     20  C   UNL     1       2.531   7.387  18.249  0.00  0.00    +0.000 A 
ATOM     21  C   UNL     1       1.953   8.145  19.292  0.00  0.00    +0.000 A 
BRANCH  16  23
ATOM     22  C   UNL     1      -0.200   8.397  21.640  0.00  0.00    +0.000 C 
ATOM     23  O   UNL     1       1.218   8.210  21.595  0.00  0.00    +0.000 OA
ENDBRANCH  16  23
BRANCH  20  24
ATOM     24  O   UNL     1       2.934   7.796  17.001  0.00  0.00    +0.000 OA
ATOM     25  C   UNL     1       4.299   7.695  16.630  0.00  0.00    +0.000 C 
ENDBRANCH  20  24
BRANCH  21  26
ATOM     26  O   UNL     1       1.736   9.466  19.014  0.00  0.00    +0.000 OA
ATOM     27  C   UNL     1       0.560   9.902  18.355  0.00  0.00    +0.000 C 
ENDBRANCH  21  26
ENDBRANCH   1  18
TORSDOF 5
ENDMDL
MODEL 6
REMARK VINA RESULT:      -6.3      4.714     10.034
REMARK  Name = 
REMARK  8 active torsions:
REMARK  status: ('A' for Active; 'I' for Inactive)
REMARK    1  A    between atoms: C_1  and  O_2
REMARK    2  A    between atoms: O_2  and  C_3
REMARK    3  A    between atoms: C_5  and  N_6
REMARK    4  A    between atoms: C_7  and  C_8
REMARK    5  A    between atoms: C_22  and  O_23
REMARK    6  A    between atoms: O_23  and  C_24
REMARK    7  A    between atoms: C_25  and  O_26
REMARK    8  A    between atoms: O_26  and  C_27
REMARK                            x       y       z     vdW  Elec       q    Type
REMARK                         _______ _______ _______ _____ _____    ______ ____
ROOT
ATOM      1  N   UNL     1      -0.005  12.761  18.953  0.00  0.00    +0.000 N 
ATOM      2  C   UNL     1       1.160  12.048  19.019  0.00  0.00    +0.000 A 
ATOM      3  C   UNL     1       2.139  12.943  19.000  0.00  0.00    +0.000 A 
ATOM      4  O   UNL     1       1.699  14.264  18.906  0.00  0.00    +0.000 OA
ATOM      5  C   UNL     1       0.313  14.106  18.839  0.00  0.00    +0.000 A 
ATOM      6  O   UNL     1      -0.458  15.047  18.703  0.00  0.00    +0.000 OA
ENDROOT
BRANCH   2   7
ATOM      7  C   UNL     1       1.226  10.595  18.940  0.00  0.00    +0.000 A 
ATOM      8  C   UNL     1       1.796   9.957  17.816  0.00  0.00    +0.000 A 
ATOM      9  C   UNL     1       2.097   8.590  17.845  0.00  0.00    +0.000 A 
ATOM     10  C   UNL     1       1.841   7.909  19.014  0.00  0.00    +0.000 A 
ATOM     11  C   UNL     1       1.233   8.516  20.091  0.00  0.00    +0.000 A 
ATOM     12  C   UNL     1       0.882   9.845  20.075  0.00  0.00    +0.000 A 
ATOM     13  O   UNL     1       1.137   7.681  21.163  0.00  0.00    +0.000 OA
ATOM     14  C   UNL     1       2.019   6.627  20.723  0.00  0.00    +0.000 C 
ATOM     15  O   UNL     1       2.208   6.628  19.292  0.00  0.00    +0.000 OA
ENDBRANCH   2   7
BRANCH   1  18
ATOM     16  C   UNL     1      -3.570  12.228  19.710  0.00  0.00    +0.000 A 
ATOM     17  C   UNL     1      -2.188  12.369  19.923  0.00  0.00    +0.000 A 
ATOM     18  C   UNL     1      -1.304  12.222  18.862  0.00  0.00    +0.000 A 
ATOM     19  C   UNL     1      -1.779  11.804  17.633  0.00  0.00    +0.000 A 
ATOM     20  C   UNL     1      -3.140  11.535  17.426  0.00  0.00    +0.000 A 
ATOM     21  C   UNL     1      -4.065  11.755  18.471  0.00  0.00    +0.000 A 
BRANCH  16  23
ATOM     22  C   UNL     1      -3.828  12.767  21.996  0.00  0.00    +0.000 C 
ATOM     23  O   UNL     1      -4.440  12.570  20.717  0.00  0.00    +0.000 OA
ENDBRANCH  16  23
BRANCH  20  24
ATOM     24  O   UNL     1      -3.374  11.125  16.136  0.00  0.00    +0.000 OA
ATOM     25  C   UNL     1      -2.777   9.932  15.654  0.00  0.00    +0.000 C 
ENDBRANCH  20  24
BRANCH  21  26
ATOM     26  O   UNL     1      -5.373  11.498  18.170  0.00  0.00    +0.000 OA
ATOM     27  C   UNL     1      -6.036  10.346  18.662  0.00  0.00    +0.000 C 
ENDBRANCH  21  26
ENDBRANCH   1  18
TORSDOF 5
ENDMDL
MODEL 7
REMARK VINA RESULT:      -6.2      1.374      5.650
REMARK  Name = 
REMARK  8 active torsions:
REMARK  status: ('A' for Active; 'I' for Inactive)
REMARK    1  A    between atoms: C_1  and  O_2
REMARK    2  A    between atoms: O_2  and  C_3
REMARK    3  A    between atoms: C_5  and  N_6
REMARK    4  A    between atoms: C_7  and  C_8
REMARK    5  A    between atoms: C_22  and  O_23
REMARK    6  A    between atoms: O_23  and  C_24
REMARK    7  A    between atoms: C_25  and  O_26
REMARK    8  A    between atoms: O_26  and  C_27
REMARK                            x       y       z     vdW  Elec       q    Type
REMARK                         _______ _______ _______ _____ _____    ______ ____
ROOT
ATOM      1  N   UNL     1       2.436   4.952  19.165  0.00  0.00    +0.000 N 
ATOM      2  C   UNL     1       3.435   4.316  18.481  0.00  0.00    +0.000 A 
ATOM      3  C   UNL     1       3.179   3.019  18.577  0.00  0.00    +0.000 A 
ATOM      4  O   UNL     1       2.037   2.719  19.323  0.00  0.00    +0.000 OA
ATOM      5  C   UNL     1       1.606   3.988  19.717  0.00  0.00    +0.000 A 
ATOM      6  O   UNL     1       0.634   4.164  20.441  0.00  0.00    +0.000 OA
ENDROOT
BRANCH   2   7
ATOM      7  C   UNL     1       4.605   4.997  17.941  0.00  0.00    +0.000 A 
ATOM      8  C   UNL     1       4.537   5.686  16.710  0.00  0.00    +0.000 A 
ATOM      9  C   UNL     1       5.565   6.551  16.315  0.00  0.00    +0.000 A 
ATOM     10  C   UNL     1       6.621   6.717  17.183  0.00  0.00    +0.000 A 
ATOM     11  C   UNL     1       6.717   6.003  18.357  0.00  0.00    +0.000 A 
ATOM     12  C   UNL     1       5.746   5.112  18.750  0.00  0.00    +0.000 A 
ATOM     13  O   UNL     1       7.802   6.372  19.095  0.00  0.00    +0.000 OA
ATOM     14  C   UNL     1       8.165   7.581  18.395  0.00  0.00    +0.000 C 
ATOM     15  O   UNL     1       7.628   7.625  17.056  0.00  0.00    +0.000 OA
ENDBRANCH   2   7
BRANCH   1  18
ATOM     16  C   UNL     1       1.974   8.538  18.464  0.00  0.00    +0.000 A 
ATOM     17  C   UNL     1       2.470   7.228  18.342  0.00  0.00    +0.000 A 
ATOM     18  C   UNL     1       2.341   6.338  19.401  0.00  0.00    +0.000 A 
ATOM     19  C   UNL     1       1.851   6.786  20.613  0.00  0.00    +0.000 A 
ATOM     20  C   UNL     1       1.465   8.122  20.799  0.00  0.00    +0.000 A 
ATOM     21  C   UNL     1       1.514   9.023  19.711  0.00  0.00    +0.000 A 
BRANCH  16  23
ATOM     22  C   UNL     1       2.601  10.597  17.488  0.00  0.00    +0.000 C 
ATOM     23  O   UNL     1       1.928   9.341  17.350  0.00  0.00    +0.000 OA
ENDBRANCH  16  23
BRANCH  20  24
ATOM     24  O   UNL     1       1.022   8.336  22.081  0.00  0.00    +0.000 OA
ATOM     25  C   UNL     1      -0.361   8.531  22.329  0.00  0.00    +0.000 C 
ENDBRANCH  20  24
BRANCH  21  26
ATOM     26  O   UNL     1       1.087  10.295  19.975  0.00  0.00    +0.000 OA
ATOM     27  C   UNL     1      -0.219  10.726  19.632  0.00  0.00    +0.000 C 
ENDBRANCH  21  26
ENDBRANCH   1  18
TORSDOF 5
ENDMDL
MODEL 8
REMARK VINA RESULT:      -6.1      1.876      5.805
REMARK  Name = 
REMARK  8 active torsions:
REMARK  status: ('A' for Active; 'I' for Inactive)
REMARK    1  A    between atoms: C_1  and  O_2
REMARK    2  A    between atoms: O_2  and  C_3
REMARK    3  A    between atoms: C_5  and  N_6
REMARK    4  A    between atoms: C_7  and  C_8
REMARK    5  A    between atoms: C_22  and  O_23
REMARK    6  A    between atoms: O_23  and  C_24
REMARK    7  A    between atoms: C_25  and  O_26
REMARK    8  A    between atoms: O_26  and  C_27
REMARK                            x       y       z     vdW  Elec       q    Type
REMARK                         _______ _______ _______ _____ _____    ______ ____
ROOT
ATOM      1  N   UNL     1       3.144   4.284  19.796  0.00  0.00    +0.000 N 
ATOM      2  C   UNL     1       4.005   3.538  19.039  0.00  0.00    +0.000 A 
ATOM      3  C   UNL     1       3.951   2.306  19.527  0.00  0.00    +0.000 A 
ATOM      4  O   UNL     1       3.088   2.164  20.615  0.00  0.00    +0.000 OA
ATOM      5  C   UNL     1       2.614   3.467  20.784  0.00  0.00    +0.000 A 
ATOM      6  O   UNL     1       1.848   3.784  21.684  0.00  0.00    +0.000 OA
ENDROOT
BRANCH   2   7
ATOM      7  C   UNL     1       4.899   4.104  18.038  0.00  0.00    +0.000 A 
ATOM      8  C   UNL     1       6.202   4.524  18.386  0.00  0.00    +0.000 A 
ATOM      9  C   UNL     1       7.147   4.821  17.396  0.00  0.00    +0.000 A 
ATOM     10  C   UNL     1       6.762   4.662  16.084  0.00  0.00    +0.000 A 
ATOM     11  C   UNL     1       5.476   4.307  15.741  0.00  0.00    +0.000 A 
ATOM     12  C   UNL     1       4.513   4.054  16.689  0.00  0.00    +0.000 A 
ATOM     13  O   UNL     1       5.332   4.138  14.397  0.00  0.00    +0.000 OA
ATOM     14  C   UNL     1       6.721   4.126  14.008  0.00  0.00    +0.000 C 
ATOM     15  O   UNL     1       7.575   4.743  14.994  0.00  0.00    +0.000 OA
ENDBRANCH   2   7
BRANCH   1  18
ATOM     16  C   UNL     1       2.853   7.615  18.251  0.00  0.00    +0.000 A 
ATOM     17  C   UNL     1       3.395   6.359  18.575  0.00  0.00    +0.000 A 
ATOM     18  C   UNL     1       2.937   5.674  19.693  0.00  0.00    +0.000 A 
ATOM     19  C   UNL     1       2.052   6.292  20.556  0.00  0.00    +0.000 A 
ATOM     20  C   UNL     1       1.590   7.596  20.322  0.00  0.00    +0.000 A 
ATOM     21  C   UNL     1       1.983   8.278  19.148  0.00  0.00    +0.000 A 
BRANCH  16  23
ATOM     22  C   UNL     1       4.320   7.632  16.399  0.00  0.00    +0.000 C 
ATOM     23  O   UNL     1       3.168   8.187  17.043  0.00  0.00    +0.000 OA
ENDBRANCH  16  23
BRANCH  20  24
ATOM     24  O   UNL     1       0.731   8.003  21.313  0.00  0.00    +0.000 OA
ATOM     25  C   UNL     1       1.126   9.022  22.217  0.00  0.00    +0.000 C 
ENDBRANCH  20  24
BRANCH  21  26
ATOM     26  O   UNL     1       1.458   9.530  18.986  0.00  0.00    +0.000 OA
ATOM     27  C   UNL     1       0.276   9.748  18.235  0.00  0.00    +0.000 C 
ENDBRANCH  21  26
ENDBRANCH   1  18
TORSDOF 5
ENDMDL
MODEL 9
REMARK VINA RESULT:      -6.0      4.813      9.835
REMARK  Name = 
REMARK  8 active torsions:
REMARK  status: ('A' for Active; 'I' for Inactive)
REMARK    1  A    between atoms: C_1  and  O_2
REMARK    2  A    between atoms: O_2  and  C_3
REMARK    3  A    between atoms: C_5  and  N_6
REMARK    4  A    between atoms: C_7  and  C_8
REMARK    5  A    between atoms: C_22  and  O_23
REMARK    6  A    between atoms: O_23  and  C_24
REMARK    7  A    between atoms: C_25  and  O_26
REMARK    8  A    between atoms: O_26  and  C_27
REMARK                            x       y       z     vdW  Elec       q    Type
REMARK                         _______ _______ _______ _____ _____    ______ ____
ROOT
ATOM      1  N   UNL     1       0.258  13.272  18.931  0.00  0.00    +0.000 N 
ATOM      2  C   UNL     1       1.358  12.484  19.127  0.00  0.00    +0.000 A 
ATOM      3  C   UNL     1       2.385  13.312  19.258  0.00  0.00    +0.000 A 
ATOM      4  O   UNL     1       2.045  14.662  19.146  0.00  0.00    +0.000 OA
ATOM      5  C   UNL     1       0.672  14.596  18.897  0.00  0.00    +0.000 A 
ATOM      6  O   UNL     1      -0.014  15.588  18.689  0.00  0.00    +0.000 OA
ENDROOT
BRANCH   2   7
ATOM      7  C   UNL     1       1.342  11.031  19.016  0.00  0.00    +0.000 A 
ATOM      8  C   UNL     1       1.941  10.383  17.912  0.00  0.00    +0.000 A 
ATOM      9  C   UNL     1       2.159   9.000  17.926  0.00  0.00    +0.000 A 
ATOM     10  C   UNL     1       1.792   8.312  19.060  0.00  0.00    +0.000 A 
ATOM     11  C   UNL     1       1.157   8.932  20.114  0.00  0.00    +0.000 A 
ATOM     12  C   UNL     1       0.887  10.280  20.111  0.00  0.00    +0.000 A 
ATOM     13  O   UNL     1       0.948   8.082  21.158  0.00  0.00    +0.000 OA
ATOM     14  C   UNL     1       1.790   6.986  20.745  0.00  0.00    +0.000 C 
ATOM     15  O   UNL     1       2.065   7.005  19.329  0.00  0.00    +0.000 OA
ENDBRANCH   2   7
BRANCH   1  18
ATOM     16  C   UNL     1      -2.450  11.255  17.462  0.00  0.00    +0.000 A 
ATOM     17  C   UNL     1      -1.291  12.047  17.532  0.00  0.00    +0.000 A 
ATOM     18  C   UNL     1      -1.049  12.822  18.659  0.00  0.00    +0.000 A 
ATOM     19  C   UNL     1      -2.016  12.915  19.642  0.00  0.00    +0.000 A 
ATOM     20  C   UNL     1      -3.237  12.232  19.538  0.00  0.00    +0.000 A 
ATOM     21  C   UNL     1      -3.468  11.376  18.437  0.00  0.00    +0.000 A 
BRANCH  16  23
ATOM     22  C   UNL     1      -3.150  10.875  15.237  0.00  0.00    +0.000 C 
ATOM     23  O   UNL     1      -2.578  10.347  16.438  0.00  0.00    +0.000 OA
ENDBRANCH  16  23
BRANCH  20  24
ATOM     24  O   UNL     1      -4.040  12.483  20.623  0.00  0.00    +0.000 OA
ATOM     25  C   UNL     1      -4.919  13.597  20.611  0.00  0.00    +0.000 C 
ENDBRANCH  20  24
BRANCH  21  26
ATOM     26  O   UNL     1      -4.671  10.726  18.435  0.00  0.00    +0.000 OA
ATOM     27  C   UNL     1      -5.811  11.278  17.799  0.00  0.00    +0.000 C 
ENDBRANCH  21  26
ENDBRANCH   1  18
TORSDOF 5
ENDMDL
