MODEL 1
REMARK VINA RESULT:      -6.6      0.000      0.000
REMARK  Name = 
REMARK  5 active torsions:
REMARK  status: ('A' for Active; 'I' for Inactive)
REMARK    1  A    between atoms: C_1  and  C_2
REMARK    2  A    between atoms: C_4  and  C_5
REMARK    3  A    between atoms: C_7  and  N_8
REMARK    4  A    between atoms: N_18  and  C_19
REMARK    5  A    between atoms: C_19  and  C_20
REMARK                            x       y       z     vdW  Elec       q    Type
REMARK                         _______ _______ _______ _____ _____    ______ ____
ROOT
ATOM      1  N   UNL     1      -6.028  12.774  21.137  0.00  0.00    +0.000 N 
ATOM      2  C   UNL     1      -7.186  12.113  21.492  0.00  0.00    +0.000 C 
ATOM      3  O   UNL     1      -7.833  11.380  20.750  0.00  0.00    +0.000 OA
ATOM      4  C   UNL     1      -7.632  12.393  22.908  0.00  0.00    +0.000 C 
ATOM      5  S   UNL     1      -6.406  13.400  23.679  0.00  0.00    +0.000 S 
ATOM      6  O   UNL     1      -5.768  12.607  24.699  0.00  0.00    +0.000 OA
ATOM      7  O   UNL     1      -7.055  14.654  24.034  0.00  0.00    +0.000 OA
ATOM      8  C   UNL     1      -5.406  13.560  22.217  0.00  0.00    +0.000 C 
ATOM      9  C   UNL     1      -3.982  13.052  22.491  0.00  0.00    +0.000 C 
ATOM     10  O   UNL     1      -3.662  11.921  22.836  0.00  0.00    +0.000 OA
ATOM     11  N   UNL     1      -3.101  14.047  22.029  0.00  0.00    +0.000 N 
ATOM     12  C   UNL     1      -3.804  15.182  21.587  0.00  0.00    +0.000 A 
ATOM     13  C   UNL     1      -3.342  16.305  20.925  0.00  0.00    +0.000 A 
ATOM     14  C   UNL     1      -4.271  17.296  20.578  0.00  0.00    +0.000 A 
ATOM     15  C   UNL     1      -5.630  17.160  20.899  0.00  0.00    +0.000 A 
ATOM     16  C   UNL     1      -6.095  15.993  21.500  0.00  0.00    +0.000 A 
ATOM     17  C   UNL     1      -5.172  15.002  21.820  0.00  0.00    +0.000 A 
ENDROOT
BRANCH   1  24
ATOM     18  C   UNL     1      -7.091  13.838  16.519  0.00  0.00    +0.000 C 
ATOM     19  C   UNL     1      -6.187  13.163  17.508  0.00  0.00    +0.000 A 
ATOM     20  C   UNL     1      -5.396  12.076  17.132  0.00  0.00    +0.000 A 
ATOM     21  C   UNL     1      -4.559  11.441  18.062  0.00  0.00    +0.000 A 
ATOM     22  C   UNL     1      -3.683  10.305  17.618  0.00  0.00    +0.000 C 
ATOM     23  C   UNL     1      -4.589  11.844  19.409  0.00  0.00    +0.000 A 
ATOM     24  C   UNL     1      -5.490  12.835  19.820  0.00  0.00    +0.000 A 
ATOM     25  C   UNL     1      -6.197  13.558  18.850  0.00  0.00    +0.000 A 
ENDBRANCH   1  24
BRANCH  11  26
ATOM     26  C   UNL     1      -1.673  13.833  21.942  0.00  0.00    +0.000 C 
BRANCH  26  27
ATOM     27  C   UNL     1      -1.311  12.984  20.755  0.00  0.00    +0.000 A 
ATOM     28  C   UNL     1      -0.952  11.640  20.939  0.00  0.00    +0.000 A 
ATOM     29  C   UNL     1      -0.437  10.899  19.879  0.00  0.00    +0.000 A 
ATOM     30  C   UNL     1      -0.297  11.489  18.624  0.00  0.00    +0.000 A 
ATOM     31  C   UNL     1      -0.719  12.801  18.418  0.00  0.00    +0.000 A 
ATOM     32  C   UNL     1      -1.230  13.547  19.478  0.00  0.00    +0.000 A 
ENDBRANCH  26  27
ENDBRANCH  11  26
TORSDOF 3
ENDMDL
MODEL 2
REMARK VINA RESULT:      -6.4      2.308      4.748
REMARK  Name = 
REMARK  5 active torsions:
REMARK  status: ('A' for Active; 'I' for Inactive)
REMARK    1  A    between atoms: C_1  and  C_2
REMARK    2  A    between atoms: C_4  and  C_5
REMARK    3  A    between atoms: C_7  and  N_8
REMARK    4  A    between atoms: N_18  and  C_19
REMARK    5  A    between atoms: C_19  and  C_20
REMARK                            x       y       z     vdW  Elec       q    Type
REMARK                         _______ _______ _______ _____ _____    ______ ____
ROOT
ATOM      1  N   UNL     1      -5.265  14.335  20.221  0.00  0.00    +0.000 N 
ATOM      2  C   UNL     1      -6.192  14.444  19.204  0.00  0.00    +0.000 C 
ATOM      3  O   UNL     1      -6.607  15.501  18.741  0.00  0.00    +0.000 OA
ATOM      4  C   UNL     1      -6.699  13.111  18.705  0.00  0.00    +0.000 C 
ATOM      5  S   UNL     1      -5.805  11.838  19.537  0.00  0.00    +0.000 S 
ATOM      6  O   UNL     1      -4.972  11.182  18.561  0.00  0.00    +0.000 OA
ATOM      7  O   UNL     1      -6.779  11.067  20.296  0.00  0.00    +0.000 OA
ATOM      8  C   UNL     1      -4.888  12.955  20.574  0.00  0.00    +0.000 C 
ATOM      9  C   UNL     1      -3.380  12.749  20.371  0.00  0.00    +0.000 C 
ATOM     10  O   UNL     1      -2.756  12.880  19.325  0.00  0.00    +0.000 OA
ATOM     11  N   UNL     1      -2.812  12.628  21.653  0.00  0.00    +0.000 N 
ATOM     12  C   UNL     1      -3.804  12.629  22.649  0.00  0.00    +0.000 A 
ATOM     13  C   UNL     1      -3.674  12.686  24.025  0.00  0.00    +0.000 A 
ATOM     14  C   UNL     1      -4.843  12.691  24.800  0.00  0.00    +0.000 A 
ATOM     15  C   UNL     1      -6.110  12.631  24.200  0.00  0.00    +0.000 A 
ATOM     16  C   UNL     1      -6.230  12.648  22.813  0.00  0.00    +0.000 A 
ATOM     17  C   UNL     1      -5.067  12.667  22.049  0.00  0.00    +0.000 A 
ENDROOT
BRANCH   1  24
ATOM     18  C   UNL     1      -1.200  16.508  21.751  0.00  0.00    +0.000 C 
ATOM     19  C   UNL     1      -2.677  16.293  21.898  0.00  0.00    +0.000 A 
ATOM     20  C   UNL     1      -3.315  16.504  23.122  0.00  0.00    +0.000 A 
ATOM     21  C   UNL     1      -4.695  16.293  23.259  0.00  0.00    +0.000 A 
ATOM     22  C   UNL     1      -5.363  16.573  24.575  0.00  0.00    +0.000 C 
ATOM     23  C   UNL     1      -5.427  15.775  22.176  0.00  0.00    +0.000 A 
ATOM     24  C   UNL     1      -4.765  15.423  20.993  0.00  0.00    +0.000 A 
ATOM     25  C   UNL     1      -3.422  15.788  20.828  0.00  0.00    +0.000 A 
ENDBRANCH   1  24
BRANCH  11  26
ATOM     26  C   UNL     1      -1.381  12.619  21.865  0.00  0.00    +0.000 C 
BRANCH  26  27
ATOM     27  C   UNL     1      -0.826  11.222  21.850  0.00  0.00    +0.000 A 
ATOM     28  C   UNL     1      -0.786  10.471  23.035  0.00  0.00    +0.000 A 
ATOM     29  C   UNL     1      -0.109   9.256  23.075  0.00  0.00    +0.000 A 
ATOM     30  C   UNL     1       0.516   8.773  21.926  0.00  0.00    +0.000 A 
ATOM     31  C   UNL     1       0.419   9.479  20.728  0.00  0.00    +0.000 A 
ATOM     32  C   UNL     1      -0.254  10.698  20.687  0.00  0.00    +0.000 A 
ENDBRANCH  26  27
ENDBRANCH  11  26
TORSDOF 3
ENDMDL
MODEL 3
REMARK VINA RESULT:      -6.3      2.282      6.011
REMARK  Name = 
REMARK  5 active torsions:
REMARK  status: ('A' for Active; 'I' for Inactive)
REMARK    1  A    between atoms: C_1  and  C_2
REMARK    2  A    between atoms: C_4  and  C_5
REMARK    3  A    between atoms: C_7  and  N_8
REMARK    4  A    between atoms: N_18  and  C_19
REMARK    5  A    between atoms: C_19  and  C_20
REMARK                            x       y       z     vdW  Elec       q    Type
REMARK                         _______ _______ _______ _____ _____    ______ ____
ROOT
ATOM      1  N   UNL     1      -1.937  14.707  21.650  0.00  0.00    +0.000 N 
ATOM      2  C   UNL     1      -1.327  15.118  22.817  0.00  0.00    +0.000 C 
ATOM      3  O   UNL     1      -0.799  16.212  22.987  0.00  0.00    +0.000 OA
ATOM      4  C   UNL     1      -1.334  14.068  23.903  0.00  0.00    +0.000 C 
ATOM      5  S   UNL     1      -2.261  12.684  23.322  0.00  0.00    +0.000 S 
ATOM      6  O   UNL     1      -3.468  12.608  24.106  0.00  0.00    +0.000 OA
ATOM      7  O   UNL     1      -1.347  11.551  23.284  0.00  0.00    +0.000 OA
ATOM      8  C   UNL     1      -2.543  13.365  21.703  0.00  0.00    +0.000 C 
ATOM      9  C   UNL     1      -4.050  13.451  21.419  0.00  0.00    +0.000 C 
ATOM     10  O   UNL     1      -4.880  14.087  22.058  0.00  0.00    +0.000 OA
ATOM     11  N   UNL     1      -4.258  12.874  20.153  0.00  0.00    +0.000 N 
ATOM     12  C   UNL     1      -3.065  12.333  19.641  0.00  0.00    +0.000 A 
ATOM     13  C   UNL     1      -2.795  11.821  18.385  0.00  0.00    +0.000 A 
ATOM     14  C   UNL     1      -1.498  11.356  18.125  0.00  0.00    +0.000 A 
ATOM     15  C   UNL     1      -0.503  11.397  19.113  0.00  0.00    +0.000 A 
ATOM     16  C   UNL     1      -0.766  11.981  20.349  0.00  0.00    +0.000 A 
ATOM     17  C   UNL     1      -2.047  12.464  20.593  0.00  0.00    +0.000 A 
ENDROOT
BRANCH   1  24
ATOM     18  C   UNL     1       1.000  16.751  18.366  0.00  0.00    +0.000 C 
ATOM     19  C   UNL     1      -0.371  16.618  18.958  0.00  0.00    +0.000 A 
ATOM     20  C   UNL     1      -1.306  17.649  18.843  0.00  0.00    +0.000 A 
ATOM     21  C   UNL     1      -2.584  17.526  19.407  0.00  0.00    +0.000 A 
ATOM     22  C   UNL     1      -3.586  18.631  19.227  0.00  0.00    +0.000 C 
ATOM     23  C   UNL     1      -2.896  16.390  20.175  0.00  0.00    +0.000 A 
ATOM     24  C   UNL     1      -1.913  15.422  20.417  0.00  0.00    +0.000 A 
ATOM     25  C   UNL     1      -0.701  15.491  19.717  0.00  0.00    +0.000 A 
ENDBRANCH   1  24
BRANCH  11  26
ATOM     26  C   UNL     1      -5.528  12.954  19.467  0.00  0.00    +0.000 C 
BRANCH  26  27
ATOM     27  C   UNL     1      -6.393  11.759  19.761  0.00  0.00    +0.000 A 
ATOM     28  C   UNL     1      -7.233  11.761  20.885  0.00  0.00    +0.000 A 
ATOM     29  C   UNL     1      -7.895  10.598  21.270  0.00  0.00    +0.000 A 
ATOM     30  C   UNL     1      -7.737   9.432  20.524  0.00  0.00    +0.000 A 
ATOM     31  C   UNL     1      -6.961   9.442  19.366  0.00  0.00    +0.000 A 
ATOM     32  C   UNL     1      -6.295  10.603  18.980  0.00  0.00    +0.000 A 
ENDBRANCH  26  27
ENDBRANCH  11  26
TORSDOF 3
ENDMDL
MODEL 4
REMARK VINA RESULT:      -6.2      3.635      6.417
REMARK  Name = 
REMARK  5 active torsions:
REMARK  status: ('A' for Active; 'I' for Inactive)
REMARK    1  A    between atoms: C_1  and  C_2
REMARK    2  A    between atoms: C_4  and  C_5
REMARK    3  A    between atoms: C_7  and  N_8
REMARK    4  A    between atoms: N_18  and  C_19
REMARK    5  A    between atoms: C_19  and  C_20
REMARK                            x       y       z     vdW  Elec       q    Type
REMARK                         _______ _______ _______ _____ _____    ______ ____
ROOT
ATOM      1  N   UNL     1      -1.111  13.312  20.703  0.00  0.00    +0.000 N 
ATOM      2  C   UNL     1      -0.788  14.646  20.846  0.00  0.00    +0.000 C 
ATOM      3  O   UNL     1      -1.441  15.462  21.488  0.00  0.00    +0.000 OA
ATOM      4  C   UNL     1       0.464  15.047  20.101  0.00  0.00    +0.000 C 
ATOM      5  S   UNL     1       1.167  13.595  19.389  0.00  0.00    +0.000 S 
ATOM      6  O   UNL     1       2.408  13.332  20.072  0.00  0.00    +0.000 OA
ATOM      7  O   UNL     1       1.159  13.788  17.946  0.00  0.00    +0.000 OA
ATOM      8  C   UNL     1      -0.145  12.519  19.922  0.00  0.00    +0.000 C 
ATOM      9  C   UNL     1       0.422  11.378  20.781  0.00  0.00    +0.000 C 
ATOM     10  O   UNL     1       1.037  11.490  21.834  0.00  0.00    +0.000 OA
ATOM     11  N   UNL     1      -0.113  10.181  20.268  0.00  0.00    +0.000 N 
ATOM     12  C   UNL     1      -0.875  10.421  19.111  0.00  0.00    +0.000 A 
ATOM     13  C   UNL     1      -1.688   9.561  18.395  0.00  0.00    +0.000 A 
ATOM     14  C   UNL     1      -2.359  10.068  17.273  0.00  0.00    +0.000 A 
ATOM     15  C   UNL     1      -2.205  11.405  16.879  0.00  0.00    +0.000 A 
ATOM     16  C   UNL     1      -1.443  12.279  17.650  0.00  0.00    +0.000 A 
ATOM     17  C   UNL     1      -0.799  11.778  18.776  0.00  0.00    +0.000 A 
ENDROOT
BRANCH   1  24
ATOM     18  C   UNL     1      -5.899  13.131  19.911  0.00  0.00    +0.000 C 
ATOM     19  C   UNL     1      -4.736  12.872  20.822  0.00  0.00    +0.000 A 
ATOM     20  C   UNL     1      -4.908  12.808  22.206  0.00  0.00    +0.000 A 
ATOM     21  C   UNL     1      -3.816  12.575  23.055  0.00  0.00    +0.000 A 
ATOM     22  C   UNL     1      -4.037  12.463  24.536  0.00  0.00    +0.000 C 
ATOM     23  C   UNL     1      -2.520  12.499  22.513  0.00  0.00    +0.000 A 
ATOM     24  C   UNL     1      -2.326  12.711  21.142  0.00  0.00    +0.000 A 
ATOM     25  C   UNL     1      -3.442  12.784  20.298  0.00  0.00    +0.000 A 
ENDBRANCH   1  24
BRANCH  11  26
ATOM     26  C   UNL     1       0.043   8.914  20.947  0.00  0.00    +0.000 C 
BRANCH  26  27
ATOM     27  C   UNL     1       1.120   8.075  20.317  0.00  0.00    +0.000 A 
ATOM     28  C   UNL     1       1.751   8.512  19.143  0.00  0.00    +0.000 A 
ATOM     29  C   UNL     1       2.612   7.664  18.450  0.00  0.00    +0.000 A 
ATOM     30  C   UNL     1       2.863   6.383  18.937  0.00  0.00    +0.000 A 
ATOM     31  C   UNL     1       2.295   5.969  20.141  0.00  0.00    +0.000 A 
ATOM     32  C   UNL     1       1.430   6.813  20.834  0.00  0.00    +0.000 A 
ENDBRANCH  26  27
ENDBRANCH  11  26
TORSDOF 3
ENDMDL
MODEL 5
REMARK VINA RESULT:      -6.1     12.030     14.631
REMARK  Name = 
REMARK  5 active torsions:
REMARK  status: ('A' for Active; 'I' for Inactive)
REMARK    1  A    between atoms: C_1  and  C_2
REMARK    2  A    between atoms: C_4  and  C_5
REMARK    3  A    between atoms: C_7  and  N_8
REMARK    4  A    between atoms: N_18  and  C_19
REMARK    5  A    between atoms: C_19  and  C_20
REMARK                            x       y       z     vdW  Elec       q    Type
REMARK                         _______ _______ _______ _____ _____    ______ ____
ROOT
ATOM      1  N   UNL     1      10.640  13.696  18.656  0.00  0.00    +0.000 N 
ATOM      2  C   UNL     1      11.321  12.927  17.735  0.00  0.00    +0.000 C 
ATOM      3  O   UNL     1      12.332  13.277  17.137  0.00  0.00    +0.000 OA
ATOM      4  C   UNL     1      10.686  11.578  17.488  0.00  0.00    +0.000 C 
ATOM      5  S   UNL     1       9.322  11.404  18.593  0.00  0.00    +0.000 S 
ATOM      6  O   UNL     1       9.660  10.374  19.543  0.00  0.00    +0.000 OA
ATOM      7  O   UNL     1       8.129  11.269  17.770  0.00  0.00    +0.000 OA
ATOM      8  C   UNL     1       9.477  13.038  19.278  0.00  0.00    +0.000 C 
ATOM      9  C   UNL     1       9.663  12.959  20.800  0.00  0.00    +0.000 C 
ATOM     10  O   UNL     1      10.573  12.399  21.399  0.00  0.00    +0.000 OA
ATOM     11  N   UNL     1       8.741  13.858  21.368  0.00  0.00    +0.000 N 
ATOM     12  C   UNL     1       7.914  14.425  20.383  0.00  0.00    +0.000 A 
ATOM     13  C   UNL     1       6.995  15.454  20.486  0.00  0.00    +0.000 A 
ATOM     14  C   UNL     1       6.305  15.843  19.328  0.00  0.00    +0.000 A 
ATOM     15  C   UNL     1       6.532  15.203  18.101  0.00  0.00    +0.000 A 
ATOM     16  C   UNL     1       7.512  14.220  17.993  0.00  0.00    +0.000 A 
ATOM     17  C   UNL     1       8.210  13.854  19.140  0.00  0.00    +0.000 A 
ENDROOT
BRANCH   1  24
ATOM     18  C   UNL     1      11.534  16.852  22.238  0.00  0.00    +0.000 C 
ATOM     19  C   UNL     1      11.114  16.601  20.820  0.00  0.00    +0.000 A 
ATOM     20  C   UNL     1      10.324  17.524  20.131  0.00  0.00    +0.000 A 
ATOM     21  C   UNL     1       9.925  17.282  18.808  0.00  0.00    +0.000 A 
ATOM     22  C   UNL     1       9.115  18.313  18.076  0.00  0.00    +0.000 C 
ATOM     23  C   UNL     1      10.245  16.054  18.202  0.00  0.00    +0.000 A 
ATOM     24  C   UNL     1      10.910  15.066  18.939  0.00  0.00    +0.000 A 
ATOM     25  C   UNL     1      11.433  15.390  20.198  0.00  0.00    +0.000 A 
ENDBRANCH   1  24
BRANCH  11  26
ATOM     26  C   UNL     1       8.761  14.199  22.773  0.00  0.00    +0.000 C 
BRANCH  26  27
ATOM     27  C   UNL     1       7.646  13.526  23.524  0.00  0.00    +0.000 A 
ATOM     28  C   UNL     1       6.865  14.263  24.427  0.00  0.00    +0.000 A 
ATOM     29  C   UNL     1       5.957  13.616  25.262  0.00  0.00    +0.000 A 
ATOM     30  C   UNL     1       5.810  12.232  25.185  0.00  0.00    +0.000 A 
ATOM     31  C   UNL     1       6.530  11.504  24.240  0.00  0.00    +0.000 A 
ATOM     32  C   UNL     1       7.443  12.147  23.407  0.00  0.00    +0.000 A 
ENDBRANCH  26  27
ENDBRANCH  11  26
TORSDOF 3
ENDMDL
MODEL 6
REMARK VINA RESULT:      -6.1      2.410      4.612
REMARK  Name = 
REMARK  5 active torsions:
REMARK  status: ('A' for Active; 'I' for Inactive)
REMARK    1  A    between atoms: C_1  and  C_2
REMARK    2  A    between atoms: C_4  and  C_5
REMARK    3  A    between atoms: C_7  and  N_8
REMARK    4  A    between atoms: N_18  and  C_19
REMARK    5  A    between atoms: C_19  and  C_20
REMARK                            x       y       z     vdW  Elec       q    Type
REMARK                         _______ _______ _______ _____ _____    ______ ____
ROOT
ATOM      1  N   UNL     1      -6.348  13.733  19.376  0.00  0.00    +0.000 N 
ATOM      2  C   UNL     1      -7.069  13.493  18.224  0.00  0.00    +0.000 C 
ATOM      3  O   UNL     1      -7.621  14.355  17.548  0.00  0.00    +0.000 OA
ATOM      4  C   UNL     1      -7.154  12.030  17.859  0.00  0.00    +0.000 C 
ATOM      5  S   UNL     1      -6.162  11.122  19.001  0.00  0.00    +0.000 S 
ATOM      6  O   UNL     1      -5.034  10.595  18.276  0.00  0.00    +0.000 OA
ATOM      7  O   UNL     1      -7.058  10.216  19.707  0.00  0.00    +0.000 OA
ATOM      8  C   UNL     1      -5.737  12.539  19.987  0.00  0.00    +0.000 C 
ATOM      9  C   UNL     1      -4.211  12.700  20.054  0.00  0.00    +0.000 C 
ATOM     10  O   UNL     1      -3.450  12.871  19.109  0.00  0.00    +0.000 OA
ATOM     11  N   UNL     1      -3.880  12.866  21.411  0.00  0.00    +0.000 N 
ATOM     12  C   UNL     1      -5.014  12.724  22.230  0.00  0.00    +0.000 A 
ATOM     13  C   UNL     1      -5.161  12.961  23.585  0.00  0.00    +0.000 A 
ATOM     14  C   UNL     1      -6.423  12.755  24.160  0.00  0.00    +0.000 A 
ATOM     15  C   UNL     1      -7.507  12.312  23.387  0.00  0.00    +0.000 A 
ATOM     16  C   UNL     1      -7.366  12.148  22.012  0.00  0.00    +0.000 A 
ATOM     17  C   UNL     1      -6.118  12.377  21.443  0.00  0.00    +0.000 A 
ENDROOT
BRANCH   1  24
ATOM     18  C   UNL     1      -3.257  16.945  21.304  0.00  0.00    +0.000 C 
ATOM     19  C   UNL     1      -4.656  16.415  21.189  0.00  0.00    +0.000 A 
ATOM     20  C   UNL     1      -5.585  16.614  22.212  0.00  0.00    +0.000 A 
ATOM     21  C   UNL     1      -6.889  16.110  22.105  0.00  0.00    +0.000 A 
ATOM     22  C   UNL     1      -7.882  16.380  23.199  0.00  0.00    +0.000 C 
ATOM     23  C   UNL     1      -7.236  15.315  20.999  0.00  0.00    +0.000 A 
ATOM     24  C   UNL     1      -6.264  14.989  20.043  0.00  0.00    +0.000 A 
ATOM     25  C   UNL     1      -5.020  15.631  20.090  0.00  0.00    +0.000 A 
ENDBRANCH   1  24
BRANCH  11  26
ATOM     26  C   UNL     1      -2.552  13.242  21.841  0.00  0.00    +0.000 C 
BRANCH  26  27
ATOM     27  C   UNL     1      -1.648  12.046  21.964  0.00  0.00    +0.000 A 
ATOM     28  C   UNL     1      -0.938  11.587  20.844  0.00  0.00    +0.000 A 
ATOM     29  C   UNL     1      -0.249  10.379  20.895  0.00  0.00    +0.000 A 
ATOM     30  C   UNL     1      -0.248   9.631  22.072  0.00  0.00    +0.000 A 
ATOM     31  C   UNL     1      -0.892  10.117  23.209  0.00  0.00    +0.000 A 
ATOM     32  C   UNL     1      -1.586  11.323  23.159  0.00  0.00    +0.000 A 
ENDBRANCH  26  27
ENDBRANCH  11  26
TORSDOF 3
ENDMDL
MODEL 7
REMARK VINA RESULT:      -6.0      2.948      6.633
REMARK  Name = 
REMARK  5 active torsions:
REMARK  status: ('A' for Active; 'I' for Inactive)
REMARK    1  A    between atoms: C_1  and  C_2
REMARK    2  A    between atoms: C_4  and  C_5
REMARK    3  A    between atoms: C_7  and  N_8
REMARK    4  A    between atoms: N_18  and  C_19
REMARK    5  A    between atoms: C_19  and  C_20
REMARK                            x       y       z     vdW  Elec       q    Type
REMARK                         _______ _______ _______ _____ _____    ______ ____
ROOT
ATOM      1  N   UNL     1      -0.818  13.638  21.184  0.00  0.00    +0.000 N 
ATOM      2  C   UNL     1      -0.749  14.203  22.441  0.00  0.00    +0.000 C 
ATOM      3  O   UNL     1      -0.172  15.251  22.710  0.00  0.00    +0.000 OA
ATOM      4  C   UNL     1      -1.440  13.387  23.508  0.00  0.00    +0.000 C 
ATOM      5  S   UNL     1      -2.227  12.015  22.726  0.00  0.00    +0.000 S 
ATOM      6  O   UNL     1      -3.651  12.211  22.834  0.00  0.00    +0.000 OA
ATOM      7  O   UNL     1      -1.616  10.812  23.272  0.00  0.00    +0.000 OA
ATOM      8  C   UNL     1      -1.609  12.397  21.103  0.00  0.00    +0.000 C 
ATOM      9  C   UNL     1      -2.775  12.575  20.120  0.00  0.00    +0.000 C 
ATOM     10  O   UNL     1      -3.677  13.401  20.195  0.00  0.00    +0.000 OA
ATOM     11  N   UNL     1      -2.478  11.788  18.991  0.00  0.00    +0.000 N 
ATOM     12  C   UNL     1      -1.302  11.044  19.188  0.00  0.00    +0.000 A 
ATOM     13  C   UNL     1      -0.581  10.277  18.291  0.00  0.00    +0.000 A 
ATOM     14  C   UNL     1       0.584   9.644  18.748  0.00  0.00    +0.000 A 
ATOM     15  C   UNL     1       1.005   9.777  20.079  0.00  0.00    +0.000 A 
ATOM     16  C   UNL     1       0.313  10.610  20.954  0.00  0.00    +0.000 A 
ATOM     17  C   UNL     1      -0.828  11.255  20.488  0.00  0.00    +0.000 A 
ENDROOT
BRANCH   1  24
ATOM     18  C   UNL     1       3.624  14.560  19.449  0.00  0.00    +0.000 C 
ATOM     19  C   UNL     1       2.139  14.750  19.350  0.00  0.00    +0.000 A 
ATOM     20  C   UNL     1       1.600  15.870  18.715  0.00  0.00    +0.000 A 
ATOM     21  C   UNL     1       0.212  16.050  18.632  0.00  0.00    +0.000 A 
ATOM     22  C   UNL     1      -0.341  17.240  17.901  0.00  0.00    +0.000 C 
ATOM     23  C   UNL     1      -0.645  15.140  19.277  0.00  0.00    +0.000 A 
ATOM     24  C   UNL     1      -0.104  14.096  20.040  0.00  0.00    +0.000 A 
ATOM     25  C   UNL     1       1.274  13.848  19.976  0.00  0.00    +0.000 A 
ENDBRANCH   1  24
BRANCH  11  26
ATOM     26  C   UNL     1      -3.256  11.860  17.774  0.00  0.00    +0.000 C 
BRANCH  26  27
ATOM     27  C   UNL     1      -4.704  11.541  18.022  0.00  0.00    +0.000 A 
ATOM     28  C   UNL     1      -5.692  12.492  17.721  0.00  0.00    +0.000 A 
ATOM     29  C   UNL     1      -7.011  12.284  18.116  0.00  0.00    +0.000 A 
ATOM     30  C   UNL     1      -7.355  11.118  18.796  0.00  0.00    +0.000 A 
ATOM     31  C   UNL     1      -6.393  10.138  19.034  0.00  0.00    +0.000 A 
ATOM     32  C   UNL     1      -5.072  10.344  18.644  0.00  0.00    +0.000 A 
ENDBRANCH  26  27
ENDBRANCH  11  26
TORSDOF 3
ENDMDL
MODEL 8
REMARK VINA RESULT:      -5.9      2.619      5.559
REMARK  Name = 
REMARK  5 active torsions:
REMARK  status: ('A' for Active; 'I' for Inactive)
REMARK    1  A    between atoms: C_1  and  C_2
REMARK    2  A    between atoms: C_4  and  C_5
REMARK    3  A    between atoms: C_7  and  N_8
REMARK    4  A    between atoms: N_18  and  C_19
REMARK    5  A    between atoms: C_19  and  C_20
REMARK                            x       y       z     vdW  Elec       q    Type
REMARK                         _______ _______ _______ _____ _____    ______ ____
ROOT
ATOM      1  N   UNL     1      -1.418  14.202  22.268  0.00  0.00    +0.000 N 
ATOM      2  C   UNL     1      -0.211  14.790  22.585  0.00  0.00    +0.000 C 
ATOM      3  O   UNL     1       0.891  14.308  22.345  0.00  0.00    +0.000 OA
ATOM      4  C   UNL     1      -0.354  16.111  23.305  0.00  0.00    +0.000 C 
ATOM      5  S   UNL     1      -2.070  16.513  23.377  0.00  0.00    +0.000 S 
ATOM      6  O   UNL     1      -2.285  17.661  22.533  0.00  0.00    +0.000 OA
ATOM      7  O   UNL     1      -2.429  16.571  24.787  0.00  0.00    +0.000 OA
ATOM      8  C   UNL     1      -2.608  14.998  22.617  0.00  0.00    +0.000 C 
ATOM      9  C   UNL     1      -3.432  15.301  21.356  0.00  0.00    +0.000 C 
ATOM     10  O   UNL     1      -3.052  15.907  20.361  0.00  0.00    +0.000 OA
ATOM     11  N   UNL     1      -4.613  14.541  21.450  0.00  0.00    +0.000 N 
ATOM     12  C   UNL     1      -4.684  13.866  22.682  0.00  0.00    +0.000 A 
ATOM     13  C   UNL     1      -5.582  12.907  23.113  0.00  0.00    +0.000 A 
ATOM     14  C   UNL     1      -5.414  12.375  24.399  0.00  0.00    +0.000 A 
ATOM     15  C   UNL     1      -4.372  12.808  25.232  0.00  0.00    +0.000 A 
ATOM     16  C   UNL     1      -3.431  13.720  24.761  0.00  0.00    +0.000 A 
ATOM     17  C   UNL     1      -3.588  14.226  23.475  0.00  0.00    +0.000 A 
ENDROOT
BRANCH   1  24
ATOM     18  C   UNL     1      -0.288   9.542  23.040  0.00  0.00    +0.000 C 
ATOM     19  C   UNL     1      -0.759  10.612  22.101  0.00  0.00    +0.000 A 
ATOM     20  C   UNL     1      -0.597  10.479  20.721  0.00  0.00    +0.000 A 
ATOM     21  C   UNL     1      -1.031  11.486  19.846  0.00  0.00    +0.000 A 
ATOM     22  C   UNL     1      -0.887  11.295  18.363  0.00  0.00    +0.000 C 
ATOM     23  C   UNL     1      -1.549  12.683  20.370  0.00  0.00    +0.000 A 
ATOM     24  C   UNL     1      -1.577  12.882  21.757  0.00  0.00    +0.000 A 
ATOM     25  C   UNL     1      -1.287  11.805  22.606  0.00  0.00    +0.000 A 
ENDBRANCH   1  24
BRANCH  11  26
ATOM     26  C   UNL     1      -5.542  14.420  20.349  0.00  0.00    +0.000 C 
BRANCH  26  27
ATOM     27  C   UNL     1      -5.616  13.008  19.838  0.00  0.00    +0.000 A 
ATOM     28  C   UNL     1      -4.574  12.491  19.054  0.00  0.00    +0.000 A 
ATOM     29  C   UNL     1      -4.714  11.258  18.423  0.00  0.00    +0.000 A 
ATOM     30  C   UNL     1      -5.888  10.525  18.588  0.00  0.00    +0.000 A 
ATOM     31  C   UNL     1      -6.897  10.999  19.423  0.00  0.00    +0.000 A 
ATOM     32  C   UNL     1      -6.762  12.235  20.053  0.00  0.00    +0.000 A 
ENDBRANCH  26  27
ENDBRANCH  11  26
TORSDOF 3
ENDMDL
MODEL 9
REMARK VINA RESULT:      -5.9      2.744      6.176
REMARK  Name = 
REMARK  5 active torsions:
REMARK  status: ('A' for Active; 'I' for Inactive)
REMARK    1  A    between atoms: C_1  and  C_2
REMARK    2  A    between atoms: C_4  and  C_5
REMARK    3  A    between atoms: C_7  and  N_8
REMARK    4  A    between atoms: N_18  and  C_19
REMARK    5  A    between atoms: C_19  and  C_20
REMARK                            x       y       z     vdW  Elec       q    Type
REMARK                         _______ _______ _______ _____ _____    ______ ____
ROOT
ATOM      1  N   UNL     1      -1.236  12.669  21.627  0.00  0.00    +0.000 N 
ATOM      2  C   UNL     1      -0.187  11.827  21.318  0.00  0.00    +0.000 C 
ATOM      3  O   UNL     1       0.371  11.079  22.113  0.00  0.00    +0.000 OA
ATOM      4  C   UNL     1       0.260  11.923  19.878  0.00  0.00    +0.000 C 
ATOM      5  S   UNL     1      -0.835  13.020  19.037  0.00  0.00    +0.000 S 
ATOM      6  O   UNL     1      -1.598  12.238  18.096  0.00  0.00    +0.000 OA
ATOM      7  O   UNL     1      -0.031  14.139  18.567  0.00  0.00    +0.000 OA
ATOM      8  C   UNL     1      -1.771  13.438  20.490  0.00  0.00    +0.000 C 
ATOM      9  C   UNL     1      -3.256  13.108  20.278  0.00  0.00    +0.000 C 
ATOM     10  O   UNL     1      -3.734  12.007  20.035  0.00  0.00    +0.000 OA
ATOM     11  N   UNL     1      -3.984  14.251  20.660  0.00  0.00    +0.000 N 
ATOM     12  C   UNL     1      -3.123  15.311  20.994  0.00  0.00    +0.000 A 
ATOM     13  C   UNL     1      -3.413  16.539  21.562  0.00  0.00    +0.000 A 
ATOM     14  C   UNL     1      -2.351  17.420  21.811  0.00  0.00    +0.000 A 
ATOM     15  C   UNL     1      -1.031  17.072  21.488  0.00  0.00    +0.000 A 
ATOM     16  C   UNL     1      -0.742  15.806  20.985  0.00  0.00    +0.000 A 
ATOM     17  C   UNL     1      -1.798  14.927  20.762  0.00  0.00    +0.000 A 
ENDROOT
BRANCH   1  24
ATOM     18  C   UNL     1      -5.223  12.541  24.398  0.00  0.00    +0.000 C 
ATOM     19  C   UNL     1      -3.826  13.041  24.177  0.00  0.00    +0.000 A 
ATOM     20  C   UNL     1      -3.383  14.223  24.773  0.00  0.00    +0.000 A 
ATOM     21  C   UNL     1      -2.080  14.693  24.556  0.00  0.00    +0.000 A 
ATOM     22  C   UNL     1      -1.615  15.942  25.249  0.00  0.00    +0.000 C 
ATOM     23  C   UNL     1      -1.240  14.016  23.654  0.00  0.00    +0.000 A 
ATOM     24  C   UNL     1      -1.730  12.914  22.940  0.00  0.00    +0.000 A 
ATOM     25  C   UNL     1      -2.975  12.373  23.291  0.00  0.00    +0.000 A 
ENDBRANCH   1  24
BRANCH  11  26
ATOM     26  C   UNL     1      -5.425  14.242  20.782  0.00  0.00    +0.000 C 
BRANCH  26  27
ATOM     27  C   UNL     1      -6.093  14.661  19.502  0.00  0.00    +0.000 A 
ATOM     28  C   UNL     1      -6.473  13.692  18.561  0.00  0.00    +0.000 A 
ATOM     29  C   UNL     1      -6.919  14.075  17.299  0.00  0.00    +0.000 A 
ATOM     30  C   UNL     1      -7.006  15.428  16.976  0.00  0.00    +0.000 A 
ATOM     31  C   UNL     1      -6.699  16.396  17.931  0.00  0.00    +0.000 A 
ATOM     32  C   UNL     1      -6.248  16.016  19.193  0.00  0.00    +0.000 A 
ENDBRANCH  26  27
ENDBRANCH  11  26
TORSDOF 3
ENDMDL
