MODEL 1
REMARK VINA RESULT:      -8.8      0.000      0.000
REMARK  Name = 
REMARK  7 active torsions:
REMARK  status: ('A' for Active; 'I' for Inactive)
REMARK    1  A    between atoms: C_1  and  C_2
REMARK    2  A    between atoms: C_2  and  N_3
REMARK    3  A    between atoms: N_6  and  C_7
REMARK    4  A    between atoms: N_10  and  C_11
REMARK    5  A    between atoms: C_11  and  C_12
REMARK    6  A    between atoms: C_24  and  C_25
REMARK    7  A    between atoms: C_25  and  O_26
REMARK                            x       y       z     vdW  Elec       q    Type
REMARK                         _______ _______ _______ _____ _____    ______ ____
ROOT
ATOM      1  C   UNL     1      -0.070  11.148  19.848  0.00  0.00    +0.000 C 
ATOM      2  C   UNL     1       1.186  11.426  19.021  0.00  0.00    +0.000 C 
ATOM      3  C   UNL     1       1.741  10.197  18.309  0.00  0.00    +0.000 C 
ATOM      4  N   UNL     1       1.788   8.950  19.110  0.00  0.00    +0.000 NA
ATOM      5  C   UNL     1       0.563   8.704  19.895  0.00  0.00    +0.000 C 
ATOM      6  C   UNL     1       0.088   9.893  20.728  0.00  0.00    +0.000 C 
ENDROOT
BRANCH   1  10
ATOM      7  N   UNL     1      -2.871  10.686  17.450  0.00  0.00    +0.000 N 
ATOM      8  C   UNL     1      -1.547  10.415  17.827  0.00  0.00    +0.000 A 
ATOM      9  O   UNL     1      -0.808   9.674  17.196  0.00  0.00    +0.000 OA
ATOM     10  N   UNL     1      -1.299  11.127  19.029  0.00  0.00    +0.000 N 
ATOM     11  C   UNL     1      -2.494  11.792  19.382  0.00  0.00    +0.000 A 
ATOM     12  C   UNL     1      -2.802  12.577  20.476  0.00  0.00    +0.000 A 
ATOM     13  C   UNL     1      -4.100  13.103  20.550  0.00  0.00    +0.000 A 
ATOM     14  C   UNL     1      -5.053  12.836  19.546  0.00  0.00    +0.000 A 
ATOM     15  C   UNL     1      -4.733  12.029  18.454  0.00  0.00    +0.000 A 
ATOM     16  C   UNL     1      -3.453  11.520  18.401  0.00  0.00    +0.000 A 
BRANCH   7  18
ATOM     17  C   UNL     1      -3.281  10.662  15.037  0.00  0.00    +0.000 C 
ATOM     18  C   UNL     1      -3.543   9.997  16.380  0.00  0.00    +0.000 C 
ENDBRANCH   7  18
ENDBRANCH   1  10
BRANCH   4  19
ATOM     19  C   UNL     1       2.004   7.822  18.155  0.00  0.00    +0.000 C 
BRANCH  19  20
ATOM     20  C   UNL     1       3.222   6.907  18.458  0.00  0.00    +0.000 C 
ATOM     21  C   UNL     1       4.177   6.929  17.245  0.00  0.00    +0.000 C 
ATOM     22  C   UNL     1       5.423   6.082  17.455  0.00  0.00    +0.000 C 
ATOM     23  C   UNL     1       5.071   4.665  17.873  0.00  0.00    +0.000 C 
ATOM     24  C   UNL     1       4.189   4.671  19.118  0.00  0.00    +0.000 C 
ATOM     25  C   UNL     1       2.851   5.447  18.926  0.00  0.00    +0.000 C 
ATOM     26  C   UNL     1       1.920   4.734  17.911  0.00  0.00    +0.000 C 
ATOM     27  C   UNL     1       1.461   3.352  18.380  0.00  0.00    +0.000 C 
ATOM     28  C   UNL     1       0.756   3.433  19.728  0.00  0.00    +0.000 C 
ATOM     29  C   UNL     1       1.615   4.123  20.783  0.00  0.00    +0.000 C 
ATOM     30  C   UNL     1       2.116   5.489  20.305  0.00  0.00    +0.000 C 
ENDBRANCH  19  20
ENDBRANCH   4  19
BRANCH   6  31
ATOM     31  C   UNL     1       1.030  10.099  21.934  0.00  0.00    +0.000 C 
BRANCH  31  32
ATOM     32  O   UNL     1       1.807   8.956  22.267  0.00  0.00    +0.000 OA
ATOM     33  H   UNL     1       2.516   8.881  21.589  0.00  0.00    +0.000 HD
ENDBRANCH  31  32
ENDBRANCH   6  31
TORSDOF 6
ENDMDL
MODEL 2
REMARK VINA RESULT:      -7.8      1.131      1.343
REMARK  Name = 
REMARK  7 active torsions:
REMARK  status: ('A' for Active; 'I' for Inactive)
REMARK    1  A    between atoms: C_1  and  C_2
REMARK    2  A    between atoms: C_2  and  N_3
REMARK    3  A    between atoms: N_6  and  C_7
REMARK    4  A    between atoms: N_10  and  C_11
REMARK    5  A    between atoms: C_11  and  C_12
REMARK    6  A    between atoms: C_24  and  C_25
REMARK    7  A    between atoms: C_25  and  O_26
REMARK                            x       y       z     vdW  Elec       q    Type
REMARK                         _______ _______ _______ _____ _____    ______ ____
ROOT
ATOM      1  C   UNL     1      -0.209  11.192  21.313  0.00  0.00    +0.000 C 
ATOM      2  C   UNL     1       1.128  11.454  20.619  0.00  0.00    +0.000 C 
ATOM      3  C   UNL     1       1.546  10.353  19.648  0.00  0.00    +0.000 C 
ATOM      4  N   UNL     1       1.355   8.962  20.125  0.00  0.00    +0.000 NA
ATOM      5  C   UNL     1       0.056   8.736  20.787  0.00  0.00    +0.000 C 
ATOM      6  C   UNL     1      -0.297   9.756  21.867  0.00  0.00    +0.000 C 
ENDROOT
BRANCH   1  10
ATOM      7  N   UNL     1      -2.842  11.807  18.763  0.00  0.00    +0.000 N 
ATOM      8  C   UNL     1      -1.578  11.298  19.094  0.00  0.00    +0.000 A 
ATOM      9  O   UNL     1      -0.853  10.728  18.292  0.00  0.00    +0.000 OA
ATOM     10  N   UNL     1      -1.368  11.557  20.474  0.00  0.00    +0.000 N 
ATOM     11  C   UNL     1      -2.531  12.192  20.966  0.00  0.00    +0.000 A 
ATOM     12  C   UNL     1      -2.860  12.611  22.240  0.00  0.00    +0.000 A 
ATOM     13  C   UNL     1      -4.113  13.213  22.419  0.00  0.00    +0.000 A 
ATOM     14  C   UNL     1      -5.003  13.379  21.338  0.00  0.00    +0.000 A 
ATOM     15  C   UNL     1      -4.665  12.937  20.059  0.00  0.00    +0.000 A 
ATOM     16  C   UNL     1      -3.429  12.346  19.905  0.00  0.00    +0.000 A 
BRANCH   7  18
ATOM     17  C   UNL     1      -4.224  10.241  17.486  0.00  0.00    +0.000 C 
ATOM     18  C   UNL     1      -3.481  11.568  17.496  0.00  0.00    +0.000 C 
ENDBRANCH   7  18
ENDBRANCH   1  10
BRANCH   4  19
ATOM     19  C   UNL     1       1.470   8.070  18.933  0.00  0.00    +0.000 C 
BRANCH  19  20
ATOM     20  C   UNL     1       2.787   7.253  18.827  0.00  0.00    +0.000 C 
ATOM     21  C   UNL     1       3.484   7.598  17.493  0.00  0.00    +0.000 C 
ATOM     22  C   UNL     1       4.805   6.867  17.307  0.00  0.00    +0.000 C 
ATOM     23  C   UNL     1       4.645   5.368  17.492  0.00  0.00    +0.000 C 
ATOM     24  C   UNL     1       4.024   5.052  18.848  0.00  0.00    +0.000 C 
ATOM     25  C   UNL     1       2.621   5.701  19.055  0.00  0.00    +0.000 C 
ATOM     26  C   UNL     1       1.564   5.087  18.098  0.00  0.00    +0.000 C 
ATOM     27  C   UNL     1       1.308   3.601  18.357  0.00  0.00    +0.000 C 
ATOM     28  C   UNL     1       0.873   3.359  19.798  0.00  0.00    +0.000 C 
ATOM     29  C   UNL     1       1.869   3.935  20.800  0.00  0.00    +0.000 C 
ATOM     30  C   UNL     1       2.167   5.412  20.522  0.00  0.00    +0.000 C 
ENDBRANCH  19  20
ENDBRANCH   4  19
BRANCH   6  31
ATOM     31  C   UNL     1       0.578   9.522  23.117  0.00  0.00    +0.000 C 
BRANCH  31  32
ATOM     32  O   UNL     1       1.939   9.232  22.827  0.00  0.00    +0.000 OA
ATOM     33  H   UNL     1       2.277   8.669  23.561  0.00  0.00    +0.000 HD
ENDBRANCH  31  32
ENDBRANCH   6  31
TORSDOF 6
ENDMDL
MODEL 3
REMARK VINA RESULT:      -7.4      2.508      4.779
REMARK  Name = 
REMARK  7 active torsions:
REMARK  status: ('A' for Active; 'I' for Inactive)
REMARK    1  A    between atoms: C_1  and  C_2
REMARK    2  A    between atoms: C_2  and  N_3
REMARK    3  A    between atoms: N_6  and  C_7
REMARK    4  A    between atoms: N_10  and  C_11
REMARK    5  A    between atoms: C_11  and  C_12
REMARK    6  A    between atoms: C_24  and  C_25
REMARK    7  A    between atoms: C_25  and  O_26
REMARK                            x       y       z     vdW  Elec       q    Type
REMARK                         _______ _______ _______ _____ _____    ______ ____
ROOT
ATOM      1  C   UNL     1       0.038  10.988  19.379  0.00  0.00    +0.000 C 
ATOM      2  C   UNL     1       0.098   9.942  20.494  0.00  0.00    +0.000 C 
ATOM      3  C   UNL     1       1.222   8.924  20.326  0.00  0.00    +0.000 C 
ATOM      4  N   UNL     1       1.409   8.386  18.956  0.00  0.00    +0.000 NA
ATOM      5  C   UNL     1       1.350   9.416  17.902  0.00  0.00    +0.000 C 
ATOM      6  C   UNL     1       0.142  10.345  17.983  0.00  0.00    +0.000 C 
ENDROOT
BRANCH   1  10
ATOM      7  N   UNL     1       2.731  13.549  19.384  0.00  0.00    +0.000 N 
ATOM      8  C   UNL     1       2.173  12.386  18.835  0.00  0.00    +0.000 A 
ATOM      9  O   UNL     1       2.652  11.800  17.875  0.00  0.00    +0.000 OA
ATOM     10  N   UNL     1       1.001  12.090  19.579  0.00  0.00    +0.000 N 
ATOM     11  C   UNL     1       0.850  13.105  20.551  0.00  0.00    +0.000 A 
ATOM     12  C   UNL     1      -0.139  13.313  21.492  0.00  0.00    +0.000 A 
ATOM     13  C   UNL     1      -0.012  14.433  22.326  0.00  0.00    +0.000 A 
ATOM     14  C   UNL     1       1.082  15.313  22.203  0.00  0.00    +0.000 A 
ATOM     15  C   UNL     1       2.066  15.100  21.238  0.00  0.00    +0.000 A 
ATOM     16  C   UNL     1       1.922  13.994  20.426  0.00  0.00    +0.000 A 
BRANCH   7  18
ATOM     17  C   UNL     1       3.336  15.271  17.752  0.00  0.00    +0.000 C 
ATOM     18  C   UNL     1       3.826  14.260  18.779  0.00  0.00    +0.000 C 
ENDBRANCH   7  18
ENDBRANCH   1  10
BRANCH   4  19
ATOM     19  C   UNL     1       2.743   7.716  18.927  0.00  0.00    +0.000 C 
BRANCH  19  20
ATOM     20  C   UNL     1       2.847   6.460  18.018  0.00  0.00    +0.000 C 
ATOM     21  C   UNL     1       1.831   5.405  18.506  0.00  0.00    +0.000 C 
ATOM     22  C   UNL     1       1.834   4.142  17.657  0.00  0.00    +0.000 C 
ATOM     23  C   UNL     1       3.232   3.563  17.522  0.00  0.00    +0.000 C 
ATOM     24  C   UNL     1       4.198   4.605  16.967  0.00  0.00    +0.000 C 
ATOM     25  C   UNL     1       4.306   5.884  17.851  0.00  0.00    +0.000 C 
ATOM     26  C   UNL     1       4.964   5.574  19.222  0.00  0.00    +0.000 C 
ATOM     27  C   UNL     1       6.415   5.105  19.101  0.00  0.00    +0.000 C 
ATOM     28  C   UNL     1       7.267   6.130  18.362  0.00  0.00    +0.000 C 
ATOM     29  C   UNL     1       6.681   6.484  16.999  0.00  0.00    +0.000 C 
ATOM     30  C   UNL     1       5.214   6.913  17.103  0.00  0.00    +0.000 C 
ENDBRANCH  19  20
ENDBRANCH   4  19
BRANCH   6  31
ATOM     31  C   UNL     1      -1.134   9.587  17.557  0.00  0.00    +0.000 C 
BRANCH  31  32
ATOM     32  O   UNL     1      -1.880  10.232  16.533  0.00  0.00    +0.000 OA
ATOM     33  H   UNL     1      -2.727  10.528  16.936  0.00  0.00    +0.000 HD
ENDBRANCH  31  32
ENDBRANCH   6  31
TORSDOF 6
ENDMDL
MODEL 4
REMARK VINA RESULT:      -6.8      1.788      3.370
REMARK  Name = 
REMARK  7 active torsions:
REMARK  status: ('A' for Active; 'I' for Inactive)
REMARK    1  A    between atoms: C_1  and  C_2
REMARK    2  A    between atoms: C_2  and  N_3
REMARK    3  A    between atoms: N_6  and  C_7
REMARK    4  A    between atoms: N_10  and  C_11
REMARK    5  A    between atoms: C_11  and  C_12
REMARK    6  A    between atoms: C_24  and  C_25
REMARK    7  A    between atoms: C_25  and  O_26
REMARK                            x       y       z     vdW  Elec       q    Type
REMARK                         _______ _______ _______ _____ _____    ______ ____
ROOT
ATOM      1  C   UNL     1      -0.293  12.208  18.848  0.00  0.00    +0.000 C 
ATOM      2  C   UNL     1      -0.816  11.113  17.917  0.00  0.00    +0.000 C 
ATOM      3  C   UNL     1      -0.358   9.709  18.297  0.00  0.00    +0.000 C 
ATOM      4  N   UNL     1       1.069   9.573  18.678  0.00  0.00    +0.000 NA
ATOM      5  C   UNL     1       1.546  10.639  19.579  0.00  0.00    +0.000 C 
ATOM      6  C   UNL     1       1.216  12.058  19.121  0.00  0.00    +0.000 C 
ENDROOT
BRANCH   1  10
ATOM      7  N   UNL     1      -1.773  12.617  22.232  0.00  0.00    +0.000 N 
ATOM      8  C   UNL     1      -0.637  12.515  21.416  0.00  0.00    +0.000 A 
ATOM      9  O   UNL     1       0.505  12.597  21.843  0.00  0.00    +0.000 OA
ATOM     10  N   UNL     1      -1.092  12.334  20.084  0.00  0.00    +0.000 N 
ATOM     11  C   UNL     1      -2.504  12.365  20.111  0.00  0.00    +0.000 A 
ATOM     12  C   UNL     1      -3.429  12.282  19.088  0.00  0.00    +0.000 A 
ATOM     13  C   UNL     1      -4.786  12.351  19.436  0.00  0.00    +0.000 A 
ATOM     14  C   UNL     1      -5.187  12.503  20.780  0.00  0.00    +0.000 A 
ATOM     15  C   UNL     1      -4.242  12.601  21.801  0.00  0.00    +0.000 A 
ATOM     16  C   UNL     1      -2.914  12.533  21.438  0.00  0.00    +0.000 A 
BRANCH   7  18
ATOM     17  C   UNL     1      -1.710  14.500  23.795  0.00  0.00    +0.000 C 
ATOM     18  C   UNL     1      -1.716  12.989  23.621  0.00  0.00    +0.000 C 
ENDBRANCH   7  18
ENDBRANCH   1  10
BRANCH   4  19
ATOM     19  C   UNL     1       1.220   8.247  19.349  0.00  0.00    +0.000 C 
BRANCH  19  20
ATOM     20  C   UNL     1       2.564   7.512  19.093  0.00  0.00    +0.000 C 
ATOM     21  C   UNL     1       3.086   7.897  17.692  0.00  0.00    +0.000 C 
ATOM     22  C   UNL     1       4.420   7.247  17.356  0.00  0.00    +0.000 C 
ATOM     23  C   UNL     1       4.373   5.741  17.550  0.00  0.00    +0.000 C 
ATOM     24  C   UNL     1       3.928   5.391  18.966  0.00  0.00    +0.000 C 
ATOM     25  C   UNL     1       2.519   5.953  19.330  0.00  0.00    +0.000 C 
ATOM     26  C   UNL     1       1.402   5.274  18.495  0.00  0.00    +0.000 C 
ATOM     27  C   UNL     1       1.268   3.775  18.773  0.00  0.00    +0.000 C 
ATOM     28  C   UNL     1       1.012   3.510  20.252  0.00  0.00    +0.000 C 
ATOM     29  C   UNL     1       2.076   4.148  21.140  0.00  0.00    +0.000 C 
ATOM     30  C   UNL     1       2.250   5.640  20.837  0.00  0.00    +0.000 C 
ENDBRANCH  19  20
ENDBRANCH   4  19
BRANCH   6  31
ATOM     31  C   UNL     1       2.102  12.440  17.915  0.00  0.00    +0.000 C 
BRANCH  31  32
ATOM     32  O   UNL     1       2.591  11.327  17.178  0.00  0.00    +0.000 OA
ATOM     33  H   UNL     1       1.817  10.913  16.732  0.00  0.00    +0.000 HD
ENDBRANCH  31  32
ENDBRANCH   6  31
TORSDOF 6
ENDMDL
MODEL 5
REMARK VINA RESULT:      -6.8      1.219      1.406
REMARK  Name = 
REMARK  7 active torsions:
REMARK  status: ('A' for Active; 'I' for Inactive)
REMARK    1  A    between atoms: C_1  and  C_2
REMARK    2  A    between atoms: C_2  and  N_3
REMARK    3  A    between atoms: N_6  and  C_7
REMARK    4  A    between atoms: N_10  and  C_11
REMARK    5  A    between atoms: C_11  and  C_12
REMARK    6  A    between atoms: C_24  and  C_25
REMARK    7  A    between atoms: C_25  and  O_26
REMARK                            x       y       z     vdW  Elec       q    Type
REMARK                         _______ _______ _______ _____ _____    ______ ____
ROOT
ATOM      1  C   UNL     1      -0.527  11.281  20.066  0.00  0.00    +0.000 C 
ATOM      2  C   UNL     1       0.881  10.981  19.547  0.00  0.00    +0.000 C 
ATOM      3  C   UNL     1       1.221   9.495  19.508  0.00  0.00    +0.000 C 
ATOM      4  N   UNL     1       0.815   8.706  20.697  0.00  0.00    +0.000 NA
ATOM      5  C   UNL     1      -0.547   9.012  21.174  0.00  0.00    +0.000 C 
ATOM      6  C   UNL     1      -0.841  10.499  21.356  0.00  0.00    +0.000 C 
ENDROOT
BRANCH   1  10
ATOM      7  N   UNL     1      -2.756  10.474  17.204  0.00  0.00    +0.000 N 
ATOM      8  C   UNL     1      -1.518  10.330  17.848  0.00  0.00    +0.000 A 
ATOM      9  O   UNL     1      -0.619   9.621  17.422  0.00  0.00    +0.000 OA
ATOM     10  N   UNL     1      -1.563  11.119  19.027  0.00  0.00    +0.000 N 
ATOM     11  C   UNL     1      -2.848  11.703  19.096  0.00  0.00    +0.000 A 
ATOM     12  C   UNL     1      -3.421  12.515  20.056  0.00  0.00    +0.000 A 
ATOM     13  C   UNL     1      -4.740  12.938  19.842  0.00  0.00    +0.000 A 
ATOM     14  C   UNL     1      -5.454  12.544  18.691  0.00  0.00    +0.000 A 
ATOM     15  C   UNL     1      -4.869  11.712  17.737  0.00  0.00    +0.000 A 
ATOM     16  C   UNL     1      -3.572  11.305  17.967  0.00  0.00    +0.000 A 
BRANCH   7  18
ATOM     17  C   UNL     1      -3.023  10.460  14.771  0.00  0.00    +0.000 C 
ATOM     18  C   UNL     1      -3.152   9.681  16.071  0.00  0.00    +0.000 C 
ENDBRANCH   7  18
ENDBRANCH   1  10
BRANCH   4  19
ATOM     19  C   UNL     1       0.899   7.264  20.317  0.00  0.00    +0.000 C 
BRANCH  19  20
ATOM     20  C   UNL     1       2.275   6.790  19.772  0.00  0.00    +0.000 C 
ATOM     21  C   UNL     1       2.502   7.416  18.378  0.00  0.00    +0.000 C 
ATOM     22  C   UNL     1       3.842   7.034  17.768  0.00  0.00    +0.000 C 
ATOM     23  C   UNL     1       4.041   5.528  17.753  0.00  0.00    +0.000 C 
ATOM     24  C   UNL     1       3.885   4.947  19.154  0.00  0.00    +0.000 C 
ATOM     25  C   UNL     1       2.490   5.228  19.791  0.00  0.00    +0.000 C 
ATOM     26  C   UNL     1       1.359   4.480  19.036  0.00  0.00    +0.000 C 
ATOM     27  C   UNL     1       1.485   2.957  19.118  0.00  0.00    +0.000 C 
ATOM     28  C   UNL     1       1.513   2.483  20.566  0.00  0.00    +0.000 C 
ATOM     29  C   UNL     1       2.606   3.176  21.374  0.00  0.00    +0.000 C 
ATOM     30  C   UNL     1       2.516   4.701  21.262  0.00  0.00    +0.000 C 
ENDBRANCH  19  20
ENDBRANCH   4  19
BRANCH   6  31
ATOM     31  C   UNL     1      -0.097  11.034  22.599  0.00  0.00    +0.000 C 
BRANCH  31  32
ATOM     32  O   UNL     1      -0.409  12.381  22.929  0.00  0.00    +0.000 OA
ATOM     33  H   UNL     1      -0.582  12.853  22.083  0.00  0.00    +0.000 HD
ENDBRANCH  31  32
ENDBRANCH   6  31
TORSDOF 6
ENDMDL
MODEL 6
REMARK VINA RESULT:      -6.7      1.361      2.441
REMARK  Name = 
REMARK  7 active torsions:
REMARK  status: ('A' for Active; 'I' for Inactive)
REMARK    1  A    between atoms: C_1  and  C_2
REMARK    2  A    between atoms: C_2  and  N_3
REMARK    3  A    between atoms: N_6  and  C_7
REMARK    4  A    between atoms: N_10  and  C_11
REMARK    5  A    between atoms: C_11  and  C_12
REMARK    6  A    between atoms: C_24  and  C_25
REMARK    7  A    between atoms: C_25  and  O_26
REMARK                            x       y       z     vdW  Elec       q    Type
REMARK                         _______ _______ _______ _____ _____    ______ ____
ROOT
ATOM      1  C   UNL     1      -0.654  11.652  20.343  0.00  0.00    +0.000 C 
ATOM      2  C   UNL     1       0.541  11.906  19.423  0.00  0.00    +0.000 C 
ATOM      3  C   UNL     1       1.043  10.659  18.703  0.00  0.00    +0.000 C 
ATOM      4  N   UNL     1       1.144   9.430  19.528  0.00  0.00    +0.000 NA
ATOM      5  C   UNL     1      -0.022   9.208  20.403  0.00  0.00    +0.000 C 
ATOM      6  C   UNL     1      -0.435  10.417  21.238  0.00  0.00    +0.000 C 
ENDROOT
BRANCH   1  10
ATOM      7  N   UNL     1      -4.071  11.961  18.916  0.00  0.00    +0.000 N 
ATOM      8  C   UNL     1      -3.152  12.277  19.927  0.00  0.00    +0.000 A 
ATOM      9  O   UNL     1      -3.416  13.013  20.867  0.00  0.00    +0.000 OA
ATOM     10  N   UNL     1      -1.937  11.615  19.613  0.00  0.00    +0.000 N 
ATOM     11  C   UNL     1      -2.131  10.933  18.391  0.00  0.00    +0.000 A 
ATOM     12  C   UNL     1      -1.259  10.180  17.629  0.00  0.00    +0.000 A 
ATOM     13  C   UNL     1      -1.752   9.626  16.440  0.00  0.00    +0.000 A 
ATOM     14  C   UNL     1      -3.088   9.834  16.037  0.00  0.00    +0.000 A 
ATOM     15  C   UNL     1      -3.954  10.610  16.809  0.00  0.00    +0.000 A 
ATOM     16  C   UNL     1      -3.448  11.147  17.973  0.00  0.00    +0.000 A 
BRANCH   7  18
ATOM     17  C   UNL     1      -6.470  11.710  19.333  0.00  0.00    +0.000 C 
ATOM     18  C   UNL     1      -5.357  12.595  18.793  0.00  0.00    +0.000 C 
ENDBRANCH   7  18
ENDBRANCH   1  10
BRANCH   4  19
ATOM     19  C   UNL     1       1.291   8.280  18.587  0.00  0.00    +0.000 C 
BRANCH  19  20
ATOM     20  C   UNL     1       2.644   7.520  18.657  0.00  0.00    +0.000 C 
ATOM     21  C   UNL     1       3.418   7.756  17.342  0.00  0.00    +0.000 C 
ATOM     22  C   UNL     1       4.777   7.074  17.323  0.00  0.00    +0.000 C 
ATOM     23  C   UNL     1       4.665   5.596  17.659  0.00  0.00    +0.000 C 
ATOM     24  C   UNL     1       3.965   5.396  18.998  0.00  0.00    +0.000 C 
ATOM     25  C   UNL     1       2.525   5.995  19.041  0.00  0.00    +0.000 C 
ATOM     26  C   UNL     1       1.564   5.234  18.090  0.00  0.00    +0.000 C 
ATOM     27  C   UNL     1       1.351   3.773  18.492  0.00  0.00    +0.000 C 
ATOM     28  C   UNL     1       0.827   3.663  19.919  0.00  0.00    +0.000 C 
ATOM     29  C   UNL     1       1.725   4.390  20.915  0.00  0.00    +0.000 C 
ATOM     30  C   UNL     1       1.982   5.841  20.498  0.00  0.00    +0.000 C 
ENDBRANCH  19  20
ENDBRANCH   4  19
BRANCH   6  31
ATOM     31  C   UNL     1       0.589  10.648  22.370  0.00  0.00    +0.000 C 
BRANCH  31  32
ATOM     32  O   UNL     1       1.497   9.571  22.562  0.00  0.00    +0.000 OA
ATOM     33  H   UNL     1       1.186   8.828  21.997  0.00  0.00    +0.000 HD
ENDBRANCH  31  32
ENDBRANCH   6  31
TORSDOF 6
ENDMDL
MODEL 7
REMARK VINA RESULT:      -6.7      4.830      7.202
REMARK  Name = 
REMARK  7 active torsions:
REMARK  status: ('A' for Active; 'I' for Inactive)
REMARK    1  A    between atoms: C_1  and  C_2
REMARK    2  A    between atoms: C_2  and  N_3
REMARK    3  A    between atoms: N_6  and  C_7
REMARK    4  A    between atoms: N_10  and  C_11
REMARK    5  A    between atoms: C_11  and  C_12
REMARK    6  A    between atoms: C_24  and  C_25
REMARK    7  A    between atoms: C_25  and  O_26
REMARK                            x       y       z     vdW  Elec       q    Type
REMARK                         _______ _______ _______ _____ _____    ______ ____
ROOT
ATOM      1  C   UNL     1      -6.126  14.176  22.096  0.00  0.00    +0.000 C 
ATOM      2  C   UNL     1      -5.232  15.324  22.569  0.00  0.00    +0.000 C 
ATOM      3  C   UNL     1      -3.741  15.001  22.531  0.00  0.00    +0.000 C 
ATOM      4  N   UNL     1      -3.355  13.662  23.039  0.00  0.00    +0.000 NA
ATOM      5  C   UNL     1      -4.231  12.574  22.565  0.00  0.00    +0.000 C 
ATOM      6  C   UNL     1      -5.726  12.835  22.739  0.00  0.00    +0.000 C 
ENDROOT
BRANCH   1  10
ATOM      7  N   UNL     1      -6.336  13.393  18.469  0.00  0.00    +0.000 N 
ATOM      8  C   UNL     1      -6.140  12.959  19.788  0.00  0.00    +0.000 A 
ATOM      9  O   UNL     1      -5.955  11.789  20.089  0.00  0.00    +0.000 OA
ATOM     10  N   UNL     1      -6.227  14.102  20.624  0.00  0.00    +0.000 N 
ATOM     11  C   UNL     1      -6.511  15.211  19.796  0.00  0.00    +0.000 A 
ATOM     12  C   UNL     1      -6.736  16.538  20.108  0.00  0.00    +0.000 A 
ATOM     13  C   UNL     1      -7.003  17.415  19.048  0.00  0.00    +0.000 A 
ATOM     14  C   UNL     1      -7.043  16.958  17.715  0.00  0.00    +0.000 A 
ATOM     15  C   UNL     1      -6.828  15.612  17.415  0.00  0.00    +0.000 A 
ATOM     16  C   UNL     1      -6.570  14.765  18.472  0.00  0.00    +0.000 A 
BRANCH   7  18
ATOM     17  C   UNL     1      -5.162  11.956  16.872  0.00  0.00    +0.000 C 
ATOM     18  C   UNL     1      -6.500  12.492  17.359  0.00  0.00    +0.000 C 
ENDBRANCH   7  18
ENDBRANCH   1  10
BRANCH   4  19
ATOM     19  C   UNL     1      -1.954  13.409  22.588  0.00  0.00    +0.000 C 
BRANCH  19  20
ATOM     20  C   UNL     1      -1.663  11.975  22.066  0.00  0.00    +0.000 C 
ATOM     21  C   UNL     1      -0.986  11.162  23.191  0.00  0.00    +0.000 C 
ATOM     22  C   UNL     1      -0.685   9.726  22.787  0.00  0.00    +0.000 C 
ATOM     23  C   UNL     1       0.102   9.664  21.489  0.00  0.00    +0.000 C 
ATOM     24  C   UNL     1      -0.627  10.411  20.377  0.00  0.00    +0.000 C 
ATOM     25  C   UNL     1      -0.877  11.916  20.700  0.00  0.00    +0.000 C 
ATOM     26  C   UNL     1       0.453  12.712  20.765  0.00  0.00    +0.000 C 
ATOM     27  C   UNL     1       1.195  12.757  19.428  0.00  0.00    +0.000 C 
ATOM     28  C   UNL     1       0.318  13.345  18.329  0.00  0.00    +0.000 C 
ATOM     29  C   UNL     1      -1.013  12.608  18.204  0.00  0.00    +0.000 C 
ATOM     30  C   UNL     1      -1.743  12.520  19.548  0.00  0.00    +0.000 C 
ENDBRANCH  19  20
ENDBRANCH   4  19
BRANCH   6  31
ATOM     31  C   UNL     1      -6.107  12.728  24.231  0.00  0.00    +0.000 C 
BRANCH  31  32
ATOM     32  O   UNL     1      -5.139  12.064  25.033  0.00  0.00    +0.000 OA
ATOM     33  H   UNL     1      -4.458  11.700  24.422  0.00  0.00    +0.000 HD
ENDBRANCH  31  32
ENDBRANCH   6  31
TORSDOF 6
ENDMDL
MODEL 8
REMARK VINA RESULT:      -6.7      3.933      8.826
REMARK  Name = 
REMARK  7 active torsions:
REMARK  status: ('A' for Active; 'I' for Inactive)
REMARK    1  A    between atoms: C_1  and  C_2
REMARK    2  A    between atoms: C_2  and  N_3
REMARK    3  A    between atoms: N_6  and  C_7
REMARK    4  A    between atoms: N_10  and  C_11
REMARK    5  A    between atoms: C_11  and  C_12
REMARK    6  A    between atoms: C_24  and  C_25
REMARK    7  A    between atoms: C_25  and  O_26
REMARK                            x       y       z     vdW  Elec       q    Type
REMARK                         _______ _______ _______ _____ _____    ______ ____
ROOT
ATOM      1  C   UNL     1       3.820   3.502  17.704  0.00  0.00    +0.000 C 
ATOM      2  C   UNL     1       2.486   4.136  17.309  0.00  0.00    +0.000 C 
ATOM      3  C   UNL     1       1.966   5.159  18.314  0.00  0.00    +0.000 C 
ATOM      4  N   UNL     1       2.072   4.775  19.743  0.00  0.00    +0.000 NA
ATOM      5  C   UNL     1       3.370   4.170  20.098  0.00  0.00    +0.000 C 
ATOM      6  C   UNL     1       3.823   3.041  19.175  0.00  0.00    +0.000 C 
ENDROOT
BRANCH   1  10
ATOM      7  N   UNL     1       6.744   5.780  17.441  0.00  0.00    +0.000 N 
ATOM      8  C   UNL     1       5.716   5.221  18.213  0.00  0.00    +0.000 A 
ATOM      9  O   UNL     1       5.558   5.467  19.399  0.00  0.00    +0.000 OA
ATOM     10  N   UNL     1       4.978   4.353  17.366  0.00  0.00    +0.000 N 
ATOM     11  C   UNL     1       5.598   4.375  16.096  0.00  0.00    +0.000 A 
ATOM     12  C   UNL     1       5.307   3.681  14.937  0.00  0.00    +0.000 A 
ATOM     13  C   UNL     1       6.122   3.917  13.821  0.00  0.00    +0.000 A 
ATOM     14  C   UNL     1       7.199   4.825  13.883  0.00  0.00    +0.000 A 
ATOM     15  C   UNL     1       7.491   5.508  15.064  0.00  0.00    +0.000 A 
ATOM     16  C   UNL     1       6.679   5.260  16.151  0.00  0.00    +0.000 A 
BRANCH   7  18
ATOM     17  C   UNL     1       7.715   8.024  17.564  0.00  0.00    +0.000 C 
ATOM     18  C   UNL     1       7.810   6.569  18.000  0.00  0.00    +0.000 C 
ENDBRANCH   7  18
ENDBRANCH   1  10
BRANCH   4  19
ATOM     19  C   UNL     1       1.863   6.016  20.547  0.00  0.00    +0.000 C 
BRANCH  19  20
ATOM     20  C   UNL     1       1.386   7.262  19.751  0.00  0.00    +0.000 C 
ATOM     21  C   UNL     1       2.507   7.693  18.780  0.00  0.00    +0.000 C 
ATOM     22  C   UNL     1       2.124   8.894  17.929  0.00  0.00    +0.000 C 
ATOM     23  C   UNL     1       1.638  10.052  18.783  0.00  0.00    +0.000 C 
ATOM     24  C   UNL     1       0.482   9.618  19.677  0.00  0.00    +0.000 C 
ATOM     25  C   UNL     1       0.849   8.448  20.642  0.00  0.00    +0.000 C 
ATOM     26  C   UNL     1       1.891   8.891  21.702  0.00  0.00    +0.000 C 
ATOM     27  C   UNL     1       1.366   9.975  22.646  0.00  0.00    +0.000 C 
ATOM     28  C   UNL     1       0.096   9.521  23.357  0.00  0.00    +0.000 C 
ATOM     29  C   UNL     1      -0.979   9.071  22.373  0.00  0.00    +0.000 C 
ATOM     30  C   UNL     1      -0.451   8.017  21.394  0.00  0.00    +0.000 C 
ENDBRANCH  19  20
ENDBRANCH   4  19
BRANCH   6  31
ATOM     31  C   UNL     1       2.967   1.781  19.428  0.00  0.00    +0.000 C 
BRANCH  31  32
ATOM     32  O   UNL     1       1.751   2.032  20.119  0.00  0.00    +0.000 OA
ATOM     33  H   UNL     1       1.179   1.241  19.995  0.00  0.00    +0.000 HD
ENDBRANCH  31  32
ENDBRANCH   6  31
TORSDOF 6
ENDMDL
MODEL 9
REMARK VINA RESULT:      -6.6      2.258      3.911
REMARK  Name = 
REMARK  7 active torsions:
REMARK  status: ('A' for Active; 'I' for Inactive)
REMARK    1  A    between atoms: C_1  and  C_2
REMARK    2  A    between atoms: C_2  and  N_3
REMARK    3  A    between atoms: N_6  and  C_7
REMARK    4  A    between atoms: N_10  and  C_11
REMARK    5  A    between atoms: C_11  and  C_12
REMARK    6  A    between atoms: C_24  and  C_25
REMARK    7  A    between atoms: C_25  and  O_26
REMARK                            x       y       z     vdW  Elec       q    Type
REMARK                         _______ _______ _______ _____ _____    ______ ____
ROOT
ATOM      1  C   UNL     1       0.022  12.240  19.072  0.00  0.00    +0.000 C 
ATOM      2  C   UNL     1      -0.700  11.553  17.912  0.00  0.00    +0.000 C 
ATOM      3  C   UNL     1      -0.380  10.068  17.778  0.00  0.00    +0.000 C 
ATOM      4  N   UNL     1       1.048   9.696  17.929  0.00  0.00    +0.000 NA
ATOM      5  C   UNL     1       1.719  10.370  19.057  0.00  0.00    +0.000 C 
ATOM      6  C   UNL     1       1.521  11.883  19.107  0.00  0.00    +0.000 C 
ENDROOT
BRANCH   1  10
ATOM      7  N   UNL     1      -2.082  12.097  22.131  0.00  0.00    +0.000 N 
ATOM      8  C   UNL     1      -1.813  12.664  20.877  0.00  0.00    +0.000 A 
ATOM      9  O   UNL     1      -2.508  13.532  20.370  0.00  0.00    +0.000 OA
ATOM     10  N   UNL     1      -0.651  12.027  20.369  0.00  0.00    +0.000 N 
ATOM     11  C   UNL     1      -0.255  11.053  21.313  0.00  0.00    +0.000 A 
ATOM     12  C   UNL     1       0.777  10.135  21.285  0.00  0.00    +0.000 A 
ATOM     13  C   UNL     1       0.913   9.283  22.390  0.00  0.00    +0.000 A 
ATOM     14  C   UNL     1       0.027   9.359  23.484  0.00  0.00    +0.000 A 
ATOM     15  C   UNL     1      -1.020  10.280  23.492  0.00  0.00    +0.000 A 
ATOM     16  C   UNL     1      -1.138  11.108  22.396  0.00  0.00    +0.000 A 
BRANCH   7  18
ATOM     17  C   UNL     1      -3.090  13.477  23.883  0.00  0.00    +0.000 C 
ATOM     18  C   UNL     1      -3.288  12.358  22.872  0.00  0.00    +0.000 C 
ENDBRANCH   7  18
ENDBRANCH   1  10
BRANCH   4  19
ATOM     19  C   UNL     1       1.098   8.217  18.129  0.00  0.00    +0.000 C 
BRANCH  19  20
ATOM     20  C   UNL     1       2.508   7.619  18.386  0.00  0.00    +0.000 C 
ATOM     21  C   UNL     1       3.356   7.770  17.104  0.00  0.00    +0.000 C 
ATOM     22  C   UNL     1       4.772   7.238  17.263  0.00  0.00    +0.000 C 
ATOM     23  C   UNL     1       4.778   5.810  17.782  0.00  0.00    +0.000 C 
ATOM     24  C   UNL     1       3.997   5.705  19.088  0.00  0.00    +0.000 C 
ATOM     25  C   UNL     1       2.508   6.149  18.958  0.00  0.00    +0.000 C 
ATOM     26  C   UNL     1       1.702   5.178  18.056  0.00  0.00    +0.000 C 
ATOM     27  C   UNL     1       1.599   3.765  18.631  0.00  0.00    +0.000 C 
ATOM     28  C   UNL     1       0.979   3.779  20.023  0.00  0.00    +0.000 C 
ATOM     29  C   UNL     1       1.723   4.714  20.971  0.00  0.00    +0.000 C 
ATOM     30  C   UNL     1       1.870   6.121  20.385  0.00  0.00    +0.000 C 
ENDBRANCH  19  20
ENDBRANCH   4  19
BRANCH   6  31
ATOM     31  C   UNL     1       2.343  12.558  17.987  0.00  0.00    +0.000 C 
BRANCH  31  32
ATOM     32  O   UNL     1       2.821  11.659  16.995  0.00  0.00    +0.000 OA
ATOM     33  H   UNL     1       2.793  10.756  17.385  0.00  0.00    +0.000 HD
ENDBRANCH  31  32
ENDBRANCH   6  31
TORSDOF 6
ENDMDL
