MODEL 1
REMARK VINA RESULT:      -9.1      0.000      0.000
REMARK  Name = 
REMARK  5 active torsions:
REMARK  status: ('A' for Active; 'I' for Inactive)
REMARK    1  A    between atoms: C_1  and  C_2
REMARK    2  A    between atoms: C_5  and  N_6
REMARK    3  A    between atoms: C_7  and  C_9
REMARK    4  A    between atoms: N_13  and  S_14
REMARK    5  A    between atoms: S_14  and  C_17
REMARK                            x       y       z     vdW  Elec       q    Type
REMARK                         _______ _______ _______ _____ _____    ______ ____
ROOT
ATOM      1  C   UNL     1       8.270   7.746  17.933  0.00  0.00    +0.000 C 
ATOM      2  C   UNL     1       8.289   6.950  19.238  0.00  0.00    +0.000 C 
ATOM      3  C   UNL     1       8.198   5.452  18.951  0.00  0.00    +0.000 C 
ATOM      4  C   UNL     1       6.975   5.104  18.105  0.00  0.00    +0.000 C 
ATOM      5  N   UNL     1       6.965   5.894  16.836  0.00  0.00    +0.000 NA
ATOM      6  C   UNL     1       7.032   7.374  17.104  0.00  0.00    +0.000 C 
ENDROOT
BRANCH   1   8
ATOM      7  N   UNL     1       9.244   9.702  19.054  0.00  0.00    +0.000 N 
ATOM      8  C   UNL     1       8.278   9.257  18.175  0.00  0.00    +0.000 C 
ATOM      9  O   UNL     1       7.513  10.022  17.595  0.00  0.00    +0.000 OA
ATOM     10  H   UNL     1       9.770   9.032  19.599  0.00  0.00    +0.000 HD
BRANCH   7  15
ATOM     11  C   UNL     1      11.260  14.921  20.524  0.00  0.00    +0.000 C 
ATOM     12  C   UNL     1      11.075  13.426  20.268  0.00  0.00    +0.000 C 
ATOM     13  C   UNL     1       9.928  12.860  21.118  0.00  0.00    +0.000 C 
ATOM     14  C   UNL     1       9.677  11.377  20.829  0.00  0.00    +0.000 C 
ATOM     15  C   UNL     1       9.437  11.124  19.336  0.00  0.00    +0.000 C 
ATOM     16  C   UNL     1      10.595  11.679  18.500  0.00  0.00    +0.000 C 
ATOM     17  C   UNL     1      10.827  13.163  18.777  0.00  0.00    +0.000 C 
ENDBRANCH   7  15
ENDBRANCH   1   8
BRANCH   5  18
ATOM     18  S   UNL     1       5.630   5.506  15.796  0.00  0.00    +0.000 S 
ATOM     19  O   UNL     1       5.251   6.714  15.094  0.00  0.00    +0.000 OA
ATOM     20  O   UNL     1       5.938   4.283  15.084  0.00  0.00    +0.000 OA
BRANCH  18  21
ATOM     21  C   UNL     1       4.308   5.081  16.918  0.00  0.00    +0.000 A 
ATOM     22  C   UNL     1       3.708   6.084  17.715  0.00  0.00    +0.000 A 
ATOM     23  C   UNL     1       2.579   5.790  18.493  0.00  0.00    +0.000 A 
ATOM     24  C   UNL     1       2.098   4.504  18.426  0.00  0.00    +0.000 A 
ATOM     25  N   UNL     1       1.030   3.923  19.042  0.00  0.00    +0.000 N 
ATOM     26  C   UNL     1       0.966   2.612  18.623  0.00  0.00    +0.000 A 
ATOM     27  O   UNL     1       0.122   1.806  18.986  0.00  0.00    +0.000 OA
ATOM     28  O   UNL     1       1.995   2.318  17.719  0.00  0.00    +0.000 OA
ATOM     29  C   UNL     1       2.671   3.526  17.640  0.00  0.00    +0.000 A 
ATOM     30  C   UNL     1       3.781   3.782  16.862  0.00  0.00    +0.000 A 
ATOM     31  H   UNL     1       0.376   4.333  19.687  0.00  0.00    +0.000 HD
ENDBRANCH  18  21
ENDBRANCH   5  18
TORSDOF 4
ENDMDL
MODEL 2
REMARK VINA RESULT:      -8.7      5.144      7.502
REMARK  Name = 
REMARK  5 active torsions:
REMARK  status: ('A' for Active; 'I' for Inactive)
REMARK    1  A    between atoms: C_1  and  C_2
REMARK    2  A    between atoms: C_5  and  N_6
REMARK    3  A    between atoms: C_7  and  C_9
REMARK    4  A    between atoms: N_13  and  S_14
REMARK    5  A    between atoms: S_14  and  C_17
REMARK                            x       y       z     vdW  Elec       q    Type
REMARK                         _______ _______ _______ _____ _____    ______ ____
ROOT
ATOM      1  C   UNL     1       2.507   6.431  19.841  0.00  0.00    +0.000 C 
ATOM      2  C   UNL     1       1.507   5.849  20.840  0.00  0.00    +0.000 C 
ATOM      3  C   UNL     1       1.933   4.444  21.264  0.00  0.00    +0.000 C 
ATOM      4  C   UNL     1       2.126   3.518  20.064  0.00  0.00    +0.000 C 
ATOM      5  N   UNL     1       3.099   4.103  19.092  0.00  0.00    +0.000 NA
ATOM      6  C   UNL     1       2.680   5.479  18.649  0.00  0.00    +0.000 C 
ENDROOT
BRANCH   1   8
ATOM      7  N   UNL     1       1.323   8.552  20.210  0.00  0.00    +0.000 N 
ATOM      8  C   UNL     1       2.077   7.807  19.327  0.00  0.00    +0.000 C 
ATOM      9  O   UNL     1       2.417   8.237  18.228  0.00  0.00    +0.000 OA
ATOM     10  H   UNL     1       0.964   8.117  21.050  0.00  0.00    +0.000 HD
BRANCH   7  15
ATOM     11  C   UNL     1      -1.377  13.656  19.863  0.00  0.00    +0.000 C 
ATOM     12  C   UNL     1      -0.972  12.216  20.174  0.00  0.00    +0.000 C 
ATOM     13  C   UNL     1      -0.919  11.371  18.893  0.00  0.00    +0.000 C 
ATOM     14  C   UNL     1      -0.449   9.939  19.169  0.00  0.00    +0.000 C 
ATOM     15  C   UNL     1       0.897   9.917  19.905  0.00  0.00    +0.000 C 
ATOM     16  C   UNL     1       0.826  10.750  21.188  0.00  0.00    +0.000 C 
ATOM     17  C   UNL     1       0.377  12.182  20.904  0.00  0.00    +0.000 C 
ENDBRANCH   7  15
ENDBRANCH   1   8
BRANCH   5  18
ATOM     18  S   UNL     1       3.411   3.073  17.729  0.00  0.00    +0.000 S 
ATOM     19  O   UNL     1       3.917   1.814  18.233  0.00  0.00    +0.000 OA
ATOM     20  O   UNL     1       2.270   3.128  16.839  0.00  0.00    +0.000 OA
BRANCH  18  21
ATOM     21  C   UNL     1       4.734   3.891  16.855  0.00  0.00    +0.000 A 
ATOM     22  C   UNL     1       5.818   4.450  17.574  0.00  0.00    +0.000 A 
ATOM     23  C   UNL     1       6.928   4.968  16.893  0.00  0.00    +0.000 A 
ATOM     24  C   UNL     1       6.906   4.891  15.521  0.00  0.00    +0.000 A 
ATOM     25  N   UNL     1       7.823   5.288  14.594  0.00  0.00    +0.000 N 
ATOM     26  C   UNL     1       7.329   4.967  13.349  0.00  0.00    +0.000 A 
ATOM     27  O   UNL     1       7.905   5.188  12.294  0.00  0.00    +0.000 OA
ATOM     28  O   UNL     1       6.075   4.349  13.446  0.00  0.00    +0.000 OA
ATOM     29  C   UNL     1       5.858   4.335  14.815  0.00  0.00    +0.000 A 
ATOM     30  C   UNL     1       4.752   3.816  15.454  0.00  0.00    +0.000 A 
ATOM     31  H   UNL     1       8.714   5.733  14.742  0.00  0.00    +0.000 HD
ENDBRANCH  18  21
ENDBRANCH   5  18
TORSDOF 4
ENDMDL
MODEL 3
REMARK VINA RESULT:      -8.5      1.230      1.259
REMARK  Name = 
REMARK  5 active torsions:
REMARK  status: ('A' for Active; 'I' for Inactive)
REMARK    1  A    between atoms: C_1  and  C_2
REMARK    2  A    between atoms: C_5  and  N_6
REMARK    3  A    between atoms: C_7  and  C_9
REMARK    4  A    between atoms: N_13  and  S_14
REMARK    5  A    between atoms: S_14  and  C_17
REMARK                            x       y       z     vdW  Elec       q    Type
REMARK                         _______ _______ _______ _____ _____    ______ ____
ROOT
ATOM      1  C   UNL     1       8.168   7.718  17.964  0.00  0.00    +0.000 C 
ATOM      2  C   UNL     1       8.433   6.977  19.275  0.00  0.00    +0.000 C 
ATOM      3  C   UNL     1       8.254   5.471  19.081  0.00  0.00    +0.000 C 
ATOM      4  C   UNL     1       6.879   5.126  18.513  0.00  0.00    +0.000 C 
ATOM      5  N   UNL     1       6.630   5.865  17.237  0.00  0.00    +0.000 NA
ATOM      6  C   UNL     1       6.781   7.352  17.418  0.00  0.00    +0.000 C 
ENDROOT
BRANCH   1   8
ATOM      7  N   UNL     1       9.179   9.670  19.062  0.00  0.00    +0.000 N 
ATOM      8  C   UNL     1       8.258   9.237  18.131  0.00  0.00    +0.000 C 
ATOM      9  O   UNL     1       7.593  10.016  17.453  0.00  0.00    +0.000 OA
ATOM     10  H   UNL     1       9.615   9.000  19.682  0.00  0.00    +0.000 HD
BRANCH   7  15
ATOM     11  C   UNL     1      11.488  14.848  20.211  0.00  0.00    +0.000 C 
ATOM     12  C   UNL     1      11.232  13.355  20.012  0.00  0.00    +0.000 C 
ATOM     13  C   UNL     1      10.145  12.851  20.973  0.00  0.00    +0.000 C 
ATOM     14  C   UNL     1       9.820  11.371  20.748  0.00  0.00    +0.000 C 
ATOM     15  C   UNL     1       9.443  11.091  19.288  0.00  0.00    +0.000 C 
ATOM     16  C   UNL     1      10.542  11.583  18.341  0.00  0.00    +0.000 C 
ATOM     17  C   UNL     1      10.846  13.064  18.556  0.00  0.00    +0.000 C 
ENDBRANCH   7  15
ENDBRANCH   1   8
BRANCH   5  18
ATOM     18  S   UNL     1       5.105   5.475  16.505  0.00  0.00    +0.000 S 
ATOM     19  O   UNL     1       4.681   6.622  15.729  0.00  0.00    +0.000 OA
ATOM     20  O   UNL     1       5.199   4.156  15.914  0.00  0.00    +0.000 OA
BRANCH  18  21
ATOM     21  C   UNL     1       3.987   5.298  17.885  0.00  0.00    +0.000 A 
ATOM     22  C   UNL     1       2.997   6.280  18.124  0.00  0.00    +0.000 A 
ATOM     23  C   UNL     1       2.027   6.081  19.116  0.00  0.00    +0.000 A 
ATOM     24  C   UNL     1       2.088   4.900  19.817  0.00  0.00    +0.000 A 
ATOM     25  N   UNL     1       1.295   4.417  20.815  0.00  0.00    +0.000 N 
ATOM     26  C   UNL     1       1.772   3.172  21.164  0.00  0.00    +0.000 A 
ATOM     27  O   UNL     1       1.287   2.461  22.032  0.00  0.00    +0.000 OA
ATOM     28  O   UNL     1       2.887   2.821  20.392  0.00  0.00    +0.000 OA
ATOM     29  C   UNL     1       3.044   3.932  19.578  0.00  0.00    +0.000 A 
ATOM     30  C   UNL     1       4.011   4.096  18.609  0.00  0.00    +0.000 A 
ATOM     31  H   UNL     1       0.496   4.848  21.246  0.00  0.00    +0.000 HD
ENDBRANCH  18  21
ENDBRANCH   5  18
TORSDOF 4
ENDMDL
MODEL 4
REMARK VINA RESULT:      -8.5      1.443      1.720
REMARK  Name = 
REMARK  5 active torsions:
REMARK  status: ('A' for Active; 'I' for Inactive)
REMARK    1  A    between atoms: C_1  and  C_2
REMARK    2  A    between atoms: C_5  and  N_6
REMARK    3  A    between atoms: C_7  and  C_9
REMARK    4  A    between atoms: N_13  and  S_14
REMARK    5  A    between atoms: S_14  and  C_17
REMARK                            x       y       z     vdW  Elec       q    Type
REMARK                         _______ _______ _______ _____ _____    ______ ____
ROOT
ATOM      1  C   UNL     1       8.121   7.760  17.899  0.00  0.00    +0.000 C 
ATOM      2  C   UNL     1       8.295   7.001  19.215  0.00  0.00    +0.000 C 
ATOM      3  C   UNL     1       8.080   5.504  18.999  0.00  0.00    +0.000 C 
ATOM      4  C   UNL     1       6.726   5.206  18.359  0.00  0.00    +0.000 C 
ATOM      5  N   UNL     1       6.565   5.960  17.079  0.00  0.00    +0.000 NA
ATOM      6  C   UNL     1       6.753   7.441  17.280  0.00  0.00    +0.000 C 
ENDROOT
BRANCH   1   8
ATOM      7  N   UNL     1       9.221   9.675  18.975  0.00  0.00    +0.000 N 
ATOM      8  C   UNL     1       8.248   9.274  18.083  0.00  0.00    +0.000 C 
ATOM      9  O   UNL     1       7.567  10.075  17.449  0.00  0.00    +0.000 OA
ATOM     10  H   UNL     1       9.673   8.987  19.563  0.00  0.00    +0.000 HD
BRANCH   7  15
ATOM     11  C   UNL     1      11.677  14.785  20.128  0.00  0.00    +0.000 C 
ATOM     12  C   UNL     1      11.380  13.300  19.922  0.00  0.00    +0.000 C 
ATOM     13  C   UNL     1      10.296  12.815  20.896  0.00  0.00    +0.000 C 
ATOM     14  C   UNL     1       9.931  11.345  20.663  0.00  0.00    +0.000 C 
ATOM     15  C   UNL     1       9.525  11.087  19.207  0.00  0.00    +0.000 C 
ATOM     16  C   UNL     1      10.620  11.560  18.247  0.00  0.00    +0.000 C 
ATOM     17  C   UNL     1      10.965  13.031  18.469  0.00  0.00    +0.000 C 
ENDBRANCH   7  15
ENDBRANCH   1   8
BRANCH   5  18
ATOM     18  S   UNL     1       5.068   5.623  16.266  0.00  0.00    +0.000 S 
ATOM     19  O   UNL     1       4.323   6.862  16.181  0.00  0.00    +0.000 OA
ATOM     20  O   UNL     1       5.350   4.829  15.089  0.00  0.00    +0.000 OA
BRANCH  18  21
ATOM     21  C   UNL     1       4.200   4.532  17.379  0.00  0.00    +0.000 A 
ATOM     22  C   UNL     1       4.186   3.138  17.134  0.00  0.00    +0.000 A 
ATOM     23  C   UNL     1       3.629   2.259  18.074  0.00  0.00    +0.000 A 
ATOM     24  C   UNL     1       3.122   2.819  19.223  0.00  0.00    +0.000 A 
ATOM     25  N   UNL     1       2.539   2.240  20.310  0.00  0.00    +0.000 N 
ATOM     26  C   UNL     1       2.222   3.243  21.201  0.00  0.00    +0.000 A 
ATOM     27  O   UNL     1       1.684   3.067  22.284  0.00  0.00    +0.000 OA
ATOM     28  O   UNL     1       2.600   4.498  20.706  0.00  0.00    +0.000 OA
ATOM     29  C   UNL     1       3.146   4.176  19.473  0.00  0.00    +0.000 A 
ATOM     30  C   UNL     1       3.687   5.067  18.570  0.00  0.00    +0.000 A 
ATOM     31  H   UNL     1       2.356   1.266  20.481  0.00  0.00    +0.000 HD
ENDBRANCH  18  21
ENDBRANCH   5  18
TORSDOF 4
ENDMDL
MODEL 5
REMARK VINA RESULT:      -8.5      3.830      7.700
REMARK  Name = 
REMARK  5 active torsions:
REMARK  status: ('A' for Active; 'I' for Inactive)
REMARK    1  A    between atoms: C_1  and  C_2
REMARK    2  A    between atoms: C_5  and  N_6
REMARK    3  A    between atoms: C_7  and  C_9
REMARK    4  A    between atoms: N_13  and  S_14
REMARK    5  A    between atoms: S_14  and  C_17
REMARK                            x       y       z     vdW  Elec       q    Type
REMARK                         _______ _______ _______ _____ _____    ______ ____
ROOT
ATOM      1  C   UNL     1       2.085   5.323  20.401  0.00  0.00    +0.000 C 
ATOM      2  C   UNL     1       0.805   4.595  20.812  0.00  0.00    +0.000 C 
ATOM      3  C   UNL     1       1.028   3.084  20.813  0.00  0.00    +0.000 C 
ATOM      4  C   UNL     1       1.549   2.580  19.469  0.00  0.00    +0.000 C 
ATOM      5  N   UNL     1       2.796   3.305  19.076  0.00  0.00    +0.000 NA
ATOM      6  C   UNL     1       2.585   4.796  19.049  0.00  0.00    +0.000 C 
ENDROOT
BRANCH   1   8
ATOM      7  N   UNL     1       1.121   7.390  21.315  0.00  0.00    +0.000 N 
ATOM      8  C   UNL     1       1.885   6.838  20.308  0.00  0.00    +0.000 C 
ATOM      9  O   UNL     1       2.405   7.519  19.428  0.00  0.00    +0.000 OA
ATOM     10  H   UNL     1       0.614   6.783  21.946  0.00  0.00    +0.000 HD
BRANCH   7  15
ATOM     11  C   UNL     1      -1.058  12.746  21.487  0.00  0.00    +0.000 C 
ATOM     12  C   UNL     1      -0.848  11.239  21.345  0.00  0.00    +0.000 C 
ATOM     13  C   UNL     1       0.133  10.925  20.206  0.00  0.00    +0.000 C 
ATOM     14  C   UNL     1       0.413   9.424  20.087  0.00  0.00    +0.000 C 
ATOM     15  C   UNL     1       0.899   8.832  21.416  0.00  0.00    +0.000 C 
ATOM     16  C   UNL     1      -0.096   9.138  22.540  0.00  0.00    +0.000 C 
ATOM     17  C   UNL     1      -0.355  10.637  22.668  0.00  0.00    +0.000 C 
ENDBRANCH   7  15
ENDBRANCH   1   8
BRANCH   5  18
ATOM     18  S   UNL     1       3.477   2.742  17.582  0.00  0.00    +0.000 S 
ATOM     19  O   UNL     1       4.079   1.449  17.830  0.00  0.00    +0.000 OA
ATOM     20  O   UNL     1       2.501   2.931  16.529  0.00  0.00    +0.000 OA
BRANCH  18  21
ATOM     21  C   UNL     1       4.785   3.903  17.230  0.00  0.00    +0.000 A 
ATOM     22  C   UNL     1       5.020   4.322  15.899  0.00  0.00    +0.000 A 
ATOM     23  C   UNL     1       5.949   5.337  15.629  0.00  0.00    +0.000 A 
ATOM     24  C   UNL     1       6.592   5.893  16.709  0.00  0.00    +0.000 A 
ATOM     25  N   UNL     1       7.522   6.887  16.773  0.00  0.00    +0.000 N 
ATOM     26  C   UNL     1       7.834   7.085  18.101  0.00  0.00    +0.000 A 
ATOM     27  O   UNL     1       8.638   7.909  18.511  0.00  0.00    +0.000 OA
ATOM     28  O   UNL     1       7.105   6.220  18.927  0.00  0.00    +0.000 OA
ATOM     29  C   UNL     1       6.357   5.497  18.010  0.00  0.00    +0.000 A 
ATOM     30  C   UNL     1       5.449   4.503  18.310  0.00  0.00    +0.000 A 
ATOM     31  H   UNL     1       7.931   7.415  16.021  0.00  0.00    +0.000 HD
ENDBRANCH  18  21
ENDBRANCH   5  18
TORSDOF 4
ENDMDL
MODEL 6
REMARK VINA RESULT:      -8.4      1.944      2.365
REMARK  Name = 
REMARK  5 active torsions:
REMARK  status: ('A' for Active; 'I' for Inactive)
REMARK    1  A    between atoms: C_1  and  C_2
REMARK    2  A    between atoms: C_5  and  N_6
REMARK    3  A    between atoms: C_7  and  C_9
REMARK    4  A    between atoms: N_13  and  S_14
REMARK    5  A    between atoms: S_14  and  C_17
REMARK                            x       y       z     vdW  Elec       q    Type
REMARK                         _______ _______ _______ _____ _____    ______ ____
ROOT
ATOM      1  C   UNL     1       8.181   7.778  17.905  0.00  0.00    +0.000 C 
ATOM      2  C   UNL     1       8.383   7.008  19.210  0.00  0.00    +0.000 C 
ATOM      3  C   UNL     1       8.210   5.508  18.976  0.00  0.00    +0.000 C 
ATOM      4  C   UNL     1       6.861   5.179  18.339  0.00  0.00    +0.000 C 
ATOM      5  N   UNL     1       6.673   5.945  17.069  0.00  0.00    +0.000 NA
ATOM      6  C   UNL     1       6.819   7.428  17.289  0.00  0.00    +0.000 C 
ENDROOT
BRANCH   1   8
ATOM      7  N   UNL     1       9.291   9.716  18.929  0.00  0.00    +0.000 N 
ATOM      8  C   UNL     1       8.266   9.293  18.108  0.00  0.00    +0.000 C 
ATOM      9  O   UNL     1       7.508  10.078  17.545  0.00  0.00    +0.000 OA
ATOM     10  H   UNL     1       9.813   9.037  19.466  0.00  0.00    +0.000 HD
BRANCH   7  15
ATOM     11  C   UNL     1      11.564  14.863  20.273  0.00  0.00    +0.000 C 
ATOM     12  C   UNL     1      11.299  13.373  20.065  0.00  0.00    +0.000 C 
ATOM     13  C   UNL     1      10.095  12.907  20.897  0.00  0.00    +0.000 C 
ATOM     14  C   UNL     1       9.766  11.431  20.655  0.00  0.00    +0.000 C 
ATOM     15  C   UNL     1       9.558  11.135  19.164  0.00  0.00    +0.000 C 
ATOM     16  C   UNL     1      10.772  11.589  18.348  0.00  0.00    +0.000 C 
ATOM     17  C   UNL     1      11.082  13.067  18.577  0.00  0.00    +0.000 C 
ENDBRANCH   7  15
ENDBRANCH   1   8
BRANCH   5  18
ATOM     18  S   UNL     1       5.182   5.576  16.259  0.00  0.00    +0.000 S 
ATOM     19  O   UNL     1       4.926   6.633  15.303  0.00  0.00    +0.000 OA
ATOM     20  O   UNL     1       5.206   4.184  15.860  0.00  0.00    +0.000 OA
BRANCH  18  21
ATOM     21  C   UNL     1       3.947   5.680  17.543  0.00  0.00    +0.000 A 
ATOM     22  C   UNL     1       3.546   4.513  18.235  0.00  0.00    +0.000 A 
ATOM     23  C   UNL     1       2.684   4.603  19.337  0.00  0.00    +0.000 A 
ATOM     24  C   UNL     1       2.273   5.863  19.702  0.00  0.00    +0.000 A 
ATOM     25  N   UNL     1       1.461   6.273  20.717  0.00  0.00    +0.000 N 
ATOM     26  C   UNL     1       1.381   7.648  20.662  0.00  0.00    +0.000 A 
ATOM     27  O   UNL     1       0.731   8.338  21.432  0.00  0.00    +0.000 OA
ATOM     28  O   UNL     1       2.148   8.158  19.606  0.00  0.00    +0.000 OA
ATOM     29  C   UNL     1       2.672   7.006  19.039  0.00  0.00    +0.000 A 
ATOM     30  C   UNL     1       3.520   6.952  17.952  0.00  0.00    +0.000 A 
ATOM     31  H   UNL     1       0.988   5.716  21.408  0.00  0.00    +0.000 HD
ENDBRANCH  18  21
ENDBRANCH   5  18
TORSDOF 4
ENDMDL
MODEL 7
REMARK VINA RESULT:      -8.3      4.034      7.551
REMARK  Name = 
REMARK  5 active torsions:
REMARK  status: ('A' for Active; 'I' for Inactive)
REMARK    1  A    between atoms: C_1  and  C_2
REMARK    2  A    between atoms: C_5  and  N_6
REMARK    3  A    between atoms: C_7  and  C_9
REMARK    4  A    between atoms: N_13  and  S_14
REMARK    5  A    between atoms: S_14  and  C_17
REMARK                            x       y       z     vdW  Elec       q    Type
REMARK                         _______ _______ _______ _____ _____    ______ ____
ROOT
ATOM      1  C   UNL     1       1.953   5.264  20.661  0.00  0.00    +0.000 C 
ATOM      2  C   UNL     1       0.576   4.657  20.393  0.00  0.00    +0.000 C 
ATOM      3  C   UNL     1       0.601   3.149  20.641  0.00  0.00    +0.000 C 
ATOM      4  C   UNL     1       1.686   2.451  19.824  0.00  0.00    +0.000 C 
ATOM      5  N   UNL     1       3.025   3.060  20.090  0.00  0.00    +0.000 NA
ATOM      6  C   UNL     1       3.022   4.543  19.828  0.00  0.00    +0.000 C 
ENDROOT
BRANCH   1   8
ATOM      7  N   UNL     1       1.157   7.544  21.113  0.00  0.00    +0.000 N 
ATOM      8  C   UNL     1       1.997   6.761  20.347  0.00  0.00    +0.000 C 
ATOM      9  O   UNL     1       2.756   7.238  19.508  0.00  0.00    +0.000 OA
ATOM     10  H   UNL     1       0.464   7.102  21.703  0.00  0.00    +0.000 HD
BRANCH   7  15
ATOM     11  C   UNL     1      -0.262  13.106  20.398  0.00  0.00    +0.000 C 
ATOM     12  C   UNL     1      -0.259  11.580  20.486  0.00  0.00    +0.000 C 
ATOM     13  C   UNL     1       0.703  10.972  19.456  0.00  0.00    +0.000 C 
ATOM     14  C   UNL     1       0.776   9.446  19.569  0.00  0.00    +0.000 C 
ATOM     15  C   UNL     1       1.134   9.001  20.993  0.00  0.00    +0.000 C 
ATOM     16  C   UNL     1       0.157   9.601  22.009  0.00  0.00    +0.000 C 
ATOM     17  C   UNL     1       0.105  11.124  21.905  0.00  0.00    +0.000 C 
ENDBRANCH   7  15
ENDBRANCH   1   8
BRANCH   5  18
ATOM     18  S   UNL     1       4.317   2.276  19.235  0.00  0.00    +0.000 S 
ATOM     19  O   UNL     1       5.302   1.857  20.211  0.00  0.00    +0.000 OA
ATOM     20  O   UNL     1       3.746   1.340  18.289  0.00  0.00    +0.000 OA
BRANCH  18  21
ATOM     21  C   UNL     1       5.039   3.572  18.244  0.00  0.00    +0.000 A 
ATOM     22  C   UNL     1       4.568   3.802  16.929  0.00  0.00    +0.000 A 
ATOM     23  C   UNL     1       5.028   4.904  16.195  0.00  0.00    +0.000 A 
ATOM     24  C   UNL     1       5.931   5.732  16.818  0.00  0.00    +0.000 A 
ATOM     25  N   UNL     1       6.541   6.870  16.381  0.00  0.00    +0.000 N 
ATOM     26  C   UNL     1       7.346   7.333  17.399  0.00  0.00    +0.000 A 
ATOM     27  O   UNL     1       8.036   8.340  17.337  0.00  0.00    +0.000 OA
ATOM     28  O   UNL     1       7.268   6.502  18.524  0.00  0.00    +0.000 OA
ATOM     29  C   UNL     1       6.383   5.521  18.105  0.00  0.00    +0.000 A 
ATOM     30  C   UNL     1       5.950   4.447  18.855  0.00  0.00    +0.000 A 
ATOM     31  H   UNL     1       6.450   7.330  15.490  0.00  0.00    +0.000 HD
ENDBRANCH  18  21
ENDBRANCH   5  18
TORSDOF 4
ENDMDL
MODEL 8
REMARK VINA RESULT:      -8.0      4.889      7.375
REMARK  Name = 
REMARK  5 active torsions:
REMARK  status: ('A' for Active; 'I' for Inactive)
REMARK    1  A    between atoms: C_1  and  C_2
REMARK    2  A    between atoms: C_5  and  N_6
REMARK    3  A    between atoms: C_7  and  C_9
REMARK    4  A    between atoms: N_13  and  S_14
REMARK    5  A    between atoms: S_14  and  C_17
REMARK                            x       y       z     vdW  Elec       q    Type
REMARK                         _______ _______ _______ _____ _____    ______ ____
ROOT
ATOM      1  C   UNL     1       2.059   5.472  20.432  0.00  0.00    +0.000 C 
ATOM      2  C   UNL     1       0.665   4.859  20.297  0.00  0.00    +0.000 C 
ATOM      3  C   UNL     1       0.678   3.400  20.750  0.00  0.00    +0.000 C 
ATOM      4  C   UNL     1       1.724   2.577  20.000  0.00  0.00    +0.000 C 
ATOM      5  N   UNL     1       3.080   3.192  20.133  0.00  0.00    +0.000 NA
ATOM      6  C   UNL     1       3.087   4.625  19.670  0.00  0.00    +0.000 C 
ENDROOT
BRANCH   1   8
ATOM      7  N   UNL     1       1.321   7.809  20.602  0.00  0.00    +0.000 N 
ATOM      8  C   UNL     1       2.111   6.912  19.914  0.00  0.00    +0.000 C 
ATOM      9  O   UNL     1       2.836   7.252  18.984  0.00  0.00    +0.000 OA
ATOM     10  H   UNL     1       0.650   7.468  21.278  0.00  0.00    +0.000 HD
BRANCH   7  15
ATOM     11  C   UNL     1      -0.056  13.307  19.442  0.00  0.00    +0.000 C 
ATOM     12  C   UNL     1      -0.079  11.809  19.744  0.00  0.00    +0.000 C 
ATOM     13  C   UNL     1       0.598  11.011  18.620  0.00  0.00    +0.000 C 
ATOM     14  C   UNL     1       0.649   9.512  18.930  0.00  0.00    +0.000 C 
ATOM     15  C   UNL     1       1.315   9.237  20.285  0.00  0.00    +0.000 C 
ATOM     16  C   UNL     1       0.621  10.026  21.399  0.00  0.00    +0.000 C 
ATOM     17  C   UNL     1       0.591  11.522  21.094  0.00  0.00    +0.000 C 
ENDBRANCH   7  15
ENDBRANCH   1   8
BRANCH   5  18
ATOM     18  S   UNL     1       4.330   2.275  19.351  0.00  0.00    +0.000 S 
ATOM     19  O   UNL     1       5.247   1.816  20.374  0.00  0.00    +0.000 OA
ATOM     20  O   UNL     1       3.713   1.353  18.421  0.00  0.00    +0.000 OA
BRANCH  18  21
ATOM     21  C   UNL     1       5.184   3.471  18.339  0.00  0.00    +0.000 A 
ATOM     22  C   UNL     1       5.937   4.503  18.948  0.00  0.00    +0.000 A 
ATOM     23  C   UNL     1       6.725   5.360  18.167  0.00  0.00    +0.000 A 
ATOM     24  C   UNL     1       6.729   5.135  16.810  0.00  0.00    +0.000 A 
ATOM     25  N   UNL     1       7.391   5.777  15.806  0.00  0.00    +0.000 N 
ATOM     26  C   UNL     1       7.069   5.148  14.623  0.00  0.00    +0.000 A 
ATOM     27  O   UNL     1       7.494   5.474  13.524  0.00  0.00    +0.000 OA
ATOM     28  O   UNL     1       6.191   4.079  14.840  0.00  0.00    +0.000 OA
ATOM     29  C   UNL     1       6.008   4.121  16.213  0.00  0.00    +0.000 A 
ATOM     30  C   UNL     1       5.224   3.260  16.953  0.00  0.00    +0.000 A 
ATOM     31  H   UNL     1       8.014   6.564  15.867  0.00  0.00    +0.000 HD
ENDBRANCH  18  21
ENDBRANCH   5  18
TORSDOF 4
ENDMDL
MODEL 9
REMARK VINA RESULT:      -8.0      6.473      9.177
REMARK  Name = 
REMARK  5 active torsions:
REMARK  status: ('A' for Active; 'I' for Inactive)
REMARK    1  A    between atoms: C_1  and  C_2
REMARK    2  A    between atoms: C_5  and  N_6
REMARK    3  A    between atoms: C_7  and  C_9
REMARK    4  A    between atoms: N_13  and  S_14
REMARK    5  A    between atoms: S_14  and  C_17
REMARK                            x       y       z     vdW  Elec       q    Type
REMARK                         _______ _______ _______ _____ _____    ______ ____
ROOT
ATOM      1  C   UNL     1       1.167   8.500  19.561  0.00  0.00    +0.000 C 
ATOM      2  C   UNL     1       1.868   8.454  20.919  0.00  0.00    +0.000 C 
ATOM      3  C   UNL     1       0.915   8.903  22.026  0.00  0.00    +0.000 C 
ATOM      4  C   UNL     1       0.325  10.285  21.750  0.00  0.00    +0.000 C 
ATOM      5  N   UNL     1      -0.350  10.317  20.416  0.00  0.00    +0.000 NA
ATOM      6  C   UNL     1       0.584   9.898  19.312  0.00  0.00    +0.000 C 
ENDROOT
BRANCH   1   8
ATOM      7  N   UNL     1       2.811   6.961  18.581  0.00  0.00    +0.000 N 
ATOM      8  C   UNL     1       2.108   8.135  18.410  0.00  0.00    +0.000 C 
ATOM      9  O   UNL     1       2.197   8.813  17.390  0.00  0.00    +0.000 OA
ATOM     10  H   UNL     1       2.802   6.500  19.481  0.00  0.00    +0.000 HD
BRANCH   7  15
ATOM     11  C   UNL     1       6.902   4.236  15.530  0.00  0.00    +0.000 C 
ATOM     12  C   UNL     1       6.014   4.802  16.638  0.00  0.00    +0.000 C 
ATOM     13  C   UNL     1       6.069   6.337  16.657  0.00  0.00    +0.000 C 
ATOM     14  C   UNL     1       5.134   6.932  17.714  0.00  0.00    +0.000 C 
ATOM     15  C   UNL     1       3.694   6.430  17.543  0.00  0.00    +0.000 C 
ATOM     16  C   UNL     1       3.651   4.899  17.542  0.00  0.00    +0.000 C 
ATOM     17  C   UNL     1       4.570   4.312  16.472  0.00  0.00    +0.000 C 
ENDBRANCH   7  15
ENDBRANCH   1   8
BRANCH   5  18
ATOM     18  S   UNL     1      -1.095  11.845  20.061  0.00  0.00    +0.000 S 
ATOM     19  O   UNL     1      -1.832  12.261  21.236  0.00  0.00    +0.000 OA
ATOM     20  O   UNL     1      -0.109  12.707  19.443  0.00  0.00    +0.000 OA
BRANCH  18  21
ATOM     21  C   UNL     1      -2.272  11.470  18.773  0.00  0.00    +0.000 A 
ATOM     22  C   UNL     1      -3.618  11.888  18.902  0.00  0.00    +0.000 A 
ATOM     23  C   UNL     1      -4.516  11.724  17.838  0.00  0.00    +0.000 A 
ATOM     24  C   UNL     1      -4.018  11.158  16.688  0.00  0.00    +0.000 A 
ATOM     25  N   UNL     1      -4.625  10.884  15.499  0.00  0.00    +0.000 N 
ATOM     26  C   UNL     1      -3.679  10.333  14.662  0.00  0.00    +0.000 A 
ATOM     27  O   UNL     1      -3.893   9.971  13.514  0.00  0.00    +0.000 OA
ATOM     28  O   UNL     1      -2.433  10.243  15.295  0.00  0.00    +0.000 OA
ATOM     29  C   UNL     1      -2.703  10.762  16.552  0.00  0.00    +0.000 A 
ATOM     30  C   UNL     1      -1.794  10.910  17.579  0.00  0.00    +0.000 A 
ATOM     31  H   UNL     1      -5.582  11.040  15.231  0.00  0.00    +0.000 HD
ENDBRANCH  18  21
ENDBRANCH   5  18
TORSDOF 4
ENDMDL
