MODEL 1
REMARK VINA RESULT:      -6.5      0.000      0.000
REMARK  Name = 
REMARK  8 active torsions:
REMARK  status: ('A' for Active; 'I' for Inactive)
REMARK    1  A    between atoms: C_2  and  C_3
REMARK    2  A    between atoms: C_3  and  N_4
REMARK    3  A    between atoms: N_4  and  C_5
REMARK    4  A    between atoms: N_4  and  S_14
REMARK    5  A    between atoms: C_5  and  C_6
REMARK    6  A    between atoms: C_9  and  O_10
REMARK    7  A    between atoms: O_10  and  C_11
REMARK    8  A    between atoms: S_14  and  C_17
REMARK                            x       y       z     vdW  Elec       q    Type
REMARK                         _______ _______ _______ _____ _____    ______ ____
ROOT
ATOM      1  N   UNL     1       5.591   5.177  16.461  0.00  0.00    +0.000 NA
ENDROOT
BRANCH   1   2
ATOM      2  S   UNL     1       7.158   5.487  17.090  0.00  0.00    +0.000 S 
ATOM      3  O   UNL     1       7.928   4.268  16.927  0.00  0.00    +0.000 OA
ATOM      4  O   UNL     1       7.621   6.728  16.509  0.00  0.00    +0.000 OA
BRANCH   2   5
ATOM      5  C   UNL     1       6.966   5.788  18.788  0.00  0.00    +0.000 C 
ATOM      6  C   UNL     1       7.997   5.662  19.631  0.00  0.00    +0.000 C 
ENDBRANCH   2   5
ENDBRANCH   1   2
BRANCH   1   7
ATOM      7  C   UNL     1       5.440   5.624  15.060  0.00  0.00    +0.000 C 
BRANCH   7   9
ATOM      8  C   UNL     1       6.155   3.622  13.202  0.00  0.00    +0.000 C 
ATOM      9  C   UNL     1       5.825   4.547  14.061  0.00  0.00    +0.000 C 
ENDBRANCH   7   9
ENDBRANCH   1   7
BRANCH   1  10
ATOM     10  C   UNL     1       5.093   3.786  16.722  0.00  0.00    +0.000 C 
BRANCH  10  11
ATOM     11  C   UNL     1       4.004   3.675  17.766  0.00  0.00    +0.000 A 
ATOM     12  C   UNL     1       4.298   3.140  19.026  0.00  0.00    +0.000 A 
ATOM     13  C   UNL     1       3.271   2.802  19.905  0.00  0.00    +0.000 A 
ATOM     14  C   UNL     1       1.939   3.030  19.564  0.00  0.00    +0.000 A 
ATOM     15  C   UNL     1       1.639   3.647  18.349  0.00  0.00    +0.000 A 
ATOM     16  C   UNL     1       2.669   3.975  17.459  0.00  0.00    +0.000 A 
BRANCH  14  17
ATOM     17  O   UNL     1       1.032   2.547  20.464  0.00  0.00    +0.000 OA
ATOM     18  C   UNL     1       1.348   2.711  21.839  0.00  0.00    +0.000 C 
ENDBRANCH  14  17
ENDBRANCH  10  11
ENDBRANCH   1  10
TORSDOF 7
ENDMDL
MODEL 2
REMARK VINA RESULT:      -6.4      1.025      1.498
REMARK  Name = 
REMARK  8 active torsions:
REMARK  status: ('A' for Active; 'I' for Inactive)
REMARK    1  A    between atoms: C_2  and  C_3
REMARK    2  A    between atoms: C_3  and  N_4
REMARK    3  A    between atoms: N_4  and  C_5
REMARK    4  A    between atoms: N_4  and  S_14
REMARK    5  A    between atoms: C_5  and  C_6
REMARK    6  A    between atoms: C_9  and  O_10
REMARK    7  A    between atoms: O_10  and  C_11
REMARK    8  A    between atoms: S_14  and  C_17
REMARK                            x       y       z     vdW  Elec       q    Type
REMARK                         _______ _______ _______ _____ _____    ______ ____
ROOT
ATOM      1  N   UNL     1       5.580   4.935  16.541  0.00  0.00    +0.000 NA
ENDROOT
BRANCH   1   2
ATOM      2  S   UNL     1       7.032   5.006  17.454  0.00  0.00    +0.000 S 
ATOM      3  O   UNL     1       6.690   4.659  18.821  0.00  0.00    +0.000 OA
ATOM      4  O   UNL     1       8.033   4.247  16.736  0.00  0.00    +0.000 OA
BRANCH   2   5
ATOM      5  C   UNL     1       7.563   6.658  17.427  0.00  0.00    +0.000 C 
ATOM      6  C   UNL     1       8.066   7.238  18.522  0.00  0.00    +0.000 C 
ENDBRANCH   2   5
ENDBRANCH   1   2
BRANCH   1   7
ATOM      7  C   UNL     1       5.707   5.580  15.218  0.00  0.00    +0.000 C 
BRANCH   7   9
ATOM      8  C   UNL     1       6.131   3.715  13.140  0.00  0.00    +0.000 C 
ATOM      9  C   UNL     1       5.936   4.577  14.100  0.00  0.00    +0.000 C 
ENDBRANCH   7   9
ENDBRANCH   1   7
BRANCH   1  10
ATOM     10  C   UNL     1       4.946   3.576  16.508  0.00  0.00    +0.000 C 
BRANCH  10  11
ATOM     11  C   UNL     1       3.762   3.393  17.432  0.00  0.00    +0.000 A 
ATOM     12  C   UNL     1       2.846   4.437  17.606  0.00  0.00    +0.000 A 
ATOM     13  C   UNL     1       1.900   4.381  18.628  0.00  0.00    +0.000 A 
ATOM     14  C   UNL     1       1.822   3.270  19.464  0.00  0.00    +0.000 A 
ATOM     15  C   UNL     1       2.669   2.184  19.242  0.00  0.00    +0.000 A 
ATOM     16  C   UNL     1       3.629   2.243  18.224  0.00  0.00    +0.000 A 
BRANCH  14  17
ATOM     17  O   UNL     1       0.931   3.395  20.493  0.00  0.00    +0.000 OA
ATOM     18  C   UNL     1       1.264   2.742  21.709  0.00  0.00    +0.000 C 
ENDBRANCH  14  17
ENDBRANCH  10  11
ENDBRANCH   1  10
TORSDOF 7
ENDMDL
MODEL 3
REMARK VINA RESULT:      -6.3      1.525      3.057
REMARK  Name = 
REMARK  8 active torsions:
REMARK  status: ('A' for Active; 'I' for Inactive)
REMARK    1  A    between atoms: C_2  and  C_3
REMARK    2  A    between atoms: C_3  and  N_4
REMARK    3  A    between atoms: N_4  and  C_5
REMARK    4  A    between atoms: N_4  and  S_14
REMARK    5  A    between atoms: C_5  and  C_6
REMARK    6  A    between atoms: C_9  and  O_10
REMARK    7  A    between atoms: O_10  and  C_11
REMARK    8  A    between atoms: S_14  and  C_17
REMARK                            x       y       z     vdW  Elec       q    Type
REMARK                         _______ _______ _______ _____ _____    ______ ____
ROOT
ATOM      1  N   UNL     1       5.278   5.523  17.110  0.00  0.00    +0.000 NA
ENDROOT
BRANCH   1   2
ATOM      2  S   UNL     1       6.950   5.254  16.829  0.00  0.00    +0.000 S 
ATOM      3  O   UNL     1       7.552   6.550  16.580  0.00  0.00    +0.000 OA
ATOM      4  O   UNL     1       7.440   4.415  17.901  0.00  0.00    +0.000 OA
BRANCH   2   5
ATOM      5  C   UNL     1       7.070   4.309  15.379  0.00  0.00    +0.000 C 
ATOM      6  C   UNL     1       6.983   4.882  14.174  0.00  0.00    +0.000 C 
ENDBRANCH   2   5
ENDBRANCH   1   2
BRANCH   1   7
ATOM      7  C   UNL     1       4.866   6.910  16.809  0.00  0.00    +0.000 C 
BRANCH   7   9
ATOM      8  C   UNL     1       2.537   7.675  18.210  0.00  0.00    +0.000 C 
ATOM      9  C   UNL     1       3.613   7.322  17.563  0.00  0.00    +0.000 C 
ENDBRANCH   7   9
ENDBRANCH   1   7
BRANCH   1  10
ATOM     10  C   UNL     1       4.384   4.472  16.522  0.00  0.00    +0.000 C 
BRANCH  10  11
ATOM     11  C   UNL     1       3.511   3.737  17.515  0.00  0.00    +0.000 A 
ATOM     12  C   UNL     1       2.127   3.949  17.517  0.00  0.00    +0.000 A 
ATOM     13  C   UNL     1       1.344   3.482  18.571  0.00  0.00    +0.000 A 
ATOM     14  C   UNL     1       1.916   2.759  19.615  0.00  0.00    +0.000 A 
ATOM     15  C   UNL     1       3.279   2.463  19.578  0.00  0.00    +0.000 A 
ATOM     16  C   UNL     1       4.070   2.943  18.527  0.00  0.00    +0.000 A 
BRANCH  14  17
ATOM     17  O   UNL     1       1.058   2.462  20.636  0.00  0.00    +0.000 OA
ATOM     18  C   UNL     1       1.522   2.714  21.954  0.00  0.00    +0.000 C 
ENDBRANCH  14  17
ENDBRANCH  10  11
ENDBRANCH   1  10
TORSDOF 7
ENDMDL
MODEL 4
REMARK VINA RESULT:      -6.3      1.640      3.283
REMARK  Name = 
REMARK  8 active torsions:
REMARK  status: ('A' for Active; 'I' for Inactive)
REMARK    1  A    between atoms: C_2  and  C_3
REMARK    2  A    between atoms: C_3  and  N_4
REMARK    3  A    between atoms: N_4  and  C_5
REMARK    4  A    between atoms: N_4  and  S_14
REMARK    5  A    between atoms: C_5  and  C_6
REMARK    6  A    between atoms: C_9  and  O_10
REMARK    7  A    between atoms: O_10  and  C_11
REMARK    8  A    between atoms: S_14  and  C_17
REMARK                            x       y       z     vdW  Elec       q    Type
REMARK                         _______ _______ _______ _____ _____    ______ ____
ROOT
ATOM      1  N   UNL     1       5.946   5.526  17.241  0.00  0.00    +0.000 NA
ENDROOT
BRANCH   1   2
ATOM      2  S   UNL     1       6.216   5.607  15.548  0.00  0.00    +0.000 S 
ATOM      3  O   UNL     1       5.417   6.709  15.044  0.00  0.00    +0.000 OA
ATOM      4  O   UNL     1       7.646   5.585  15.335  0.00  0.00    +0.000 OA
BRANCH   2   5
ATOM      5  C   UNL     1       5.602   4.133  14.870  0.00  0.00    +0.000 C 
ATOM      6  C   UNL     1       5.745   3.860  13.569  0.00  0.00    +0.000 C 
ENDBRANCH   2   5
ENDBRANCH   1   2
BRANCH   1   7
ATOM      7  C   UNL     1       7.170   5.789  18.027  0.00  0.00    +0.000 C 
BRANCH   7   9
ATOM      8  C   UNL     1       8.048   8.463  17.799  0.00  0.00    +0.000 C 
ATOM      9  C   UNL     1       7.643   7.228  17.905  0.00  0.00    +0.000 C 
ENDBRANCH   7   9
ENDBRANCH   1   7
BRANCH   1  10
ATOM     10  C   UNL     1       4.739   6.288  17.704  0.00  0.00    +0.000 C 
BRANCH  10  11
ATOM     11  C   UNL     1       3.652   5.452  18.341  0.00  0.00    +0.000 A 
ATOM     12  C   UNL     1       3.565   5.368  19.736  0.00  0.00    +0.000 A 
ATOM     13  C   UNL     1       2.739   4.417  20.334  0.00  0.00    +0.000 A 
ATOM     14  C   UNL     1       1.956   3.566  19.557  0.00  0.00    +0.000 A 
ATOM     15  C   UNL     1       1.965   3.703  18.169  0.00  0.00    +0.000 A 
ATOM     16  C   UNL     1       2.805   4.647  17.565  0.00  0.00    +0.000 A 
BRANCH  14  17
ATOM     17  O   UNL     1       1.284   2.610  20.265  0.00  0.00    +0.000 OA
ATOM     18  C   UNL     1       1.441   2.632  21.676  0.00  0.00    +0.000 C 
ENDBRANCH  14  17
ENDBRANCH  10  11
ENDBRANCH   1  10
TORSDOF 7
ENDMDL
MODEL 5
REMARK VINA RESULT:      -6.2      2.728      6.218
REMARK  Name = 
REMARK  8 active torsions:
REMARK  status: ('A' for Active; 'I' for Inactive)
REMARK    1  A    between atoms: C_2  and  C_3
REMARK    2  A    between atoms: C_3  and  N_4
REMARK    3  A    between atoms: N_4  and  C_5
REMARK    4  A    between atoms: N_4  and  S_14
REMARK    5  A    between atoms: C_5  and  C_6
REMARK    6  A    between atoms: C_9  and  O_10
REMARK    7  A    between atoms: O_10  and  C_11
REMARK    8  A    between atoms: S_14  and  C_17
REMARK                            x       y       z     vdW  Elec       q    Type
REMARK                         _______ _______ _______ _____ _____    ______ ____
ROOT
ATOM      1  N   UNL     1       3.099   5.325  19.115  0.00  0.00    +0.000 NA
ENDROOT
BRANCH   1   2
ATOM      2  S   UNL     1       2.367   3.815  19.475  0.00  0.00    +0.000 S 
ATOM      3  O   UNL     1       1.130   3.753  18.718  0.00  0.00    +0.000 OA
ATOM      4  O   UNL     1       3.377   2.793  19.310  0.00  0.00    +0.000 OA
BRANCH   2   5
ATOM      5  C   UNL     1       1.971   3.839  21.164  0.00  0.00    +0.000 C 
ATOM      6  C   UNL     1       1.580   2.727  21.796  0.00  0.00    +0.000 C 
ENDBRANCH   2   5
ENDBRANCH   1   2
BRANCH   1   7
ATOM      7  C   UNL     1       2.342   6.471  19.661  0.00  0.00    +0.000 C 
BRANCH   7   9
ATOM      8  C   UNL     1       2.243   8.654  17.874  0.00  0.00    +0.000 C 
ATOM      9  C   UNL     1       2.289   7.646  18.700  0.00  0.00    +0.000 C 
ENDBRANCH   7   9
ENDBRANCH   1   7
BRANCH   1  10
ATOM     10  C   UNL     1       4.573   5.370  19.392  0.00  0.00    +0.000 C 
BRANCH  10  11
ATOM     11  C   UNL     1       5.461   5.371  18.168  0.00  0.00    +0.000 A 
ATOM     12  C   UNL     1       4.945   5.780  16.933  0.00  0.00    +0.000 A 
ATOM     13  C   UNL     1       5.663   5.555  15.759  0.00  0.00    +0.000 A 
ATOM     14  C   UNL     1       6.922   4.961  15.800  0.00  0.00    +0.000 A 
ATOM     15  C   UNL     1       7.486   4.633  17.033  0.00  0.00    +0.000 A 
ATOM     16  C   UNL     1       6.761   4.845  18.212  0.00  0.00    +0.000 A 
BRANCH  14  17
ATOM     17  O   UNL     1       7.463   4.695  14.574  0.00  0.00    +0.000 OA
ATOM     18  C   UNL     1       6.572   4.231  13.570  0.00  0.00    +0.000 C 
ENDBRANCH  14  17
ENDBRANCH  10  11
ENDBRANCH   1  10
TORSDOF 7
ENDMDL
MODEL 6
REMARK VINA RESULT:      -6.1      0.964      1.120
REMARK  Name = 
REMARK  8 active torsions:
REMARK  status: ('A' for Active; 'I' for Inactive)
REMARK    1  A    between atoms: C_2  and  C_3
REMARK    2  A    between atoms: C_3  and  N_4
REMARK    3  A    between atoms: N_4  and  C_5
REMARK    4  A    between atoms: N_4  and  S_14
REMARK    5  A    between atoms: C_5  and  C_6
REMARK    6  A    between atoms: C_9  and  O_10
REMARK    7  A    between atoms: O_10  and  C_11
REMARK    8  A    between atoms: S_14  and  C_17
REMARK                            x       y       z     vdW  Elec       q    Type
REMARK                         _______ _______ _______ _____ _____    ______ ____
ROOT
ATOM      1  N   UNL     1       6.030   4.801  15.944  0.00  0.00    +0.000 NA
ENDROOT
BRANCH   1   2
ATOM      2  S   UNL     1       6.719   5.968  16.998  0.00  0.00    +0.000 S 
ATOM      3  O   UNL     1       7.710   6.699  16.230  0.00  0.00    +0.000 OA
ATOM      4  O   UNL     1       5.629   6.669  17.640  0.00  0.00    +0.000 OA
BRANCH   2   5
ATOM      5  C   UNL     1       7.538   5.091  18.251  0.00  0.00    +0.000 C 
ATOM      6  C   UNL     1       7.847   5.678  19.413  0.00  0.00    +0.000 C 
ENDBRANCH   2   5
ENDBRANCH   1   2
BRANCH   1   7
ATOM      7  C   UNL     1       6.861   4.552  14.748  0.00  0.00    +0.000 C 
BRANCH   7   9
ATOM      8  C   UNL     1       5.372   3.483  12.600  0.00  0.00    +0.000 C 
ATOM      9  C   UNL     1       6.060   3.976  13.592  0.00  0.00    +0.000 C 
ENDBRANCH   7   9
ENDBRANCH   1   7
BRANCH   1  10
ATOM     10  C   UNL     1       5.556   3.558  16.638  0.00  0.00    +0.000 C 
BRANCH  10  11
ATOM     11  C   UNL     1       4.335   3.731  17.513  0.00  0.00    +0.000 A 
ATOM     12  C   UNL     1       4.436   3.538  18.896  0.00  0.00    +0.000 A 
ATOM     13  C   UNL     1       3.287   3.448  19.681  0.00  0.00    +0.000 A 
ATOM     14  C   UNL     1       2.024   3.593  19.110  0.00  0.00    +0.000 A 
ATOM     15  C   UNL     1       1.915   3.877  17.749  0.00  0.00    +0.000 A 
ATOM     16  C   UNL     1       3.067   3.954  16.956  0.00  0.00    +0.000 A 
BRANCH  14  17
ATOM     17  O   UNL     1       0.985   3.368  19.969  0.00  0.00    +0.000 OA
ATOM     18  C   UNL     1       1.314   2.835  21.243  0.00  0.00    +0.000 C 
ENDBRANCH  14  17
ENDBRANCH  10  11
ENDBRANCH   1  10
TORSDOF 7
ENDMDL
MODEL 7
REMARK VINA RESULT:      -6.1      2.582      6.276
REMARK  Name = 
REMARK  8 active torsions:
REMARK  status: ('A' for Active; 'I' for Inactive)
REMARK    1  A    between atoms: C_2  and  C_3
REMARK    2  A    between atoms: C_3  and  N_4
REMARK    3  A    between atoms: N_4  and  C_5
REMARK    4  A    between atoms: N_4  and  S_14
REMARK    5  A    between atoms: C_5  and  C_6
REMARK    6  A    between atoms: C_9  and  O_10
REMARK    7  A    between atoms: O_10  and  C_11
REMARK    8  A    between atoms: S_14  and  C_17
REMARK                            x       y       z     vdW  Elec       q    Type
REMARK                         _______ _______ _______ _____ _____    ______ ____
ROOT
ATOM      1  N   UNL     1       2.972   4.656  19.470  0.00  0.00    +0.000 NA
ENDROOT
BRANCH   1   2
ATOM      2  S   UNL     1       2.043   3.409  20.198  0.00  0.00    +0.000 S 
ATOM      3  O   UNL     1       2.777   2.962  21.367  0.00  0.00    +0.000 OA
ATOM      4  O   UNL     1       0.688   3.897  20.328  0.00  0.00    +0.000 OA
BRANCH   2   5
ATOM      5  C   UNL     1       1.981   2.100  19.060  0.00  0.00    +0.000 C 
ATOM      6  C   UNL     1       2.154   2.316  17.751  0.00  0.00    +0.000 C 
ENDBRANCH   2   5
ENDBRANCH   1   2
BRANCH   1   7
ATOM      7  C   UNL     1       2.544   6.006  19.892  0.00  0.00    +0.000 C 
BRANCH   7   9
ATOM      8  C   UNL     1       2.569   7.863  17.765  0.00  0.00    +0.000 C 
ATOM      9  C   UNL     1       2.558   7.005  18.748  0.00  0.00    +0.000 C 
ENDBRANCH   7   9
ENDBRANCH   1   7
BRANCH   1  10
ATOM     10  C   UNL     1       4.454   4.429  19.535  0.00  0.00    +0.000 C 
BRANCH  10  11
ATOM     11  C   UNL     1       5.232   4.895  18.325  0.00  0.00    +0.000 A 
ATOM     12  C   UNL     1       4.821   4.513  17.042  0.00  0.00    +0.000 A 
ATOM     13  C   UNL     1       5.654   4.720  15.944  0.00  0.00    +0.000 A 
ATOM     14  C   UNL     1       6.889   5.347  16.097  0.00  0.00    +0.000 A 
ATOM     15  C   UNL     1       7.269   5.814  17.355  0.00  0.00    +0.000 A 
ATOM     16  C   UNL     1       6.440   5.595  18.462  0.00  0.00    +0.000 A 
BRANCH  14  17
ATOM     17  O   UNL     1       7.651   5.381  14.963  0.00  0.00    +0.000 OA
ATOM     18  C   UNL     1       7.075   4.827  13.790  0.00  0.00    +0.000 C 
ENDBRANCH  14  17
ENDBRANCH  10  11
ENDBRANCH   1  10
TORSDOF 7
ENDMDL
MODEL 8
REMARK VINA RESULT:      -6.1      2.592      6.105
REMARK  Name = 
REMARK  8 active torsions:
REMARK  status: ('A' for Active; 'I' for Inactive)
REMARK    1  A    between atoms: C_2  and  C_3
REMARK    2  A    between atoms: C_3  and  N_4
REMARK    3  A    between atoms: N_4  and  C_5
REMARK    4  A    between atoms: N_4  and  S_14
REMARK    5  A    between atoms: C_5  and  C_6
REMARK    6  A    between atoms: C_9  and  O_10
REMARK    7  A    between atoms: O_10  and  C_11
REMARK    8  A    between atoms: S_14  and  C_17
REMARK                            x       y       z     vdW  Elec       q    Type
REMARK                         _______ _______ _______ _____ _____    ______ ____
ROOT
ATOM      1  N   UNL     1       3.561   4.530  19.324  0.00  0.00    +0.000 NA
ENDROOT
BRANCH   1   2
ATOM      2  S   UNL     1       3.090   3.084  20.121  0.00  0.00    +0.000 S 
ATOM      3  O   UNL     1       4.303   2.332  20.384  0.00  0.00    +0.000 OA
ATOM      4  O   UNL     1       2.209   3.454  21.206  0.00  0.00    +0.000 OA
BRANCH   2   5
ATOM      5  C   UNL     1       2.123   2.183  18.996  0.00  0.00    +0.000 C 
ATOM      6  C   UNL     1       0.808   2.403  18.887  0.00  0.00    +0.000 C 
ENDBRANCH   2   5
ENDBRANCH   1   2
BRANCH   1   7
ATOM      7  C   UNL     1       2.861   5.723  19.847  0.00  0.00    +0.000 C 
BRANCH   7   9
ATOM      8  C   UNL     1       2.699   7.804  17.946  0.00  0.00    +0.000 C 
ATOM      9  C   UNL     1       2.774   6.842  18.824  0.00  0.00    +0.000 C 
ENDBRANCH   7   9
ENDBRANCH   1   7
BRANCH   1  10
ATOM     10  C   UNL     1       5.046   4.695  19.187  0.00  0.00    +0.000 C 
BRANCH  10  11
ATOM     11  C   UNL     1       5.597   4.452  17.800  0.00  0.00    +0.000 A 
ATOM     12  C   UNL     1       6.915   4.817  17.500  0.00  0.00    +0.000 A 
ATOM     13  C   UNL     1       7.359   4.833  16.178  0.00  0.00    +0.000 A 
ATOM     14  C   UNL     1       6.514   4.444  15.141  0.00  0.00    +0.000 A 
ATOM     15  C   UNL     1       5.229   3.991  15.437  0.00  0.00    +0.000 A 
ATOM     16  C   UNL     1       4.776   3.987  16.762  0.00  0.00    +0.000 A 
BRANCH  14  17
ATOM     17  O   UNL     1       7.037   4.616  13.890  0.00  0.00    +0.000 OA
ATOM     18  C   UNL     1       6.469   3.836  12.848  0.00  0.00    +0.000 C 
ENDBRANCH  14  17
ENDBRANCH  10  11
ENDBRANCH   1  10
TORSDOF 7
ENDMDL
MODEL 9
REMARK VINA RESULT:      -6.0      1.514      1.794
REMARK  Name = 
REMARK  8 active torsions:
REMARK  status: ('A' for Active; 'I' for Inactive)
REMARK    1  A    between atoms: C_2  and  C_3
REMARK    2  A    between atoms: C_3  and  N_4
REMARK    3  A    between atoms: N_4  and  C_5
REMARK    4  A    between atoms: N_4  and  S_14
REMARK    5  A    between atoms: C_5  and  C_6
REMARK    6  A    between atoms: C_9  and  O_10
REMARK    7  A    between atoms: O_10  and  C_11
REMARK    8  A    between atoms: S_14  and  C_17
REMARK                            x       y       z     vdW  Elec       q    Type
REMARK                         _______ _______ _______ _____ _____    ______ ____
ROOT
ATOM      1  N   UNL     1       5.837   5.194  16.578  0.00  0.00    +0.000 NA
ENDROOT
BRANCH   1   2
ATOM      2  S   UNL     1       6.948   4.893  17.852  0.00  0.00    +0.000 S 
ATOM      3  O   UNL     1       6.216   4.203  18.897  0.00  0.00    +0.000 OA
ATOM      4  O   UNL     1       8.127   4.294  17.267  0.00  0.00    +0.000 OA
BRANCH   2   5
ATOM      5  C   UNL     1       7.443   6.440  18.463  0.00  0.00    +0.000 C 
ATOM      6  C   UNL     1       7.746   7.444  17.632  0.00  0.00    +0.000 C 
ENDBRANCH   2   5
ENDBRANCH   1   2
BRANCH   1   7
ATOM      7  C   UNL     1       5.360   3.953  15.933  0.00  0.00    +0.000 C 
BRANCH   7   9
ATOM      8  C   UNL     1       6.110   3.789  13.216  0.00  0.00    +0.000 C 
ATOM      9  C   UNL     1       5.763   3.865  14.471  0.00  0.00    +0.000 C 
ENDBRANCH   7   9
ENDBRANCH   1   7
BRANCH   1  10
ATOM     10  C   UNL     1       4.749   6.163  16.935  0.00  0.00    +0.000 C 
BRANCH  10  11
ATOM     11  C   UNL     1       3.641   5.602  17.798  0.00  0.00    +0.000 A 
ATOM     12  C   UNL     1       3.417   6.131  19.075  0.00  0.00    +0.000 A 
ATOM     13  C   UNL     1       2.578   5.473  19.973  0.00  0.00    +0.000 A 
ATOM     14  C   UNL     1       1.916   4.304  19.601  0.00  0.00    +0.000 A 
ATOM     15  C   UNL     1       2.060   3.819  18.301  0.00  0.00    +0.000 A 
ATOM     16  C   UNL     1       2.913   4.470  17.402  0.00  0.00    +0.000 A 
BRANCH  14  17
ATOM     17  O   UNL     1       1.220   3.701  20.611  0.00  0.00    +0.000 OA
ATOM     18  C   UNL     1       1.952   2.832  21.461  0.00  0.00    +0.000 C 
ENDBRANCH  14  17
ENDBRANCH  10  11
ENDBRANCH   1  10
TORSDOF 7
ENDMDL
