MODEL 1
REMARK VINA RESULT:      -7.4      0.000      0.000
REMARK  Name = 
REMARK  7 active torsions:
REMARK  status: ('A' for Active; 'I' for Inactive)
REMARK    1  A    between atoms: C_1  and  C_2
REMARK    2  A    between atoms: C_2  and  C_3
REMARK    3  A    between atoms: C_9  and  C_10
REMARK    4  A    between atoms: C_10  and  N_11
REMARK    5  A    between atoms: N_11  and  C_12
REMARK    6  A    between atoms: C_12  and  C_13
REMARK    7  A    between atoms: C_21  and  O_22
REMARK                            x       y       z     vdW  Elec       q    Type
REMARK                         _______ _______ _______ _____ _____    ______ ____
ROOT
ATOM      1  C   UNL     1       5.628   4.234  17.130  0.00  0.00    +0.000 A 
ATOM      2  C   UNL     1       6.597   4.825  17.961  0.00  0.00    +0.000 A 
ATOM      3  C   UNL     1       6.267   5.171  19.271  0.00  0.00    +0.000 A 
ATOM      4  O   UNL     1       7.102   5.677  19.996  0.00  0.00    +0.000 OA
ATOM      5  O   UNL     1       5.042   4.961  19.737  0.00  0.00    +0.000 OA
ATOM      6  C   UNL     1       4.070   4.413  19.014  0.00  0.00    +0.000 A 
ATOM      7  C   UNL     1       2.774   4.259  19.570  0.00  0.00    +0.000 A 
ATOM      8  C   UNL     1       1.749   3.699  18.764  0.00  0.00    +0.000 A 
ATOM      9  C   UNL     1       2.032   3.266  17.470  0.00  0.00    +0.000 A 
ATOM     10  C   UNL     1       3.303   3.414  16.927  0.00  0.00    +0.000 A 
ATOM     11  C   UNL     1       4.336   4.007  17.675  0.00  0.00    +0.000 A 
ENDROOT
BRANCH   1  13
ATOM     12  C   UNL     1       6.972   4.736  14.964  0.00  0.00    +0.000 C 
ATOM     13  C   UNL     1       5.928   3.872  15.677  0.00  0.00    +0.000 C 
ENDBRANCH   1  13
BRANCH   8  14
ATOM     14  O   UNL     1       0.473   3.584  19.198  0.00  0.00    +0.000 OA
ATOM     15  H   UNL     1      -0.066   4.332  19.485  0.00  0.00    +0.000 HD
ENDBRANCH   8  14
BRANCH   7  16
ATOM     16  C   UNL     1       2.485   4.725  20.994  0.00  0.00    +0.000 C 
BRANCH  16  17
ATOM     17  N   UNL     1       1.658   5.947  21.007  0.00  0.00    +0.000 NA
ATOM     18  H   UNL     1       1.234   6.055  21.958  0.00  0.00    +0.000 HD
BRANCH  17  19
ATOM     19  C   UNL     1       2.483   7.135  20.722  0.00  0.00    +0.000 C 
BRANCH  19  20
ATOM     20  C   UNL     1       1.703   8.176  19.935  0.00  0.00    +0.000 A 
ATOM     21  C   UNL     1       0.661   8.880  20.573  0.00  0.00    +0.000 A 
ATOM     22  F   UNL     1       0.370   8.643  21.878  0.00  0.00    +0.000 F 
ATOM     23  C   UNL     1      -0.090   9.830  19.875  0.00  0.00    +0.000 A 
ATOM     24  C   UNL     1       0.178  10.090  18.531  0.00  0.00    +0.000 A 
ATOM     25  C   UNL     1       1.200   9.402  17.879  0.00  0.00    +0.000 A 
ATOM     26  C   UNL     1       1.967   8.447  18.565  0.00  0.00    +0.000 A 
ATOM     27 CL   UNL     1       3.229   7.617  17.658  0.00  0.00    +0.000 Cl
ENDBRANCH  19  20
ENDBRANCH  17  19
ENDBRANCH  16  17
ENDBRANCH   7  16
TORSDOF 6
ENDMDL
MODEL 2
REMARK VINA RESULT:      -7.3      1.520      1.799
REMARK  Name = 
REMARK  7 active torsions:
REMARK  status: ('A' for Active; 'I' for Inactive)
REMARK    1  A    between atoms: C_1  and  C_2
REMARK    2  A    between atoms: C_2  and  C_3
REMARK    3  A    between atoms: C_9  and  C_10
REMARK    4  A    between atoms: C_10  and  N_11
REMARK    5  A    between atoms: N_11  and  C_12
REMARK    6  A    between atoms: C_12  and  C_13
REMARK    7  A    between atoms: C_21  and  O_22
REMARK                            x       y       z     vdW  Elec       q    Type
REMARK                         _______ _______ _______ _____ _____    ______ ____
ROOT
ATOM      1  C   UNL     1       5.801   4.284  16.812  0.00  0.00    +0.000 A 
ATOM      2  C   UNL     1       6.781   4.939  17.580  0.00  0.00    +0.000 A 
ATOM      3  C   UNL     1       6.482   5.344  18.881  0.00  0.00    +0.000 A 
ATOM      4  O   UNL     1       7.326   5.907  19.552  0.00  0.00    +0.000 OA
ATOM      5  O   UNL     1       5.278   5.129  19.396  0.00  0.00    +0.000 OA
ATOM      6  C   UNL     1       4.298   4.522  18.734  0.00  0.00    +0.000 A 
ATOM      7  C   UNL     1       3.024   4.366  19.338  0.00  0.00    +0.000 A 
ATOM      8  C   UNL     1       1.989   3.741  18.594  0.00  0.00    +0.000 A 
ATOM      9  C   UNL     1       2.244   3.249  17.315  0.00  0.00    +0.000 A 
ATOM     10  C   UNL     1       3.493   3.399  16.725  0.00  0.00    +0.000 A 
ATOM     11  C   UNL     1       4.533   4.055  17.409  0.00  0.00    +0.000 A 
ENDROOT
BRANCH   1  13
ATOM     12  C   UNL     1       6.943   4.791  14.533  0.00  0.00    +0.000 C 
ATOM     13  C   UNL     1       6.065   3.855  15.370  0.00  0.00    +0.000 C 
ENDBRANCH   1  13
BRANCH   8  14
ATOM     14  O   UNL     1       0.731   3.619  19.074  0.00  0.00    +0.000 OA
ATOM     15  H   UNL     1       0.487   3.025  19.795  0.00  0.00    +0.000 HD
ENDBRANCH   8  14
BRANCH   7  16
ATOM     16  C   UNL     1       2.768   4.898  20.745  0.00  0.00    +0.000 C 
BRANCH  16  17
ATOM     17  N   UNL     1       1.647   5.856  20.767  0.00  0.00    +0.000 NA
ATOM     18  H   UNL     1       0.977   5.572  21.519  0.00  0.00    +0.000 HD
BRANCH  17  19
ATOM     19  C   UNL     1       2.133   7.217  21.057  0.00  0.00    +0.000 C 
BRANCH  19  20
ATOM     20  C   UNL     1       1.489   8.244  20.140  0.00  0.00    +0.000 A 
ATOM     21  C   UNL     1       1.945   8.358  18.810  0.00  0.00    +0.000 A 
ATOM     22  F   UNL     1       2.934   7.550  18.351  0.00  0.00    +0.000 F 
ATOM     23  C   UNL     1       1.388   9.305  17.945  0.00  0.00    +0.000 A 
ATOM     24  C   UNL     1       0.376  10.156  18.389  0.00  0.00    +0.000 A 
ATOM     25  C   UNL     1      -0.086  10.063  19.701  0.00  0.00    +0.000 A 
ATOM     26  C   UNL     1       0.459   9.116  20.583  0.00  0.00    +0.000 A 
ATOM     27 CL   UNL     1      -0.177   9.080  22.226  0.00  0.00    +0.000 Cl
ENDBRANCH  19  20
ENDBRANCH  17  19
ENDBRANCH  16  17
ENDBRANCH   7  16
TORSDOF 6
ENDMDL
MODEL 3
REMARK VINA RESULT:      -7.2      2.755      5.714
REMARK  Name = 
REMARK  7 active torsions:
REMARK  status: ('A' for Active; 'I' for Inactive)
REMARK    1  A    between atoms: C_1  and  C_2
REMARK    2  A    between atoms: C_2  and  C_3
REMARK    3  A    between atoms: C_9  and  C_10
REMARK    4  A    between atoms: C_10  and  N_11
REMARK    5  A    between atoms: N_11  and  C_12
REMARK    6  A    between atoms: C_12  and  C_13
REMARK    7  A    between atoms: C_21  and  O_22
REMARK                            x       y       z     vdW  Elec       q    Type
REMARK                         _______ _______ _______ _____ _____    ______ ____
ROOT
ATOM      1  C   UNL     1       1.850   7.015  20.070  0.00  0.00    +0.000 A 
ATOM      2  C   UNL     1       2.371   7.826  19.046  0.00  0.00    +0.000 A 
ATOM      3  C   UNL     1       2.773   7.248  17.842  0.00  0.00    +0.000 A 
ATOM      4  O   UNL     1       3.220   7.945  16.952  0.00  0.00    +0.000 OA
ATOM      5  O   UNL     1       2.681   5.937  17.659  0.00  0.00    +0.000 OA
ATOM      6  C   UNL     1       2.205   5.103  18.578  0.00  0.00    +0.000 A 
ATOM      7  C   UNL     1       2.178   3.707  18.323  0.00  0.00    +0.000 A 
ATOM      8  C   UNL     1       1.692   2.839  19.336  0.00  0.00    +0.000 A 
ATOM      9  C   UNL     1       1.208   3.361  20.534  0.00  0.00    +0.000 A 
ATOM     10  C   UNL     1       1.233   4.728  20.782  0.00  0.00    +0.000 A 
ATOM     11  C   UNL     1       1.749   5.620  19.825  0.00  0.00    +0.000 A 
ENDROOT
BRANCH   1  13
ATOM     12  C   UNL     1       0.342   8.669  21.390  0.00  0.00    +0.000 C 
ATOM     13  C   UNL     1       1.432   7.594  21.421  0.00  0.00    +0.000 C 
ENDBRANCH   1  13
BRANCH   8  14
ATOM     14  O   UNL     1       1.699   1.494  19.195  0.00  0.00    +0.000 OA
ATOM     15  H   UNL     1       0.921   0.937  19.320  0.00  0.00    +0.000 HD
ENDBRANCH   8  14
BRANCH   7  16
ATOM     16  C   UNL     1       2.698   3.155  17.000  0.00  0.00    +0.000 C 
BRANCH  16  17
ATOM     17  N   UNL     1       3.762   4.009  16.437  0.00  0.00    +0.000 NA
ATOM     18  H   UNL     1       3.686   4.963  16.861  0.00  0.00    +0.000 HD
BRANCH  17  19
ATOM     19  C   UNL     1       5.092   3.457  16.753  0.00  0.00    +0.000 C 
BRANCH  19  20
ATOM     20  C   UNL     1       6.005   4.516  17.349  0.00  0.00    +0.000 A 
ATOM     21  C   UNL     1       6.011   4.710  18.746  0.00  0.00    +0.000 A 
ATOM     22  F   UNL     1       5.225   3.948  19.549  0.00  0.00    +0.000 F 
ATOM     23  C   UNL     1       6.824   5.688  19.327  0.00  0.00    +0.000 A 
ATOM     24  C   UNL     1       7.636   6.493  18.528  0.00  0.00    +0.000 A 
ATOM     25  C   UNL     1       7.642   6.322  17.145  0.00  0.00    +0.000 A 
ATOM     26  C   UNL     1       6.835   5.342  16.545  0.00  0.00    +0.000 A 
ATOM     27 CL   UNL     1       6.896   5.207  14.789  0.00  0.00    +0.000 Cl
ENDBRANCH  19  20
ENDBRANCH  17  19
ENDBRANCH  16  17
ENDBRANCH   7  16
TORSDOF 6
ENDMDL
MODEL 4
REMARK VINA RESULT:      -7.1      2.995      5.861
REMARK  Name = 
REMARK  7 active torsions:
REMARK  status: ('A' for Active; 'I' for Inactive)
REMARK    1  A    between atoms: C_1  and  C_2
REMARK    2  A    between atoms: C_2  and  C_3
REMARK    3  A    between atoms: C_9  and  C_10
REMARK    4  A    between atoms: C_10  and  N_11
REMARK    5  A    between atoms: N_11  and  C_12
REMARK    6  A    between atoms: C_12  and  C_13
REMARK    7  A    between atoms: C_21  and  O_22
REMARK                            x       y       z     vdW  Elec       q    Type
REMARK                         _______ _______ _______ _____ _____    ______ ____
ROOT
ATOM      1  C   UNL     1       1.634   7.381  20.164  0.00  0.00    +0.000 A 
ATOM      2  C   UNL     1       2.009   8.214  19.094  0.00  0.00    +0.000 A 
ATOM      3  C   UNL     1       2.810   7.706  18.070  0.00  0.00    +0.000 A 
ATOM      4  O   UNL     1       3.133   8.421  17.141  0.00  0.00    +0.000 OA
ATOM      5  O   UNL     1       3.231   6.449  18.103  0.00  0.00    +0.000 OA
ATOM      6  C   UNL     1       2.925   5.601  19.080  0.00  0.00    +0.000 A 
ATOM      7  C   UNL     1       3.449   4.283  19.065  0.00  0.00    +0.000 A 
ATOM      8  C   UNL     1       3.129   3.410  20.138  0.00  0.00    +0.000 A 
ATOM      9  C   UNL     1       2.275   3.833  21.155  0.00  0.00    +0.000 A 
ATOM     10  C   UNL     1       1.760   5.124  21.167  0.00  0.00    +0.000 A 
ATOM     11  C   UNL     1       2.090   6.036  20.149  0.00  0.00    +0.000 A 
ENDROOT
BRANCH   1  13
ATOM     12  C   UNL     1       1.265   9.200  21.982  0.00  0.00    +0.000 C 
ATOM     13  C   UNL     1       0.792   7.899  21.329  0.00  0.00    +0.000 C 
ENDBRANCH   1  13
BRANCH   8  14
ATOM     14  O   UNL     1       3.646   2.164  20.231  0.00  0.00    +0.000 OA
ATOM     15  H   UNL     1       3.246   1.385  19.824  0.00  0.00    +0.000 HD
ENDBRANCH   8  14
BRANCH   7  16
ATOM     16  C   UNL     1       4.370   3.832  17.935  0.00  0.00    +0.000 C 
BRANCH  16  17
ATOM     17  N   UNL     1       5.770   3.727  18.387  0.00  0.00    +0.000 NA
ATOM     18  H   UNL     1       5.981   2.723  18.596  0.00  0.00    +0.000 HD
BRANCH  17  19
ATOM     19  C   UNL     1       6.692   4.192  17.334  0.00  0.00    +0.000 C 
BRANCH  19  20
ATOM     20  C   UNL     1       7.039   5.661  17.510  0.00  0.00    +0.000 A 
ATOM     21  C   UNL     1       7.955   6.034  18.516  0.00  0.00    +0.000 A 
ATOM     22  F   UNL     1       8.531   5.090  19.305  0.00  0.00    +0.000 F 
ATOM     23  C   UNL     1       8.283   7.378  18.719  0.00  0.00    +0.000 A 
ATOM     24  C   UNL     1       7.702   8.371  17.931  0.00  0.00    +0.000 A 
ATOM     25  C   UNL     1       6.790   8.025  16.935  0.00  0.00    +0.000 A 
ATOM     26  C   UNL     1       6.452   6.681  16.714  0.00  0.00    +0.000 A 
ATOM     27 CL   UNL     1       5.281   6.339  15.443  0.00  0.00    +0.000 Cl
ENDBRANCH  19  20
ENDBRANCH  17  19
ENDBRANCH  16  17
ENDBRANCH   7  16
TORSDOF 6
ENDMDL
MODEL 5
REMARK VINA RESULT:      -7.1      4.031      6.947
REMARK  Name = 
REMARK  7 active torsions:
REMARK  status: ('A' for Active; 'I' for Inactive)
REMARK    1  A    between atoms: C_1  and  C_2
REMARK    2  A    between atoms: C_2  and  C_3
REMARK    3  A    between atoms: C_9  and  C_10
REMARK    4  A    between atoms: C_10  and  N_11
REMARK    5  A    between atoms: N_11  and  C_12
REMARK    6  A    between atoms: C_12  and  C_13
REMARK    7  A    between atoms: C_21  and  O_22
REMARK                            x       y       z     vdW  Elec       q    Type
REMARK                         _______ _______ _______ _____ _____    ______ ____
ROOT
ATOM      1  C   UNL     1       2.840   3.931  19.655  0.00  0.00    +0.000 A 
ATOM      2  C   UNL     1       3.424   2.759  20.169  0.00  0.00    +0.000 A 
ATOM      3  C   UNL     1       4.794   2.545  20.016  0.00  0.00    +0.000 A 
ATOM      4  O   UNL     1       5.306   1.536  20.463  0.00  0.00    +0.000 OA
ATOM      5  O   UNL     1       5.549   3.430  19.379  0.00  0.00    +0.000 OA
ATOM      6  C   UNL     1       5.073   4.559  18.862  0.00  0.00    +0.000 A 
ATOM      7  C   UNL     1       5.937   5.436  18.158  0.00  0.00    +0.000 A 
ATOM      8  C   UNL     1       5.394   6.618  17.590  0.00  0.00    +0.000 A 
ATOM      9  C   UNL     1       4.046   6.926  17.769  0.00  0.00    +0.000 A 
ATOM     10  C   UNL     1       3.201   6.067  18.461  0.00  0.00    +0.000 A 
ATOM     11  C   UNL     1       3.688   4.863  18.999  0.00  0.00    +0.000 A 
ENDROOT
BRANCH   1  13
ATOM     12  C   UNL     1       0.420   3.001  19.492  0.00  0.00    +0.000 C 
ATOM     13  C   UNL     1       1.339   4.195  19.762  0.00  0.00    +0.000 C 
ENDBRANCH   1  13
BRANCH   8  14
ATOM     14  O   UNL     1       6.137   7.468  16.846  0.00  0.00    +0.000 OA
ATOM     15  H   UNL     1       6.372   8.361  17.126  0.00  0.00    +0.000 HD
ENDBRANCH   8  14
BRANCH   7  16
ATOM     16  C   UNL     1       7.413   5.090  17.985  0.00  0.00    +0.000 C 
BRANCH  16  17
ATOM     17  N   UNL     1       7.680   4.503  16.658  0.00  0.00    +0.000 NA
ATOM     18  H   UNL     1       7.059   3.671  16.527  0.00  0.00    +0.000 HD
BRANCH  17  19
ATOM     19  C   UNL     1       7.391   5.479  15.591  0.00  0.00    +0.000 C 
BRANCH  19  20
ATOM     20  C   UNL     1       6.960   4.787  14.308  0.00  0.00    +0.000 A 
ATOM     21  C   UNL     1       7.732   4.965  13.140  0.00  0.00    +0.000 A 
ATOM     22  F   UNL     1       8.852   5.730  13.167  0.00  0.00    +0.000 F 
ATOM     23  C   UNL     1       7.354   4.359  11.938  0.00  0.00    +0.000 A 
ATOM     24  C   UNL     1       6.203   3.574  11.876  0.00  0.00    +0.000 A 
ATOM     25  C   UNL     1       5.424   3.389  13.017  0.00  0.00    +0.000 A 
ATOM     26  C   UNL     1       5.789   3.987  14.234  0.00  0.00    +0.000 A 
ATOM     27 CL   UNL     1       4.737   3.710  15.620  0.00  0.00    +0.000 Cl
ENDBRANCH  19  20
ENDBRANCH  17  19
ENDBRANCH  16  17
ENDBRANCH   7  16
TORSDOF 6
ENDMDL
MODEL 6
REMARK VINA RESULT:      -7.0      3.070      6.829
REMARK  Name = 
REMARK  7 active torsions:
REMARK  status: ('A' for Active; 'I' for Inactive)
REMARK    1  A    between atoms: C_1  and  C_2
REMARK    2  A    between atoms: C_2  and  C_3
REMARK    3  A    between atoms: C_9  and  C_10
REMARK    4  A    between atoms: C_10  and  N_11
REMARK    5  A    between atoms: N_11  and  C_12
REMARK    6  A    between atoms: C_12  and  C_13
REMARK    7  A    between atoms: C_21  and  O_22
REMARK                            x       y       z     vdW  Elec       q    Type
REMARK                         _______ _______ _______ _____ _____    ______ ____
ROOT
ATOM      1  C   UNL     1       0.094  10.506  20.044  0.00  0.00    +0.000 A 
ATOM      2  C   UNL     1      -0.283  10.235  21.372  0.00  0.00    +0.000 A 
ATOM      3  C   UNL     1       0.217   9.103  22.015  0.00  0.00    +0.000 A 
ATOM      4  O   UNL     1      -0.102   8.866  23.165  0.00  0.00    +0.000 OA
ATOM      5  O   UNL     1       1.033   8.271  21.381  0.00  0.00    +0.000 OA
ATOM      6  C   UNL     1       1.432   8.454  20.126  0.00  0.00    +0.000 A 
ATOM      7  C   UNL     1       2.275   7.497  19.503  0.00  0.00    +0.000 A 
ATOM      8  C   UNL     1       2.659   7.704  18.153  0.00  0.00    +0.000 A 
ATOM      9  C   UNL     1       2.252   8.854  17.476  0.00  0.00    +0.000 A 
ATOM     10  C   UNL     1       1.430   9.792  18.089  0.00  0.00    +0.000 A 
ATOM     11  C   UNL     1       0.987   9.602  19.410  0.00  0.00    +0.000 A 
ENDROOT
BRANCH   1  13
ATOM     12  C   UNL     1      -1.958  11.969  19.414  0.00  0.00    +0.000 C 
ATOM     13  C   UNL     1      -0.455  11.711  19.282  0.00  0.00    +0.000 C 
ENDBRANCH   1  13
BRANCH   8  14
ATOM     14  O   UNL     1       3.401   6.804  17.469  0.00  0.00    +0.000 OA
ATOM     15  H   UNL     1       3.034   6.175  16.836  0.00  0.00    +0.000 HD
ENDBRANCH   8  14
BRANCH   7  16
ATOM     16  C   UNL     1       2.722   6.253  20.264  0.00  0.00    +0.000 C 
BRANCH  16  17
ATOM     17  N   UNL     1       1.609   5.652  21.023  0.00  0.00    +0.000 NA
ATOM     18  H   UNL     1       0.959   6.414  21.327  0.00  0.00    +0.000 HD
BRANCH  17  19
ATOM     19  C   UNL     1       0.859   4.703  20.179  0.00  0.00    +0.000 C 
BRANCH  19  20
ATOM     20  C   UNL     1       1.795   3.795  19.398  0.00  0.00    +0.000 A 
ATOM     21  C   UNL     1       1.835   3.897  17.992  0.00  0.00    +0.000 A 
ATOM     22  F   UNL     1       1.060   4.805  17.346  0.00  0.00    +0.000 F 
ATOM     23  C   UNL     1       2.670   3.064  17.240  0.00  0.00    +0.000 A 
ATOM     24  C   UNL     1       3.472   2.115  17.874  0.00  0.00    +0.000 A 
ATOM     25  C   UNL     1       3.445   1.995  19.263  0.00  0.00    +0.000 A 
ATOM     26  C   UNL     1       2.615   2.824  20.033  0.00  0.00    +0.000 A 
ATOM     27 CL   UNL     1       2.635   2.592  21.779  0.00  0.00    +0.000 Cl
ENDBRANCH  19  20
ENDBRANCH  17  19
ENDBRANCH  16  17
ENDBRANCH   7  16
TORSDOF 6
ENDMDL
MODEL 7
REMARK VINA RESULT:      -6.8      3.069      5.840
REMARK  Name = 
REMARK  7 active torsions:
REMARK  status: ('A' for Active; 'I' for Inactive)
REMARK    1  A    between atoms: C_1  and  C_2
REMARK    2  A    between atoms: C_2  and  C_3
REMARK    3  A    between atoms: C_9  and  C_10
REMARK    4  A    between atoms: C_10  and  N_11
REMARK    5  A    between atoms: N_11  and  C_12
REMARK    6  A    between atoms: C_12  and  C_13
REMARK    7  A    between atoms: C_21  and  O_22
REMARK                            x       y       z     vdW  Elec       q    Type
REMARK                         _______ _______ _______ _____ _____    ______ ____
ROOT
ATOM      1  C   UNL     1       2.590   8.121  18.274  0.00  0.00    +0.000 A 
ATOM      2  C   UNL     1       1.957   7.701  19.458  0.00  0.00    +0.000 A 
ATOM      3  C   UNL     1       2.248   6.444  19.989  0.00  0.00    +0.000 A 
ATOM      4  O   UNL     1       1.708   6.077  21.015  0.00  0.00    +0.000 OA
ATOM      5  O   UNL     1       3.105   5.635  19.379  0.00  0.00    +0.000 OA
ATOM      6  C   UNL     1       3.740   5.956  18.256  0.00  0.00    +0.000 A 
ATOM      7  C   UNL     1       4.611   5.021  17.641  0.00  0.00    +0.000 A 
ATOM      8  C   UNL     1       5.251   5.381  16.426  0.00  0.00    +0.000 A 
ATOM      9  C   UNL     1       5.058   6.650  15.882  0.00  0.00    +0.000 A 
ATOM     10  C   UNL     1       4.206   7.567  16.486  0.00  0.00    +0.000 A 
ATOM     11  C   UNL     1       3.516   7.234  17.666  0.00  0.00    +0.000 A 
ENDROOT
BRANCH   1  13
ATOM     12  C   UNL     1       1.484  10.463  18.488  0.00  0.00    +0.000 C 
ATOM     13  C   UNL     1       2.277   9.471  17.631  0.00  0.00    +0.000 C 
ENDBRANCH   1  13
BRANCH   8  14
ATOM     14  O   UNL     1       6.039   4.519  15.745  0.00  0.00    +0.000 OA
ATOM     15  H   UNL     1       5.992   3.560  15.837  0.00  0.00    +0.000 HD
ENDBRANCH   8  14
BRANCH   7  16
ATOM     16  C   UNL     1       4.822   3.642  18.259  0.00  0.00    +0.000 C 
BRANCH  16  17
ATOM     17  N   UNL     1       4.251   2.576  17.415  0.00  0.00    +0.000 NA
ATOM     18  H   UNL     1       5.008   2.189  16.804  0.00  0.00    +0.000 HD
BRANCH  17  19
ATOM     19  C   UNL     1       3.714   1.484  18.248  0.00  0.00    +0.000 C 
BRANCH  19  20
ATOM     20  C   UNL     1       2.876   2.024  19.396  0.00  0.00    +0.000 A 
ATOM     21  C   UNL     1       1.569   2.485  19.134  0.00  0.00    +0.000 A 
ATOM     22  F   UNL     1       1.061   2.432  17.877  0.00  0.00    +0.000 F 
ATOM     23  C   UNL     1       0.777   3.005  20.163  0.00  0.00    +0.000 A 
ATOM     24  C   UNL     1       1.274   3.081  21.464  0.00  0.00    +0.000 A 
ATOM     25  C   UNL     1       2.565   2.636  21.744  0.00  0.00    +0.000 A 
ATOM     26  C   UNL     1       3.373   2.107  20.725  0.00  0.00    +0.000 A 
ATOM     27 CL   UNL     1       4.995   1.582  21.168  0.00  0.00    +0.000 Cl
ENDBRANCH  19  20
ENDBRANCH  17  19
ENDBRANCH  16  17
ENDBRANCH   7  16
TORSDOF 6
ENDMDL
MODEL 8
REMARK VINA RESULT:      -6.8      2.851      7.083
REMARK  Name = 
REMARK  7 active torsions:
REMARK  status: ('A' for Active; 'I' for Inactive)
REMARK    1  A    between atoms: C_1  and  C_2
REMARK    2  A    between atoms: C_2  and  C_3
REMARK    3  A    between atoms: C_9  and  C_10
REMARK    4  A    between atoms: C_10  and  N_11
REMARK    5  A    between atoms: N_11  and  C_12
REMARK    6  A    between atoms: C_12  and  C_13
REMARK    7  A    between atoms: C_21  and  O_22
REMARK                            x       y       z     vdW  Elec       q    Type
REMARK                         _______ _______ _______ _____ _____    ______ ____
ROOT
ATOM      1  C   UNL     1       0.170  10.956  20.442  0.00  0.00    +0.000 A 
ATOM      2  C   UNL     1      -0.186  10.625  21.763  0.00  0.00    +0.000 A 
ATOM      3  C   UNL     1       0.195   9.393  22.293  0.00  0.00    +0.000 A 
ATOM      4  O   UNL     1      -0.106   9.103  23.435  0.00  0.00    +0.000 OA
ATOM      5  O   UNL     1       0.879   8.524  21.560  0.00  0.00    +0.000 OA
ATOM      6  C   UNL     1       1.249   8.759  20.304  0.00  0.00    +0.000 A 
ATOM      7  C   UNL     1       1.942   7.763  19.570  0.00  0.00    +0.000 A 
ATOM      8  C   UNL     1       2.297   8.031  18.223  0.00  0.00    +0.000 A 
ATOM      9  C   UNL     1       2.009   9.272  17.656  0.00  0.00    +0.000 A 
ATOM     10  C   UNL     1       1.332  10.249  18.377  0.00  0.00    +0.000 A 
ATOM     11  C   UNL     1       0.920  10.007  19.700  0.00  0.00    +0.000 A 
ENDROOT
BRANCH   1  13
ATOM     12  C   UNL     1      -1.682  12.334  19.250  0.00  0.00    +0.000 C 
ATOM     13  C   UNL     1      -0.255  12.276  19.802  0.00  0.00    +0.000 C 
ENDBRANCH   1  13
BRANCH   8  14
ATOM     14  O   UNL     1       2.896   7.108  17.438  0.00  0.00    +0.000 OA
ATOM     15  H   UNL     1       2.818   7.088  16.476  0.00  0.00    +0.000 HD
ENDBRANCH   8  14
BRANCH   7  16
ATOM     16  C   UNL     1       2.262   6.416  20.212  0.00  0.00    +0.000 C 
BRANCH  16  17
ATOM     17  N   UNL     1       3.682   6.057  20.039  0.00  0.00    +0.000 NA
ATOM     18  H   UNL     1       4.179   6.200  20.949  0.00  0.00    +0.000 HD
BRANCH  17  19
ATOM     19  C   UNL     1       3.816   4.641  19.648  0.00  0.00    +0.000 C 
BRANCH  19  20
ATOM     20  C   UNL     1       4.749   4.479  18.460  0.00  0.00    +0.000 A 
ATOM     21  C   UNL     1       6.093   4.892  18.581  0.00  0.00    +0.000 A 
ATOM     22  F   UNL     1       6.549   5.410  19.750  0.00  0.00    +0.000 F 
ATOM     23  C   UNL     1       6.975   4.775  17.502  0.00  0.00    +0.000 A 
ATOM     24  C   UNL     1       6.533   4.254  16.286  0.00  0.00    +0.000 A 
ATOM     25  C   UNL     1       5.209   3.846  16.143  0.00  0.00    +0.000 A 
ATOM     26  C   UNL     1       4.310   3.952  17.216  0.00  0.00    +0.000 A 
ATOM     27 CL   UNL     1       2.653   3.423  16.940  0.00  0.00    +0.000 Cl
ENDBRANCH  19  20
ENDBRANCH  17  19
ENDBRANCH  16  17
ENDBRANCH   7  16
TORSDOF 6
ENDMDL
MODEL 9
REMARK VINA RESULT:      -6.8      1.271      1.354
REMARK  Name = 
REMARK  7 active torsions:
REMARK  status: ('A' for Active; 'I' for Inactive)
REMARK    1  A    between atoms: C_1  and  C_2
REMARK    2  A    between atoms: C_2  and  C_3
REMARK    3  A    between atoms: C_9  and  C_10
REMARK    4  A    between atoms: C_10  and  N_11
REMARK    5  A    between atoms: N_11  and  C_12
REMARK    6  A    between atoms: C_12  and  C_13
REMARK    7  A    between atoms: C_21  and  O_22
REMARK                            x       y       z     vdW  Elec       q    Type
REMARK                         _______ _______ _______ _____ _____    ______ ____
ROOT
ATOM      1  C   UNL     1       5.261   4.786  15.801  0.00  0.00    +0.000 A 
ATOM      2  C   UNL     1       6.099   5.882  16.079  0.00  0.00    +0.000 A 
ATOM      3  C   UNL     1       5.964   6.567  17.287  0.00  0.00    +0.000 A 
ATOM      4  O   UNL     1       6.688   7.512  17.534  0.00  0.00    +0.000 OA
ATOM      5  O   UNL     1       5.044   6.203  18.170  0.00  0.00    +0.000 OA
ATOM      6  C   UNL     1       4.212   5.183  17.981  0.00  0.00    +0.000 A 
ATOM      7  C   UNL     1       3.226   4.881  18.956  0.00  0.00    +0.000 A 
ATOM      8  C   UNL     1       2.333   3.805  18.712  0.00  0.00    +0.000 A 
ATOM      9  C   UNL     1       2.462   3.036  17.556  0.00  0.00    +0.000 A 
ATOM     10  C   UNL     1       3.430   3.331  16.603  0.00  0.00    +0.000 A 
ATOM     11  C   UNL     1       4.305   4.417  16.784  0.00  0.00    +0.000 A 
ENDROOT
BRANCH   1  13
ATOM     12  C   UNL     1       6.618   4.232  13.656  0.00  0.00    +0.000 C 
ATOM     13  C   UNL     1       5.343   4.028  14.478  0.00  0.00    +0.000 C 
ENDBRANCH   1  13
BRANCH   8  14
ATOM     14  O   UNL     1       1.324   3.501  19.559  0.00  0.00    +0.000 OA
ATOM     15  H   UNL     1       0.788   2.701  19.490  0.00  0.00    +0.000 HD
ENDBRANCH   8  14
BRANCH   7  16
ATOM     16  C   UNL     1       3.110   5.725  20.221  0.00  0.00    +0.000 C 
BRANCH  16  17
ATOM     17  N   UNL     1       1.820   6.438  20.280  0.00  0.00    +0.000 NA
ATOM     18  H   UNL     1       1.183   5.926  20.934  0.00  0.00    +0.000 HD
BRANCH  17  19
ATOM     19  C   UNL     1       2.008   7.811  20.785  0.00  0.00    +0.000 C 
BRANCH  19  20
ATOM     20  C   UNL     1       1.118   8.799  20.050  0.00  0.00    +0.000 A 
ATOM     21  C   UNL     1       0.044   9.400  20.739  0.00  0.00    +0.000 A 
ATOM     22  F   UNL     1      -0.181   9.111  22.047  0.00  0.00    +0.000 F 
ATOM     23  C   UNL     1      -0.807  10.299  20.089  0.00  0.00    +0.000 A 
ATOM     24  C   UNL     1      -0.608  10.609  18.744  0.00  0.00    +0.000 A 
ATOM     25  C   UNL     1       0.444  10.023  18.042  0.00  0.00    +0.000 A 
ATOM     26  C   UNL     1       1.311   9.121  18.680  0.00  0.00    +0.000 A 
ATOM     27 CL   UNL     1       2.604   8.419  17.711  0.00  0.00    +0.000 Cl
ENDBRANCH  19  20
ENDBRANCH  17  19
ENDBRANCH  16  17
ENDBRANCH   7  16
TORSDOF 6
ENDMDL
