MODEL 1
REMARK VINA RESULT:      -6.7      0.000      0.000
REMARK  Name = 
REMARK  5 active torsions:
REMARK  status: ('A' for Active; 'I' for Inactive)
REMARK    1  A    between atoms: C_1  and  N_2
REMARK    2  A    between atoms: N_9  and  C_10
REMARK    3  A    between atoms: N_13  and  C_14
REMARK    4  A    between atoms: C_15  and  C_16
REMARK    5  A    between atoms: C_22  and  C_23
REMARK                            x       y       z     vdW  Elec       q    Type
REMARK                         _______ _______ _______ _____ _____    ______ ____
ROOT
ATOM      1  C   UNL     1      -5.472  12.563  24.480  0.00  0.00    +0.000 C 
ATOM      2  N   UNL     1      -5.391  12.571  23.026  0.00  0.00    +0.000 NA
ATOM      3  C   UNL     1      -6.938  12.204  22.107  0.00  0.00    +0.000 C 
ATOM      4  C   UNL     1      -6.676  11.854  20.091  0.00  0.00    +0.000 C 
ATOM      5  C   UNL     1      -4.837  12.090  19.459  0.00  0.00    +0.000 A 
ATOM      6  C   UNL     1      -3.589  12.422  20.469  0.00  0.00    +0.000 A 
ATOM      7  C   UNL     1      -2.477  12.266  19.718  0.00  0.00    +0.000 A 
ATOM      8  C   UNL     1      -2.873  11.939  18.425  0.00  0.00    +0.000 A 
ATOM      9  N   UNL     1      -4.252  11.826  18.269  0.00  0.00    +0.000 N 
ATOM     10  C   UNL     1      -4.963  11.392  17.068  0.00  0.00    +0.000 C 
ATOM     11  C   UNL     1      -1.833  11.685  17.369  0.00  0.00    +0.000 C 
ATOM     12  C   UNL     1      -0.355  11.680  17.883  0.00  0.00    +0.000 C 
ATOM     13  N   UNL     1      -0.073  12.395  19.152  0.00  0.00    +0.000 NA
ATOM     14  C   UNL     1       0.660  13.665  19.062  0.00  0.00    +0.000 C 
ATOM     15  C   UNL     1      -1.073  12.351  20.236  0.00  0.00    +0.000 C 
ATOM     16  C   UNL     1      -3.731  12.754  22.306  0.00  0.00    +0.000 C 
ENDROOT
BRANCH  15  17
ATOM     17  C   UNL     1      -0.773  11.213  21.201  0.00  0.00    +0.000 A 
ATOM     18  C   UNL     1      -0.687   9.878  20.770  0.00  0.00    +0.000 A 
ATOM     19  C   UNL     1      -0.409   8.857  21.684  0.00  0.00    +0.000 A 
ATOM     20  C   UNL     1      -0.230   9.172  23.030  0.00  0.00    +0.000 A 
ATOM     21  N   UNL     1      -0.316  10.463  23.440  0.00  0.00    +0.000 NA
ATOM     22  C   UNL     1      -0.572  11.475  22.570  0.00  0.00    +0.000 A 
ENDBRANCH  15  17
BRANCH  16  23
ATOM     23  C   UNL     1      -2.867  14.020  22.609  0.00  0.00    +0.000 A 
ATOM     24  C   UNL     1      -1.915  14.080  23.676  0.00  0.00    +0.000 A 
ATOM     25  C   UNL     1      -1.220  15.242  23.972  0.00  0.00    +0.000 A 
ATOM     26  C   UNL     1      -1.482  16.385  23.238  0.00  0.00    +0.000 A 
ATOM     27  N   UNL     1      -2.402  16.353  22.238  0.00  0.00    +0.000 NA
ATOM     28  C   UNL     1      -3.083  15.219  21.909  0.00  0.00    +0.000 A 
ENDBRANCH  16  23
TORSDOF 2
ENDMDL
MODEL 2
REMARK VINA RESULT:      -6.5      9.516     13.239
REMARK  Name = 
REMARK  5 active torsions:
REMARK  status: ('A' for Active; 'I' for Inactive)
REMARK    1  A    between atoms: C_1  and  N_2
REMARK    2  A    between atoms: N_9  and  C_10
REMARK    3  A    between atoms: N_13  and  C_14
REMARK    4  A    between atoms: C_15  and  C_16
REMARK    5  A    between atoms: C_22  and  C_23
REMARK                            x       y       z     vdW  Elec       q    Type
REMARK                         _______ _______ _______ _____ _____    ______ ____
ROOT
ATOM      1  C   UNL     1       7.678  11.727  22.988  0.00  0.00    +0.000 C 
ATOM      2  N   UNL     1       8.487  12.935  22.899  0.00  0.00    +0.000 NA
ATOM      3  C   UNL     1       8.811  13.834  24.467  0.00  0.00    +0.000 C 
ATOM      4  C   UNL     1       9.621  15.715  24.226  0.00  0.00    +0.000 C 
ATOM      5  C   UNL     1      10.030  16.190  22.369  0.00  0.00    +0.000 A 
ATOM      6  C   UNL     1       9.649  15.222  21.102  0.00  0.00    +0.000 A 
ATOM      7  C   UNL     1       9.854  15.981  20.004  0.00  0.00    +0.000 A 
ATOM      8  C   UNL     1      10.331  17.220  20.420  0.00  0.00    +0.000 A 
ATOM      9  N   UNL     1      10.429  17.352  21.804  0.00  0.00    +0.000 N 
ATOM     10  C   UNL     1      10.791  18.559  22.543  0.00  0.00    +0.000 C 
ATOM     11  C   UNL     1      10.630  18.284  19.401  0.00  0.00    +0.000 C 
ATOM     12  C   UNL     1      10.228  17.925  17.932  0.00  0.00    +0.000 C 
ATOM     13  N   UNL     1      10.093  16.486  17.595  0.00  0.00    +0.000 NA
ATOM     14  C   UNL     1      11.139  15.889  16.754  0.00  0.00    +0.000 C 
ATOM     15  C   UNL     1       9.530  15.565  18.601  0.00  0.00    +0.000 C 
ATOM     16  C   UNL     1       8.913  13.504  21.225  0.00  0.00    +0.000 C 
ENDROOT
BRANCH  15  17
ATOM     17  C   UNL     1       8.028  15.407  18.407  0.00  0.00    +0.000 A 
ATOM     18  C   UNL     1       7.110  16.322  18.952  0.00  0.00    +0.000 A 
ATOM     19  C   UNL     1       5.737  16.146  18.752  0.00  0.00    +0.000 A 
ATOM     20  C   UNL     1       5.285  15.049  18.019  0.00  0.00    +0.000 A 
ATOM     21  N   UNL     1       6.177  14.170  17.498  0.00  0.00    +0.000 NA
ATOM     22  C   UNL     1       7.517  14.324  17.667  0.00  0.00    +0.000 A 
ENDBRANCH  15  17
BRANCH  16  23
ATOM     23  C   UNL     1       9.727  12.589  20.255  0.00  0.00    +0.000 A 
ATOM     24  C   UNL     1      11.155  12.510  20.269  0.00  0.00    +0.000 A 
ATOM     25  C   UNL     1      11.855  11.751  19.345  0.00  0.00    +0.000 A 
ATOM     26  C   UNL     1      11.153  11.081  18.358  0.00  0.00    +0.000 A 
ATOM     27  N   UNL     1       9.797  11.167  18.314  0.00  0.00    +0.000 NA
ATOM     28  C   UNL     1       9.081  11.885  19.224  0.00  0.00    +0.000 A 
ENDBRANCH  16  23
TORSDOF 2
ENDMDL
MODEL 3
REMARK VINA RESULT:      -6.3      9.460     13.096
REMARK  Name = 
REMARK  5 active torsions:
REMARK  status: ('A' for Active; 'I' for Inactive)
REMARK    1  A    between atoms: C_1  and  N_2
REMARK    2  A    between atoms: N_9  and  C_10
REMARK    3  A    between atoms: N_13  and  C_14
REMARK    4  A    between atoms: C_15  and  C_16
REMARK    5  A    between atoms: C_22  and  C_23
REMARK                            x       y       z     vdW  Elec       q    Type
REMARK                         _______ _______ _______ _____ _____    ______ ____
ROOT
ATOM      1  C   UNL     1       7.625  11.682  23.256  0.00  0.00    +0.000 C 
ATOM      2  N   UNL     1       8.393  12.919  23.235  0.00  0.00    +0.000 NA
ATOM      3  C   UNL     1       8.678  13.746  24.849  0.00  0.00    +0.000 C 
ATOM      4  C   UNL     1       9.427  15.663  24.709  0.00  0.00    +0.000 C 
ATOM      5  C   UNL     1       9.830  16.246  22.883  0.00  0.00    +0.000 A 
ATOM      6  C   UNL     1       9.488  15.331  21.565  0.00  0.00    +0.000 A 
ATOM      7  C   UNL     1       9.673  16.153  20.509  0.00  0.00    +0.000 A 
ATOM      8  C   UNL     1      10.107  17.383  20.991  0.00  0.00    +0.000 A 
ATOM      9  N   UNL     1      10.193  17.447  22.380  0.00  0.00    +0.000 N 
ATOM     10  C   UNL     1      10.510  18.627  23.182  0.00  0.00    +0.000 C 
ATOM     11  C   UNL     1      10.376  18.508  20.029  0.00  0.00    +0.000 C 
ATOM     12  C   UNL     1       9.994  18.211  18.541  0.00  0.00    +0.000 C 
ATOM     13  N   UNL     1       9.909  16.788  18.130  0.00  0.00    +0.000 NA
ATOM     14  C   UNL     1      10.979  16.269  17.267  0.00  0.00    +0.000 C 
ATOM     15  C   UNL     1       9.371  15.799  19.084  0.00  0.00    +0.000 C 
ATOM     16  C   UNL     1       8.809  13.587  21.595  0.00  0.00    +0.000 C 
ENDROOT
BRANCH  15  17
ATOM     17  C   UNL     1       7.877  15.601  18.871  0.00  0.00    +0.000 A 
ATOM     18  C   UNL     1       7.376  14.732  17.886  0.00  0.00    +0.000 A 
ATOM     19  C   UNL     1       5.997  14.574  17.719  0.00  0.00    +0.000 A 
ATOM     20  C   UNL     1       5.121  15.296  18.530  0.00  0.00    +0.000 A 
ATOM     21  N   UNL     1       5.611  16.135  19.477  0.00  0.00    +0.000 NA
ATOM     22  C   UNL     1       6.947  16.297  19.668  0.00  0.00    +0.000 A 
ENDBRANCH  15  17
BRANCH  16  23
ATOM     23  C   UNL     1       9.659  12.750  20.586  0.00  0.00    +0.000 A 
ATOM     24  C   UNL     1      11.083  12.643  20.663  0.00  0.00    +0.000 A 
ATOM     25  C   UNL     1      11.818  11.959  19.707  0.00  0.00    +0.000 A 
ATOM     26  C   UNL     1      11.158  11.396  18.630  0.00  0.00    +0.000 A 
ATOM     27  N   UNL     1       9.807  11.512  18.526  0.00  0.00    +0.000 NA
ATOM     28  C   UNL     1       9.056  12.157  19.463  0.00  0.00    +0.000 A 
ENDBRANCH  16  23
TORSDOF 2
ENDMDL
MODEL 4
REMARK VINA RESULT:      -6.2      9.476     13.189
REMARK  Name = 
REMARK  5 active torsions:
REMARK  status: ('A' for Active; 'I' for Inactive)
REMARK    1  A    between atoms: C_1  and  N_2
REMARK    2  A    between atoms: N_9  and  C_10
REMARK    3  A    between atoms: N_13  and  C_14
REMARK    4  A    between atoms: C_15  and  C_16
REMARK    5  A    between atoms: C_22  and  C_23
REMARK                            x       y       z     vdW  Elec       q    Type
REMARK                         _______ _______ _______ _____ _____    ______ ____
ROOT
ATOM      1  C   UNL     1       7.819  11.416  22.577  0.00  0.00    +0.000 C 
ATOM      2  N   UNL     1       8.504  12.699  22.652  0.00  0.00    +0.000 NA
ATOM      3  C   UNL     1       8.696  13.442  24.320  0.00  0.00    +0.000 C 
ATOM      4  C   UNL     1       9.319  15.408  24.317  0.00  0.00    +0.000 C 
ATOM      5  C   UNL     1       9.725  16.128  22.540  0.00  0.00    +0.000 A 
ATOM      6  C   UNL     1       9.476  15.276  21.161  0.00  0.00    +0.000 A 
ATOM      7  C   UNL     1       9.631  16.172  20.161  0.00  0.00    +0.000 A 
ATOM      8  C   UNL     1       9.971  17.395  20.729  0.00  0.00    +0.000 A 
ATOM      9  N   UNL     1      10.020  17.379  22.121  0.00  0.00    +0.000 N 
ATOM     10  C   UNL     1      10.239  18.524  23.001  0.00  0.00    +0.000 C 
ATOM     11  C   UNL     1      10.187  18.592  19.844  0.00  0.00    +0.000 C 
ATOM     12  C   UNL     1       9.861  18.365  18.331  0.00  0.00    +0.000 C 
ATOM     13  N   UNL     1       9.880  16.966  17.833  0.00  0.00    +0.000 NA
ATOM     14  C   UNL     1      11.002  16.573  16.970  0.00  0.00    +0.000 C 
ATOM     15  C   UNL     1       9.386  15.888  18.710  0.00  0.00    +0.000 C 
ATOM     16  C   UNL     1       8.913  13.493  21.067  0.00  0.00    +0.000 C 
ENDROOT
BRANCH  15  17
ATOM     17  C   UNL     1       7.914  15.608  18.445  0.00  0.00    +0.000 A 
ATOM     18  C   UNL     1       7.489  14.453  17.765  0.00  0.00    +0.000 A 
ATOM     19  C   UNL     1       6.127  14.227  17.540  0.00  0.00    +0.000 A 
ATOM     20  C   UNL     1       5.195  15.164  17.984  0.00  0.00    +0.000 A 
ATOM     21  N   UNL     1       5.612  16.277  18.638  0.00  0.00    +0.000 NA
ATOM     22  C   UNL     1       6.928  16.514  18.880  0.00  0.00    +0.000 A 
ENDBRANCH  15  17
BRANCH  16  23
ATOM     23  C   UNL     1       9.840  12.776  20.033  0.00  0.00    +0.000 A 
ATOM     24  C   UNL     1       9.339  12.006  18.936  0.00  0.00    +0.000 A 
ATOM     25  C   UNL     1      10.182  11.316  18.081  0.00  0.00    +0.000 A 
ATOM     26  C   UNL     1      11.545  11.343  18.317  0.00  0.00    +0.000 A 
ATOM     27  N   UNL     1      12.037  12.047  19.371  0.00  0.00    +0.000 NA
ATOM     28  C   UNL     1      11.233  12.756  20.214  0.00  0.00    +0.000 A 
ENDBRANCH  16  23
TORSDOF 2
ENDMDL
MODEL 5
REMARK VINA RESULT:      -6.2      1.866      5.127
REMARK  Name = 
REMARK  5 active torsions:
REMARK  status: ('A' for Active; 'I' for Inactive)
REMARK    1  A    between atoms: C_1  and  N_2
REMARK    2  A    between atoms: N_9  and  C_10
REMARK    3  A    between atoms: N_13  and  C_14
REMARK    4  A    between atoms: C_15  and  C_16
REMARK    5  A    between atoms: C_22  and  C_23
REMARK                            x       y       z     vdW  Elec       q    Type
REMARK                         _______ _______ _______ _____ _____    ______ ____
ROOT
ATOM      1  C   UNL     1      -2.357  18.185  20.326  0.00  0.00    +0.000 C 
ATOM      2  N   UNL     1      -1.271  17.237  20.120  0.00  0.00    +0.000 NA
ATOM      3  C   UNL     1       0.066  17.743  18.968  0.00  0.00    +0.000 C 
ATOM      4  C   UNL     1       1.354  16.225  18.428  0.00  0.00    +0.000 C 
ATOM      5  C   UNL     1       1.018  14.518  19.329  0.00  0.00    +0.000 A 
ATOM      6  C   UNL     1      -0.254  14.283  20.336  0.00  0.00    +0.000 A 
ATOM      7  C   UNL     1      -0.290  12.949  20.553  0.00  0.00    +0.000 A 
ATOM      8  C   UNL     1       0.777  12.374  19.872  0.00  0.00    +0.000 A 
ATOM      9  N   UNL     1       1.542  13.285  19.147  0.00  0.00    +0.000 N 
ATOM     10  C   UNL     1       2.653  12.974  18.249  0.00  0.00    +0.000 C 
ATOM     11  C   UNL     1       0.975  10.884  19.919  0.00  0.00    +0.000 C 
ATOM     12  C   UNL     1      -0.161  10.088  20.643  0.00  0.00    +0.000 C 
ATOM     13  N   UNL     1      -1.001  10.832  21.615  0.00  0.00    +0.000 NA
ATOM     14  C   UNL     1      -0.798  10.546  23.041  0.00  0.00    +0.000 C 
ATOM     15  C   UNL     1      -1.357  12.235  21.326  0.00  0.00    +0.000 C 
ATOM     16  C   UNL     1      -1.471  15.597  20.881  0.00  0.00    +0.000 C 
ENDROOT
BRANCH  15  17
ATOM     17  C   UNL     1      -2.700  12.315  20.613  0.00  0.00    +0.000 A 
ATOM     18  C   UNL     1      -3.866  12.738  21.275  0.00  0.00    +0.000 A 
ATOM     19  C   UNL     1      -5.083  12.801  20.588  0.00  0.00    +0.000 A 
ATOM     20  C   UNL     1      -5.132  12.429  19.245  0.00  0.00    +0.000 A 
ATOM     21  N   UNL     1      -4.003  12.020  18.614  0.00  0.00    +0.000 NA
ATOM     22  C   UNL     1      -2.806  11.962  19.255  0.00  0.00    +0.000 A 
ENDBRANCH  15  17
BRANCH  16  23
ATOM     23  C   UNL     1      -1.639  15.451  22.427  0.00  0.00    +0.000 A 
ATOM     24  C   UNL     1      -2.903  15.551  23.090  0.00  0.00    +0.000 A 
ATOM     25  C   UNL     1      -3.011  15.497  24.470  0.00  0.00    +0.000 A 
ATOM     26  C   UNL     1      -1.861  15.381  25.230  0.00  0.00    +0.000 A 
ATOM     27  N   UNL     1      -0.649  15.311  24.618  0.00  0.00    +0.000 NA
ATOM     28  C   UNL     1      -0.513  15.337  23.261  0.00  0.00    +0.000 A 
ENDBRANCH  16  23
TORSDOF 2
ENDMDL
MODEL 6
REMARK VINA RESULT:      -6.1      1.910      5.031
REMARK  Name = 
REMARK  5 active torsions:
REMARK  status: ('A' for Active; 'I' for Inactive)
REMARK    1  A    between atoms: C_1  and  N_2
REMARK    2  A    between atoms: N_9  and  C_10
REMARK    3  A    between atoms: N_13  and  C_14
REMARK    4  A    between atoms: C_15  and  C_16
REMARK    5  A    between atoms: C_22  and  C_23
REMARK                            x       y       z     vdW  Elec       q    Type
REMARK                         _______ _______ _______ _____ _____    ______ ____
ROOT
ATOM      1  C   UNL     1      -3.866  16.858  20.292  0.00  0.00    +0.000 C 
ATOM      2  N   UNL     1      -2.505  16.375  20.102  0.00  0.00    +0.000 NA
ATOM      3  C   UNL     1      -1.248  17.614  19.596  0.00  0.00    +0.000 C 
ATOM      4  C   UNL     1       0.548  16.811  18.978  0.00  0.00    +0.000 C 
ATOM      5  C   UNL     1       0.667  14.862  19.148  0.00  0.00    +0.000 A 
ATOM      6  C   UNL     1      -0.598  13.936  19.629  0.00  0.00    +0.000 A 
ATOM      7  C   UNL     1      -0.216  12.664  19.386  0.00  0.00    +0.000 A 
ATOM      8  C   UNL     1       1.080  12.693  18.881  0.00  0.00    +0.000 A 
ATOM      9  N   UNL     1       1.600  13.977  18.732  0.00  0.00    +0.000 N 
ATOM     10  C   UNL     1       2.882  14.337  18.130  0.00  0.00    +0.000 C 
ATOM     11  C   UNL     1       1.760  11.407  18.498  0.00  0.00    +0.000 C 
ATOM     12  C   UNL     1       0.857  10.131  18.579  0.00  0.00    +0.000 C 
ATOM     13  N   UNL     1      -0.333  10.195  19.464  0.00  0.00    +0.000 NA
ATOM     14  C   UNL     1      -0.282   9.432  20.719  0.00  0.00    +0.000 C 
ATOM     15  C   UNL     1      -1.089  11.458  19.556  0.00  0.00    +0.000 C 
ATOM     16  C   UNL     1      -2.261  14.576  20.206  0.00  0.00    +0.000 C 
ENDROOT
BRANCH  15  17
ATOM     17  C   UNL     1      -2.243  11.469  18.563  0.00  0.00    +0.000 A 
ATOM     18  C   UNL     1      -2.029  11.376  17.177  0.00  0.00    +0.000 A 
ATOM     19  C   UNL     1      -3.113  11.389  16.293  0.00  0.00    +0.000 A 
ATOM     20  C   UNL     1      -4.408  11.507  16.798  0.00  0.00    +0.000 A 
ATOM     21  N   UNL     1      -4.607  11.599  18.137  0.00  0.00    +0.000 NA
ATOM     22  C   UNL     1      -3.572  11.577  19.018  0.00  0.00    +0.000 A 
ENDBRANCH  15  17
BRANCH  16  23
ATOM     23  C   UNL     1      -2.621  13.796  21.511  0.00  0.00    +0.000 A 
ATOM     24  C   UNL     1      -1.665  13.497  22.532  0.00  0.00    +0.000 A 
ATOM     25  C   UNL     1      -1.994  12.735  23.642  0.00  0.00    +0.000 A 
ATOM     26  C   UNL     1      -3.273  12.218  23.745  0.00  0.00    +0.000 A 
ATOM     27  N   UNL     1      -4.187  12.470  22.771  0.00  0.00    +0.000 NA
ATOM     28  C   UNL     1      -3.899  13.236  21.680  0.00  0.00    +0.000 A 
ENDBRANCH  16  23
TORSDOF 2
ENDMDL
MODEL 7
REMARK VINA RESULT:      -6.1      2.151      5.810
REMARK  Name = 
REMARK  5 active torsions:
REMARK  status: ('A' for Active; 'I' for Inactive)
REMARK    1  A    between atoms: C_1  and  N_2
REMARK    2  A    between atoms: N_9  and  C_10
REMARK    3  A    between atoms: N_13  and  C_14
REMARK    4  A    between atoms: C_15  and  C_16
REMARK    5  A    between atoms: C_22  and  C_23
REMARK                            x       y       z     vdW  Elec       q    Type
REMARK                         _______ _______ _______ _____ _____    ______ ____
ROOT
ATOM      1  C   UNL     1      -0.760  10.121  23.093  0.00  0.00    +0.000 C 
ATOM      2  N   UNL     1      -0.480  11.144  22.095  0.00  0.00    +0.000 NA
ATOM      3  C   UNL     1       0.946  10.845  20.978  0.00  0.00    +0.000 C 
ATOM      4  C   UNL     1       1.519  12.483  19.862  0.00  0.00    +0.000 C 
ATOM      5  C   UNL     1       0.373  14.057  20.083  0.00  0.00    +0.000 A 
ATOM      6  C   UNL     1      -0.867  14.106  21.155  0.00  0.00    +0.000 A 
ATOM      7  C   UNL     1      -1.247  15.402  21.194  0.00  0.00    +0.000 A 
ATOM      8  C   UNL     1      -0.460  16.109  20.290  0.00  0.00    +0.000 A 
ATOM      9  N   UNL     1       0.495  15.329  19.642  0.00  0.00    +0.000 N 
ATOM     10  C   UNL     1       1.532  15.799  18.726  0.00  0.00    +0.000 C 
ATOM     11  C   UNL     1      -0.652  17.592  20.137  0.00  0.00    +0.000 C 
ATOM     12  C   UNL     1      -1.659  18.238  21.146  0.00  0.00    +0.000 C 
ATOM     13  N   UNL     1      -2.667  17.344  21.768  0.00  0.00    +0.000 NA
ATOM     14  C   UNL     1      -4.058  17.478  21.315  0.00  0.00    +0.000 C 
ATOM     15  C   UNL     1      -2.279  15.965  22.124  0.00  0.00    +0.000 C 
ATOM     16  C   UNL     1      -1.457  12.674  22.207  0.00  0.00    +0.000 C 
ENDROOT
BRANCH  15  17
ATOM     17  C   UNL     1      -1.813  15.893  23.571  0.00  0.00    +0.000 A 
ATOM     18  C   UNL     1      -2.669  15.473  24.605  0.00  0.00    +0.000 A 
ATOM     19  C   UNL     1      -2.207  15.417  25.924  0.00  0.00    +0.000 A 
ATOM     20  C   UNL     1      -0.895  15.794  26.207  0.00  0.00    +0.000 A 
ATOM     21  N   UNL     1      -0.075  16.200  25.205  0.00  0.00    +0.000 NA
ATOM     22  C   UNL     1      -0.496  16.251  23.913  0.00  0.00    +0.000 A 
ENDBRANCH  15  17
BRANCH  16  23
ATOM     23  C   UNL     1      -3.015  12.635  22.091  0.00  0.00    +0.000 A 
ATOM     24  C   UNL     1      -3.710  12.775  20.849  0.00  0.00    +0.000 A 
ATOM     25  C   UNL     1      -5.094  12.817  20.786  0.00  0.00    +0.000 A 
ATOM     26  C   UNL     1      -5.821  12.758  21.962  0.00  0.00    +0.000 A 
ATOM     27  N   UNL     1      -5.175  12.653  23.154  0.00  0.00    +0.000 NA
ATOM     28  C   UNL     1      -3.817  12.584  23.244  0.00  0.00    +0.000 A 
ENDBRANCH  16  23
TORSDOF 2
ENDMDL
MODEL 8
REMARK VINA RESULT:      -6.1      1.898      3.115
REMARK  Name = 
REMARK  5 active torsions:
REMARK  status: ('A' for Active; 'I' for Inactive)
REMARK    1  A    between atoms: C_1  and  N_2
REMARK    2  A    between atoms: N_9  and  C_10
REMARK    3  A    between atoms: N_13  and  C_14
REMARK    4  A    between atoms: C_15  and  C_16
REMARK    5  A    between atoms: C_22  and  C_23
REMARK                            x       y       z     vdW  Elec       q    Type
REMARK                         _______ _______ _______ _____ _____    ______ ____
ROOT
ATOM      1  C   UNL     1      -1.128  15.561  25.535  0.00  0.00    +0.000 C 
ATOM      2  N   UNL     1      -2.112  15.331  24.487  0.00  0.00    +0.000 NA
ATOM      3  C   UNL     1      -3.866  15.673  24.906  0.00  0.00    +0.000 C 
ATOM      4  C   UNL     1      -5.230  14.970  23.527  0.00  0.00    +0.000 C 
ATOM      5  C   UNL     1      -4.428  14.161  21.933  0.00  0.00    +0.000 A 
ATOM      6  C   UNL     1      -2.811  13.952  21.764  0.00  0.00    +0.000 A 
ATOM      7  C   UNL     1      -2.670  13.157  20.680  0.00  0.00    +0.000 A 
ATOM      8  C   UNL     1      -3.937  12.903  20.165  0.00  0.00    +0.000 A 
ATOM      9  N   UNL     1      -4.971  13.481  20.898  0.00  0.00    +0.000 N 
ATOM     10  C   UNL     1      -6.405  13.306  20.674  0.00  0.00    +0.000 C 
ATOM     11  C   UNL     1      -4.087  12.021  18.956  0.00  0.00    +0.000 C 
ATOM     12  C   UNL     1      -2.766  11.341  18.465  0.00  0.00    +0.000 C 
ATOM     13  N   UNL     1      -1.485  11.980  18.856  0.00  0.00    +0.000 NA
ATOM     14  C   UNL     1      -0.734  12.683  17.807  0.00  0.00    +0.000 C 
ATOM     15  C   UNL     1      -1.369  12.593  20.193  0.00  0.00    +0.000 C 
ATOM     16  C   UNL     1      -1.502  14.554  22.959  0.00  0.00    +0.000 C 
ENDROOT
BRANCH  15  17
ATOM     17  C   UNL     1      -0.793  11.600  21.193  0.00  0.00    +0.000 A 
ATOM     18  C   UNL     1      -1.512  11.188  22.328  0.00  0.00    +0.000 A 
ATOM     19  C   UNL     1      -0.952  10.273  23.225  0.00  0.00    +0.000 A 
ATOM     20  C   UNL     1       0.333   9.783  22.992  0.00  0.00    +0.000 A 
ATOM     21  N   UNL     1       1.023  10.187  21.896  0.00  0.00    +0.000 NA
ATOM     22  C   UNL     1       0.496  11.065  21.002  0.00  0.00    +0.000 A 
ENDBRANCH  15  17
BRANCH  16  23
ATOM     23  C   UNL     1      -0.387  15.240  22.107  0.00  0.00    +0.000 A 
ATOM     24  C   UNL     1       0.951  14.740  22.023  0.00  0.00    +0.000 A 
ATOM     25  C   UNL     1       1.941  15.413  21.323  0.00  0.00    +0.000 A 
ATOM     26  C   UNL     1       1.634  16.620  20.722  0.00  0.00    +0.000 A 
ATOM     27  N   UNL     1       0.375  17.124  20.814  0.00  0.00    +0.000 NA
ATOM     28  C   UNL     1      -0.625  16.472  21.474  0.00  0.00    +0.000 A 
ENDBRANCH  16  23
TORSDOF 2
ENDMDL
MODEL 9
REMARK VINA RESULT:      -6.1      1.896      5.095
REMARK  Name = 
REMARK  5 active torsions:
REMARK  status: ('A' for Active; 'I' for Inactive)
REMARK    1  A    between atoms: C_1  and  N_2
REMARK    2  A    between atoms: N_9  and  C_10
REMARK    3  A    between atoms: N_13  and  C_14
REMARK    4  A    between atoms: C_15  and  C_16
REMARK    5  A    between atoms: C_22  and  C_23
REMARK                            x       y       z     vdW  Elec       q    Type
REMARK                         _______ _______ _______ _____ _____    ______ ____
ROOT
ATOM      1  C   UNL     1      -3.830  17.049  20.250  0.00  0.00    +0.000 C 
ATOM      2  N   UNL     1      -2.478  16.541  20.064  0.00  0.00    +0.000 NA
ATOM      3  C   UNL     1      -1.210  17.743  19.500  0.00  0.00    +0.000 C 
ATOM      4  C   UNL     1       0.568  16.893  18.892  0.00  0.00    +0.000 C 
ATOM      5  C   UNL     1       0.662  14.950  19.131  0.00  0.00    +0.000 A 
ATOM      6  C   UNL     1      -0.610  14.060  19.658  0.00  0.00    +0.000 A 
ATOM      7  C   UNL     1      -0.248  12.774  19.457  0.00  0.00    +0.000 A 
ATOM      8  C   UNL     1       1.043  12.767  18.938  0.00  0.00    +0.000 A 
ATOM      9  N   UNL     1       1.578  14.037  18.737  0.00  0.00    +0.000 N 
ATOM     10  C   UNL     1       2.858  14.357  18.109  0.00  0.00    +0.000 C 
ATOM     11  C   UNL     1       1.700  11.459  18.595  0.00  0.00    +0.000 C 
ATOM     12  C   UNL     1       0.782  10.200  18.732  0.00  0.00    +0.000 C 
ATOM     13  N   UNL     1      -0.398  10.312  19.626  0.00  0.00    +0.000 NA
ATOM     14  C   UNL     1      -0.344   9.594  20.906  0.00  0.00    +0.000 C 
ATOM     15  C   UNL     1      -1.136  11.588  19.681  0.00  0.00    +0.000 C 
ATOM     16  C   UNL     1      -2.257  14.743  20.230  0.00  0.00    +0.000 C 
ENDROOT
BRANCH  15  17
ATOM     17  C   UNL     1      -2.301  11.580  18.700  0.00  0.00    +0.000 A 
ATOM     18  C   UNL     1      -3.633  11.703  19.130  0.00  0.00    +0.000 A 
ATOM     19  C   UNL     1      -4.678  11.693  18.201  0.00  0.00    +0.000 A 
ATOM     20  C   UNL     1      -4.389  11.547  16.845  0.00  0.00    +0.000 A 
ATOM     21  N   UNL     1      -3.100  11.426  16.437  0.00  0.00    +0.000 NA
ATOM     22  C   UNL     1      -2.066  11.446  17.318  0.00  0.00    +0.000 A 
ENDBRANCH  15  17
BRANCH  16  23
ATOM     23  C   UNL     1      -2.614  14.016  21.566  0.00  0.00    +0.000 A 
ATOM     24  C   UNL     1      -3.897  13.438  21.823  0.00  0.00    +0.000 A 
ATOM     25  C   UNL     1      -4.211  12.869  23.047  0.00  0.00    +0.000 A 
ATOM     26  C   UNL     1      -3.269  12.896  24.060  0.00  0.00    +0.000 A 
ATOM     27  N   UNL     1      -2.054  13.466  23.842  0.00  0.00    +0.000 NA
ATOM     28  C   UNL     1      -1.709  14.010  22.641  0.00  0.00    +0.000 A 
ENDBRANCH  16  23
TORSDOF 2
ENDMDL
