MODEL 1
REMARK VINA RESULT:      -7.9      0.000      0.000
REMARK  Name = 
REMARK  8 active torsions:
REMARK  status: ('A' for Active; 'I' for Inactive)
REMARK    1  A    between atoms: C_1  and  O_2
REMARK    2  A    between atoms: O_2  and  C_3
REMARK    3  A    between atoms: C_8  and  O_9
REMARK    4  A    between atoms: O_9  and  C_10
REMARK    5  A    between atoms: C_11  and  C_12
REMARK    6  A    between atoms: N_18  and  C_19
REMARK    7  A    between atoms: C_19  and  C_20
REMARK    8  A    between atoms: C_24  and  C_25
REMARK                            x       y       z     vdW  Elec       q    Type
REMARK                         _______ _______ _______ _____ _____    ______ ____
ROOT
ATOM      1  C   UNL     1       2.870   4.204  18.493  0.00  0.00    +0.000 C 
ATOM      2  C   UNL     1       1.699   3.279  18.140  0.00  0.00    +0.000 C 
ATOM      3  C   UNL     1       2.245   2.025  17.481  0.00  0.00    +0.000 C 
ATOM      4  C   UNL     1       3.182   1.302  18.430  0.00  0.00    +0.000 C 
ATOM      5  C   UNL     1       4.215   2.168  19.127  0.00  0.00    +0.000 C 
ATOM      6  O   UNL     1       5.151   1.626  19.712  0.00  0.00    +0.000 OA
ATOM      7  N   UNL     1       4.012   3.542  19.162  0.00  0.00    +0.000 N 
ENDROOT
BRANCH   1  14
ATOM      8  C   UNL     1       2.667   6.727  18.544  0.00  0.00    +0.000 A 
ATOM      9  C   UNL     1       2.273   7.928  19.125  0.00  0.00    +0.000 A 
ATOM     10  C   UNL     1       1.638   7.911  20.355  0.00  0.00    +0.000 A 
ATOM     11  F   UNL     1       1.248   9.072  20.903  0.00  0.00    +0.000 F 
ATOM     12  C   UNL     1       1.370   6.722  21.009  0.00  0.00    +0.000 A 
ATOM     13  C   UNL     1       1.745   5.498  20.444  0.00  0.00    +0.000 A 
ATOM     14  C   UNL     1       2.408   5.474  19.188  0.00  0.00    +0.000 A 
BRANCH   8  16
ATOM     15  C   UNL     1       4.188   7.719  16.982  0.00  0.00    +0.000 C 
ATOM     16  O   UNL     1       3.270   6.669  17.305  0.00  0.00    +0.000 OA
ENDBRANCH   8  16
BRANCH  13  17
ATOM     17  O   UNL     1       1.240   4.424  21.127  0.00  0.00    +0.000 OA
ATOM     18  C   UNL     1       2.137   3.586  21.844  0.00  0.00    +0.000 C 
ENDBRANCH  13  17
ENDBRANCH   1  14
BRANCH   7  19
ATOM     19  C   UNL     1       5.126   4.362  19.679  0.00  0.00    +0.000 C 
BRANCH  19  20
ATOM     20  C   UNL     1       6.024   5.019  18.644  0.00  0.00    +0.000 A 
ATOM     21  C   UNL     1       6.870   6.064  19.034  0.00  0.00    +0.000 A 
ATOM     22  C   UNL     1       7.691   6.704  18.106  0.00  0.00    +0.000 A 
ATOM     23  C   UNL     1       7.667   6.319  16.765  0.00  0.00    +0.000 A 
ATOM     24  C   UNL     1       6.832   5.283  16.324  0.00  0.00    +0.000 A 
ATOM     25  C   UNL     1       6.021   4.655  17.289  0.00  0.00    +0.000 A 
BRANCH  24  26
ATOM     26  C   UNL     1       6.812   4.824  14.915  0.00  0.00    +0.000 A 
ATOM     27  C   UNL     1       5.874   3.880  14.469  0.00  0.00    +0.000 A 
ATOM     28  C   UNL     1       5.826   3.476  13.130  0.00  0.00    +0.000 A 
ATOM     29  C   UNL     1       6.712   4.017  12.203  0.00  0.00    +0.000 A 
ATOM     30  C   UNL     1       7.652   4.953  12.615  0.00  0.00    +0.000 A 
ATOM     31  C   UNL     1       7.700   5.347  13.955  0.00  0.00    +0.000 A 
ENDBRANCH  24  26
ENDBRANCH  19  20
ENDBRANCH   7  19
TORSDOF 6
ENDMDL
MODEL 2
REMARK VINA RESULT:      -7.5      2.602      7.331
REMARK  Name = 
REMARK  8 active torsions:
REMARK  status: ('A' for Active; 'I' for Inactive)
REMARK    1  A    between atoms: C_1  and  O_2
REMARK    2  A    between atoms: O_2  and  C_3
REMARK    3  A    between atoms: C_8  and  O_9
REMARK    4  A    between atoms: O_9  and  C_10
REMARK    5  A    between atoms: C_11  and  C_12
REMARK    6  A    between atoms: N_18  and  C_19
REMARK    7  A    between atoms: C_19  and  C_20
REMARK    8  A    between atoms: C_24  and  C_25
REMARK                            x       y       z     vdW  Elec       q    Type
REMARK                         _______ _______ _______ _____ _____    ______ ____
ROOT
ATOM      1  C   UNL     1       4.784   4.126  18.469  0.00  0.00    +0.000 C 
ATOM      2  C   UNL     1       4.653   3.011  17.425  0.00  0.00    +0.000 C 
ATOM      3  C   UNL     1       3.694   1.957  17.949  0.00  0.00    +0.000 C 
ATOM      4  C   UNL     1       2.328   2.571  18.196  0.00  0.00    +0.000 C 
ATOM      5  C   UNL     1       2.321   3.886  18.954  0.00  0.00    +0.000 C 
ATOM      6  O   UNL     1       1.257   4.312  19.399  0.00  0.00    +0.000 OA
ATOM      7  N   UNL     1       3.504   4.611  19.033  0.00  0.00    +0.000 N 
ENDROOT
BRANCH   1  14
ATOM      8  C   UNL     1       6.757   5.656  18.887  0.00  0.00    +0.000 A 
ATOM      9  C   UNL     1       7.637   6.671  18.527  0.00  0.00    +0.000 A 
ATOM     10  C   UNL     1       7.482   7.302  17.304  0.00  0.00    +0.000 A 
ATOM     11  F   UNL     1       8.344   8.270  16.957  0.00  0.00    +0.000 F 
ATOM     12  C   UNL     1       6.481   6.929  16.425  0.00  0.00    +0.000 A 
ATOM     13  C   UNL     1       5.587   5.904  16.755  0.00  0.00    +0.000 A 
ATOM     14  C   UNL     1       5.707   5.240  18.005  0.00  0.00    +0.000 A 
BRANCH   8  16
ATOM     15  C   UNL     1       8.105   5.114  20.791  0.00  0.00    +0.000 C 
ATOM     16  O   UNL     1       6.876   4.962  20.072  0.00  0.00    +0.000 OA
ENDBRANCH   8  16
BRANCH  13  17
ATOM     17  O   UNL     1       4.789   5.541  15.705  0.00  0.00    +0.000 OA
ATOM     18  C   UNL     1       5.391   4.947  14.562  0.00  0.00    +0.000 C 
ENDBRANCH  13  17
ENDBRANCH   1  14
BRANCH   7  19
ATOM     19  C   UNL     1       3.503   5.782  19.933  0.00  0.00    +0.000 C 
BRANCH  19  20
ATOM     20  C   UNL     1       2.681   6.980  19.489  0.00  0.00    +0.000 A 
ATOM     21  C   UNL     1       2.680   7.347  18.137  0.00  0.00    +0.000 A 
ATOM     22  C   UNL     1       1.954   8.454  17.697  0.00  0.00    +0.000 A 
ATOM     23  C   UNL     1       1.231   9.225  18.607  0.00  0.00    +0.000 A 
ATOM     24  C   UNL     1       1.207   8.904  19.972  0.00  0.00    +0.000 A 
ATOM     25  C   UNL     1       1.946   7.776  20.379  0.00  0.00    +0.000 A 
BRANCH  24  26
ATOM     26  C   UNL     1       0.418   9.679  20.958  0.00  0.00    +0.000 A 
ATOM     27  C   UNL     1      -0.055  10.967  20.663  0.00  0.00    +0.000 A 
ATOM     28  C   UNL     1      -0.836  11.683  21.576  0.00  0.00    +0.000 A 
ATOM     29  C   UNL     1      -1.168  11.123  22.805  0.00  0.00    +0.000 A 
ATOM     30  C   UNL     1      -0.713   9.850  23.126  0.00  0.00    +0.000 A 
ATOM     31  C   UNL     1       0.072   9.141  22.213  0.00  0.00    +0.000 A 
ENDBRANCH  24  26
ENDBRANCH  19  20
ENDBRANCH   7  19
TORSDOF 6
ENDMDL
MODEL 3
REMARK VINA RESULT:      -7.3      0.334      2.300
REMARK  Name = 
REMARK  8 active torsions:
REMARK  status: ('A' for Active; 'I' for Inactive)
REMARK    1  A    between atoms: C_1  and  O_2
REMARK    2  A    between atoms: O_2  and  C_3
REMARK    3  A    between atoms: C_8  and  O_9
REMARK    4  A    between atoms: O_9  and  C_10
REMARK    5  A    between atoms: C_11  and  C_12
REMARK    6  A    between atoms: N_18  and  C_19
REMARK    7  A    between atoms: C_19  and  C_20
REMARK    8  A    between atoms: C_24  and  C_25
REMARK                            x       y       z     vdW  Elec       q    Type
REMARK                         _______ _______ _______ _____ _____    ______ ____
ROOT
ATOM      1  C   UNL     1       2.770   4.271  18.534  0.00  0.00    +0.000 C 
ATOM      2  C   UNL     1       1.592   3.341  18.221  0.00  0.00    +0.000 C 
ATOM      3  C   UNL     1       2.121   2.091  17.541  0.00  0.00    +0.000 C 
ATOM      4  C   UNL     1       3.095   1.371  18.456  0.00  0.00    +0.000 C 
ATOM      5  C   UNL     1       4.147   2.241  19.116  0.00  0.00    +0.000 C 
ATOM      6  O   UNL     1       5.105   1.702  19.667  0.00  0.00    +0.000 OA
ATOM      7  N   UNL     1       3.939   3.614  19.162  0.00  0.00    +0.000 N 
ENDROOT
BRANCH   1  14
ATOM      8  C   UNL     1       1.575   5.400  20.459  0.00  0.00    +0.000 A 
ATOM      9  C   UNL     1       1.136   6.517  21.163  0.00  0.00    +0.000 A 
ATOM     10  C   UNL     1       1.416   7.781  20.673  0.00  0.00    +0.000 A 
ATOM     11  F   UNL     1       1.003   8.854  21.365  0.00  0.00    +0.000 F 
ATOM     12  C   UNL     1       2.140   7.955  19.507  0.00  0.00    +0.000 A 
ATOM     13  C   UNL     1       2.603   6.851  18.784  0.00  0.00    +0.000 A 
ATOM     14  C   UNL     1       2.327   5.538  19.248  0.00  0.00    +0.000 A 
BRANCH   8  16
ATOM     15  C   UNL     1       2.220   3.643  21.954  0.00  0.00    +0.000 C 
ATOM     16  O   UNL     1       1.362   4.113  20.910  0.00  0.00    +0.000 OA
ENDBRANCH   8  16
BRANCH  13  17
ATOM     17  O   UNL     1       3.454   7.203  17.771  0.00  0.00    +0.000 OA
ATOM     18  C   UNL     1       3.417   8.536  17.279  0.00  0.00    +0.000 C 
ENDBRANCH  13  17
ENDBRANCH   1  14
BRANCH   7  19
ATOM     19  C   UNL     1       5.066   4.439  19.641  0.00  0.00    +0.000 C 
BRANCH  19  20
ATOM     20  C   UNL     1       5.937   5.083  18.575  0.00  0.00    +0.000 A 
ATOM     21  C   UNL     1       6.769   6.154  18.925  0.00  0.00    +0.000 A 
ATOM     22  C   UNL     1       7.565   6.784  17.969  0.00  0.00    +0.000 A 
ATOM     23  C   UNL     1       7.529   6.363  16.639  0.00  0.00    +0.000 A 
ATOM     24  C   UNL     1       6.707   5.301  16.237  0.00  0.00    +0.000 A 
ATOM     25  C   UNL     1       5.921   4.684  17.231  0.00  0.00    +0.000 A 
BRANCH  24  26
ATOM     26  C   UNL     1       6.675   4.804  14.842  0.00  0.00    +0.000 A 
ATOM     27  C   UNL     1       5.669   3.929  14.401  0.00  0.00    +0.000 A 
ATOM     28  C   UNL     1       5.612   3.493  13.074  0.00  0.00    +0.000 A 
ATOM     29  C   UNL     1       6.559   3.929  12.152  0.00  0.00    +0.000 A 
ATOM     30  C   UNL     1       7.567   4.795  12.558  0.00  0.00    +0.000 A 
ATOM     31  C   UNL     1       7.623   5.222  13.887  0.00  0.00    +0.000 A 
ENDBRANCH  24  26
ENDBRANCH  19  20
ENDBRANCH   7  19
TORSDOF 6
ENDMDL
MODEL 4
REMARK VINA RESULT:      -7.2      2.590      7.078
REMARK  Name = 
REMARK  8 active torsions:
REMARK  status: ('A' for Active; 'I' for Inactive)
REMARK    1  A    between atoms: C_1  and  O_2
REMARK    2  A    between atoms: O_2  and  C_3
REMARK    3  A    between atoms: C_8  and  O_9
REMARK    4  A    between atoms: O_9  and  C_10
REMARK    5  A    between atoms: C_11  and  C_12
REMARK    6  A    between atoms: N_18  and  C_19
REMARK    7  A    between atoms: C_19  and  C_20
REMARK    8  A    between atoms: C_24  and  C_25
REMARK                            x       y       z     vdW  Elec       q    Type
REMARK                         _______ _______ _______ _____ _____    ______ ____
ROOT
ATOM      1  C   UNL     1       4.921   4.107  18.331  0.00  0.00    +0.000 C 
ATOM      2  C   UNL     1       4.886   3.100  17.176  0.00  0.00    +0.000 C 
ATOM      3  C   UNL     1       3.869   2.019  17.496  0.00  0.00    +0.000 C 
ATOM      4  C   UNL     1       2.490   2.632  17.664  0.00  0.00    +0.000 C 
ATOM      5  C   UNL     1       2.420   3.868  18.543  0.00  0.00    +0.000 C 
ATOM      6  O   UNL     1       1.320   4.269  18.919  0.00  0.00    +0.000 OA
ATOM      7  N   UNL     1       3.595   4.560  18.809  0.00  0.00    +0.000 N 
ENDROOT
BRANCH   1  14
ATOM      8  C   UNL     1       5.767   5.975  16.848  0.00  0.00    +0.000 A 
ATOM      9  C   UNL     1       6.627   7.026  16.546  0.00  0.00    +0.000 A 
ATOM     10  C   UNL     1       7.634   7.357  17.437  0.00  0.00    +0.000 A 
ATOM     11  F   UNL     1       8.451   8.381  17.146  0.00  0.00    +0.000 F 
ATOM     12  C   UNL     1       7.791   6.674  18.630  0.00  0.00    +0.000 A 
ATOM     13  C   UNL     1       6.935   5.619  18.965  0.00  0.00    +0.000 A 
ATOM     14  C   UNL     1       5.896   5.243  18.072  0.00  0.00    +0.000 A 
BRANCH   8  16
ATOM     15  C   UNL     1       5.054   5.231  14.686  0.00  0.00    +0.000 C 
ATOM     16  O   UNL     1       4.721   5.618  16.023  0.00  0.00    +0.000 OA
ENDBRANCH   8  16
BRANCH  13  17
ATOM     17  O   UNL     1       7.111   5.185  20.251  0.00  0.00    +0.000 OA
ATOM     18  C   UNL     1       8.424   5.174  20.795  0.00  0.00    +0.000 C 
ENDBRANCH  13  17
ENDBRANCH   1  14
BRANCH   7  19
ATOM     19  C   UNL     1       3.514   5.638  19.815  0.00  0.00    +0.000 C 
BRANCH  19  20
ATOM     20  C   UNL     1       2.744   6.885  19.413  0.00  0.00    +0.000 A 
ATOM     21  C   UNL     1       2.833   7.351  18.096  0.00  0.00    +0.000 A 
ATOM     22  C   UNL     1       2.158   8.504  17.698  0.00  0.00    +0.000 A 
ATOM     23  C   UNL     1       1.395   9.223  18.618  0.00  0.00    +0.000 A 
ATOM     24  C   UNL     1       1.281   8.803  19.951  0.00  0.00    +0.000 A 
ATOM     25  C   UNL     1       1.972   7.630  20.316  0.00  0.00    +0.000 A 
BRANCH  24  26
ATOM     26  C   UNL     1       0.448   9.522  20.943  0.00  0.00    +0.000 A 
ATOM     27  C   UNL     1       0.329   9.063  22.264  0.00  0.00    +0.000 A 
ATOM     28  C   UNL     1      -0.423   9.763  23.214  0.00  0.00    +0.000 A 
ATOM     29  C   UNL     1      -1.067  10.946  22.864  0.00  0.00    +0.000 A 
ATOM     30  C   UNL     1      -0.968  11.425  21.563  0.00  0.00    +0.000 A 
ATOM     31  C   UNL     1      -0.221  10.717  20.617  0.00  0.00    +0.000 A 
ENDBRANCH  24  26
ENDBRANCH  19  20
ENDBRANCH   7  19
TORSDOF 6
ENDMDL
MODEL 5
REMARK VINA RESULT:      -7.1      7.339     11.193
REMARK  Name = 
REMARK  8 active torsions:
REMARK  status: ('A' for Active; 'I' for Inactive)
REMARK    1  A    between atoms: C_1  and  O_2
REMARK    2  A    between atoms: O_2  and  C_3
REMARK    3  A    between atoms: C_8  and  O_9
REMARK    4  A    between atoms: O_9  and  C_10
REMARK    5  A    between atoms: C_11  and  C_12
REMARK    6  A    between atoms: N_18  and  C_19
REMARK    7  A    between atoms: C_19  and  C_20
REMARK    8  A    between atoms: C_24  and  C_25
REMARK                            x       y       z     vdW  Elec       q    Type
REMARK                         _______ _______ _______ _____ _____    ______ ____
ROOT
ATOM      1  C   UNL     1      -0.695  11.159  21.471  0.00  0.00    +0.000 C 
ATOM      2  C   UNL     1      -0.231  10.463  22.756  0.00  0.00    +0.000 C 
ATOM      3  C   UNL     1      -0.203   8.964  22.520  0.00  0.00    +0.000 C 
ATOM      4  C   UNL     1       0.762   8.630  21.397  0.00  0.00    +0.000 C 
ATOM      5  C   UNL     1       0.638   9.479  20.146  0.00  0.00    +0.000 C 
ATOM      6  O   UNL     1       1.209   9.114  19.120  0.00  0.00    +0.000 OA
ATOM      7  N   UNL     1      -0.035  10.691  20.231  0.00  0.00    +0.000 N 
ENDROOT
BRANCH   1  14
ATOM      8  C   UNL     1      -1.976  13.300  21.898  0.00  0.00    +0.000 A 
ATOM      9  C   UNL     1      -2.072  14.680  22.041  0.00  0.00    +0.000 A 
ATOM     10  C   UNL     1      -0.938  15.459  21.887  0.00  0.00    +0.000 A 
ATOM     11  F   UNL     1      -1.035  16.789  22.040  0.00  0.00    +0.000 F 
ATOM     12  C   UNL     1       0.292  14.890  21.612  0.00  0.00    +0.000 A 
ATOM     13  C   UNL     1       0.422  13.504  21.474  0.00  0.00    +0.000 A 
ATOM     14  C   UNL     1      -0.720  12.671  21.614  0.00  0.00    +0.000 A 
BRANCH   8  16
ATOM     15  C   UNL     1      -3.678  12.470  23.365  0.00  0.00    +0.000 C 
ATOM     16  O   UNL     1      -3.058  12.462  22.075  0.00  0.00    +0.000 OA
ENDBRANCH   8  16
BRANCH  13  17
ATOM     17  O   UNL     1       1.727  13.101  21.394  0.00  0.00    +0.000 OA
ATOM     18  C   UNL     1       2.726  14.072  21.108  0.00  0.00    +0.000 C 
ENDBRANCH  13  17
ENDBRANCH   1  14
BRANCH   7  19
ATOM     19  C   UNL     1      -0.296  11.394  18.959  0.00  0.00    +0.000 C 
BRANCH  19  20
ATOM     20  C   UNL     1      -1.610  11.074  18.264  0.00  0.00    +0.000 A 
ATOM     21  C   UNL     1      -1.631  10.110  17.249  0.00  0.00    +0.000 A 
ATOM     22  C   UNL     1      -2.813   9.807  16.575  0.00  0.00    +0.000 A 
ATOM     23  C   UNL     1      -3.994  10.479  16.893  0.00  0.00    +0.000 A 
ATOM     24  C   UNL     1      -4.023  11.458  17.896  0.00  0.00    +0.000 A 
ATOM     25  C   UNL     1      -2.811  11.734  18.560  0.00  0.00    +0.000 A 
BRANCH  24  26
ATOM     26  C   UNL     1      -5.267  12.162  18.286  0.00  0.00    +0.000 A 
ATOM     27  C   UNL     1      -6.245  12.495  17.335  0.00  0.00    +0.000 A 
ATOM     28  C   UNL     1      -7.439  13.121  17.706  0.00  0.00    +0.000 A 
ATOM     29  C   UNL     1      -7.687  13.422  19.042  0.00  0.00    +0.000 A 
ATOM     30  C   UNL     1      -6.738  13.106  20.006  0.00  0.00    +0.000 A 
ATOM     31  C   UNL     1      -5.543  12.486  19.628  0.00  0.00    +0.000 A 
ENDBRANCH  24  26
ENDBRANCH  19  20
ENDBRANCH   7  19
TORSDOF 6
ENDMDL
MODEL 6
REMARK VINA RESULT:      -7.0      2.857      7.400
REMARK  Name = 
REMARK  8 active torsions:
REMARK  status: ('A' for Active; 'I' for Inactive)
REMARK    1  A    between atoms: C_1  and  O_2
REMARK    2  A    between atoms: O_2  and  C_3
REMARK    3  A    between atoms: C_8  and  O_9
REMARK    4  A    between atoms: O_9  and  C_10
REMARK    5  A    between atoms: C_11  and  C_12
REMARK    6  A    between atoms: N_18  and  C_19
REMARK    7  A    between atoms: C_19  and  C_20
REMARK    8  A    between atoms: C_24  and  C_25
REMARK                            x       y       z     vdW  Elec       q    Type
REMARK                         _______ _______ _______ _____ _____    ______ ____
ROOT
ATOM      1  C   UNL     1       3.980   3.910  19.585  0.00  0.00    +0.000 C 
ATOM      2  C   UNL     1       3.322   2.537  19.757  0.00  0.00    +0.000 C 
ATOM      3  C   UNL     1       2.702   2.459  21.141  0.00  0.00    +0.000 C 
ATOM      4  C   UNL     1       1.650   3.540  21.304  0.00  0.00    +0.000 C 
ATOM      5  C   UNL     1       2.057   4.931  20.855  0.00  0.00    +0.000 C 
ATOM      6  O   UNL     1       1.357   5.889  21.178  0.00  0.00    +0.000 OA
ATOM      7  N   UNL     1       3.152   5.061  20.010  0.00  0.00    +0.000 N 
ENDROOT
BRANCH   1  14
ATOM      8  C   UNL     1       5.976   4.469  18.131  0.00  0.00    +0.000 A 
ATOM      9  C   UNL     1       6.606   4.645  16.903  0.00  0.00    +0.000 A 
ATOM     10  C   UNL     1       5.883   4.460  15.737  0.00  0.00    +0.000 A 
ATOM     11  F   UNL     1       6.501   4.617  14.556  0.00  0.00    +0.000 F 
ATOM     12  C   UNL     1       4.552   4.085  15.769  0.00  0.00    +0.000 A 
ATOM     13  C   UNL     1       3.895   3.890  16.989  0.00  0.00    +0.000 A 
ATOM     14  C   UNL     1       4.599   4.081  18.207  0.00  0.00    +0.000 A 
BRANCH   8  16
ATOM     15  C   UNL     1       7.634   5.635  19.409  0.00  0.00    +0.000 C 
ATOM     16  O   UNL     1       6.646   4.602  19.330  0.00  0.00    +0.000 OA
ENDBRANCH   8  16
BRANCH  13  17
ATOM     17  O   UNL     1       2.650   3.343  16.837  0.00  0.00    +0.000 OA
ATOM     18  C   UNL     1       1.518   4.091  17.261  0.00  0.00    +0.000 C 
ENDBRANCH  13  17
ENDBRANCH   1  14
BRANCH   7  19
ATOM     19  C   UNL     1       3.628   6.435  19.751  0.00  0.00    +0.000 C 
BRANCH  19  20
ATOM     20  C   UNL     1       2.577   7.451  19.337  0.00  0.00    +0.000 A 
ATOM     21  C   UNL     1       2.363   7.700  17.976  0.00  0.00    +0.000 A 
ATOM     22  C   UNL     1       1.422   8.641  17.560  0.00  0.00    +0.000 A 
ATOM     23  C   UNL     1       0.691   9.366  18.502  0.00  0.00    +0.000 A 
ATOM     24  C   UNL     1       0.875   9.159  19.877  0.00  0.00    +0.000 A 
ATOM     25  C   UNL     1       1.829   8.196  20.260  0.00  0.00    +0.000 A 
BRANCH  24  26
ATOM     26  C   UNL     1       0.088   9.883  20.902  0.00  0.00    +0.000 A 
ATOM     27  C   UNL     1      -0.024   9.397  22.214  0.00  0.00    +0.000 A 
ATOM     28  C   UNL     1      -0.732  10.100  23.195  0.00  0.00    +0.000 A 
ATOM     29  C   UNL     1      -1.339  11.313  22.886  0.00  0.00    +0.000 A 
ATOM     30  C   UNL     1      -1.246  11.820  21.595  0.00  0.00    +0.000 A 
ATOM     31  C   UNL     1      -0.543  11.110  20.618  0.00  0.00    +0.000 A 
ENDBRANCH  24  26
ENDBRANCH  19  20
ENDBRANCH   7  19
TORSDOF 6
ENDMDL
MODEL 7
REMARK VINA RESULT:      -6.9      7.103     11.455
REMARK  Name = 
REMARK  8 active torsions:
REMARK  status: ('A' for Active; 'I' for Inactive)
REMARK    1  A    between atoms: C_1  and  O_2
REMARK    2  A    between atoms: O_2  and  C_3
REMARK    3  A    between atoms: C_8  and  O_9
REMARK    4  A    between atoms: O_9  and  C_10
REMARK    5  A    between atoms: C_11  and  C_12
REMARK    6  A    between atoms: N_18  and  C_19
REMARK    7  A    between atoms: C_19  and  C_20
REMARK    8  A    between atoms: C_24  and  C_25
REMARK                            x       y       z     vdW  Elec       q    Type
REMARK                         _______ _______ _______ _____ _____    ______ ____
ROOT
ATOM      1  C   UNL     1      -0.444  11.155  21.194  0.00  0.00    +0.000 C 
ATOM      2  C   UNL     1       0.296  10.219  22.156  0.00  0.00    +0.000 C 
ATOM      3  C   UNL     1       0.269   8.811  21.589  0.00  0.00    +0.000 C 
ATOM      4  C   UNL     1       0.956   8.779  20.236  0.00  0.00    +0.000 C 
ATOM      5  C   UNL     1       0.555   9.875  19.266  0.00  0.00    +0.000 C 
ATOM      6  O   UNL     1       0.880   9.772  18.085  0.00  0.00    +0.000 OA
ATOM      7  N   UNL     1      -0.080  11.004  19.768  0.00  0.00    +0.000 N 
ENDROOT
BRANCH   1  14
ATOM      8  C   UNL     1      -1.626  13.111  22.282  0.00  0.00    +0.000 A 
ATOM      9  C   UNL     1      -1.688  14.422  22.744  0.00  0.00    +0.000 A 
ATOM     10  C   UNL     1      -0.585  15.246  22.598  0.00  0.00    +0.000 A 
ATOM     11  F   UNL     1      -0.646  16.505  23.059  0.00  0.00    +0.000 F 
ATOM     12  C   UNL     1       0.584  14.786  22.018  0.00  0.00    +0.000 A 
ATOM     13  C   UNL     1       0.679  13.469  21.554  0.00  0.00    +0.000 A 
ATOM     14  C   UNL     1      -0.435  12.596  21.676  0.00  0.00    +0.000 A 
BRANCH   8  16
ATOM     15  C   UNL     1      -3.395  12.277  23.664  0.00  0.00    +0.000 C 
ATOM     16  O   UNL     1      -2.674  12.227  22.429  0.00  0.00    +0.000 OA
ENDBRANCH   8  16
BRANCH  13  17
ATOM     17  O   UNL     1       1.953  13.130  21.187  0.00  0.00    +0.000 OA
ATOM     18  C   UNL     1       2.541  13.786  20.071  0.00  0.00    +0.000 C 
ENDBRANCH  13  17
ENDBRANCH   1  14
BRANCH   7  19
ATOM     19  C   UNL     1      -0.621  11.955  18.775  0.00  0.00    +0.000 C 
BRANCH  19  20
ATOM     20  C   UNL     1      -2.041  11.704  18.297  0.00  0.00    +0.000 A 
ATOM     21  C   UNL     1      -2.259  11.311  16.971  0.00  0.00    +0.000 A 
ATOM     22  C   UNL     1      -3.550  11.093  16.492  0.00  0.00    +0.000 A 
ATOM     23  C   UNL     1      -4.650  11.283  17.330  0.00  0.00    +0.000 A 
ATOM     24  C   UNL     1      -4.485  11.684  18.663  0.00  0.00    +0.000 A 
ATOM     25  C   UNL     1      -3.166  11.889  19.114  0.00  0.00    +0.000 A 
BRANCH  24  26
ATOM     26  C   UNL     1      -5.629  11.857  19.589  0.00  0.00    +0.000 A 
ATOM     27  C   UNL     1      -6.674  10.922  19.639  0.00  0.00    +0.000 A 
ATOM     28  C   UNL     1      -7.734  11.061  20.542  0.00  0.00    +0.000 A 
ATOM     29  C   UNL     1      -7.767  12.137  21.423  0.00  0.00    +0.000 A 
ATOM     30  C   UNL     1      -6.746  13.080  21.396  0.00  0.00    +0.000 A 
ATOM     31  C   UNL     1      -5.694  12.940  20.488  0.00  0.00    +0.000 A 
ENDBRANCH  24  26
ENDBRANCH  19  20
ENDBRANCH   7  19
TORSDOF 6
ENDMDL
MODEL 8
REMARK VINA RESULT:      -6.8      5.115      8.290
REMARK  Name = 
REMARK  8 active torsions:
REMARK  status: ('A' for Active; 'I' for Inactive)
REMARK    1  A    between atoms: C_1  and  O_2
REMARK    2  A    between atoms: O_2  and  C_3
REMARK    3  A    between atoms: C_8  and  O_9
REMARK    4  A    between atoms: O_9  and  C_10
REMARK    5  A    between atoms: C_11  and  C_12
REMARK    6  A    between atoms: N_18  and  C_19
REMARK    7  A    between atoms: C_19  and  C_20
REMARK    8  A    between atoms: C_24  and  C_25
REMARK                            x       y       z     vdW  Elec       q    Type
REMARK                         _______ _______ _______ _____ _____    ______ ____
ROOT
ATOM      1  C   UNL     1       0.957  12.703  20.809  0.00  0.00    +0.000 C 
ATOM      2  C   UNL     1       1.669  14.009  21.181  0.00  0.00    +0.000 C 
ATOM      3  C   UNL     1       3.140  13.884  20.829  0.00  0.00    +0.000 C 
ATOM      4  C   UNL     1       3.302  13.635  19.340  0.00  0.00    +0.000 C 
ATOM      5  C   UNL     1       2.403  12.566  18.748  0.00  0.00    +0.000 C 
ATOM      6  O   UNL     1       2.644  12.144  17.619  0.00  0.00    +0.000 OA
ATOM      7  N   UNL     1       1.279  12.174  19.464  0.00  0.00    +0.000 N 
ENDROOT
BRANCH   1  14
ATOM      8  C   UNL     1      -1.037  11.960  22.180  0.00  0.00    +0.000 A 
ATOM      9  C   UNL     1      -2.390  11.961  22.502  0.00  0.00    +0.000 A 
ATOM     10  C   UNL     1      -3.265  12.732  21.756  0.00  0.00    +0.000 A 
ATOM     11  F   UNL     1      -4.567  12.740  22.081  0.00  0.00    +0.000 F 
ATOM     12  C   UNL     1      -2.817  13.515  20.707  0.00  0.00    +0.000 A 
ATOM     13  C   UNL     1      -1.460  13.543  20.367  0.00  0.00    +0.000 A 
ATOM     14  C   UNL     1      -0.533  12.758  21.102  0.00  0.00    +0.000 A 
BRANCH   8  16
ATOM     15  C   UNL     1      -0.536   9.996  23.456  0.00  0.00    +0.000 C 
ATOM     16  O   UNL     1      -0.106  11.245  22.904  0.00  0.00    +0.000 OA
ENDBRANCH   8  16
BRANCH  13  17
ATOM     17  O   UNL     1      -1.168  14.505  19.438  0.00  0.00    +0.000 OA
ATOM     18  C   UNL     1      -1.163  15.867  19.845  0.00  0.00    +0.000 C 
ENDBRANCH  13  17
ENDBRANCH   1  14
BRANCH   7  19
ATOM     19  C   UNL     1       0.539  11.006  18.946  0.00  0.00    +0.000 C 
BRANCH  19  20
ATOM     20  C   UNL     1       1.055   9.637  19.359  0.00  0.00    +0.000 A 
ATOM     21  C   UNL     1       0.738   9.140  20.629  0.00  0.00    +0.000 A 
ATOM     22  C   UNL     1       1.213   7.898  21.050  0.00  0.00    +0.000 A 
ATOM     23  C   UNL     1       2.029   7.138  20.211  0.00  0.00    +0.000 A 
ATOM     24  C   UNL     1       2.381   7.596  18.933  0.00  0.00    +0.000 A 
ATOM     25  C   UNL     1       1.879   8.852  18.540  0.00  0.00    +0.000 A 
BRANCH  24  26
ATOM     26  C   UNL     1       3.214   6.797  18.004  0.00  0.00    +0.000 A 
ATOM     27  C   UNL     1       4.192   7.401  17.199  0.00  0.00    +0.000 A 
ATOM     28  C   UNL     1       5.008   6.643  16.352  0.00  0.00    +0.000 A 
ATOM     29  C   UNL     1       4.868   5.260  16.297  0.00  0.00    +0.000 A 
ATOM     30  C   UNL     1       3.907   4.634  17.081  0.00  0.00    +0.000 A 
ATOM     31  C   UNL     1       3.091   5.397  17.921  0.00  0.00    +0.000 A 
ENDBRANCH  24  26
ENDBRANCH  19  20
ENDBRANCH   7  19
TORSDOF 6
ENDMDL
MODEL 9
REMARK VINA RESULT:      -6.7      8.151     11.338
REMARK  Name = 
REMARK  8 active torsions:
REMARK  status: ('A' for Active; 'I' for Inactive)
REMARK    1  A    between atoms: C_1  and  O_2
REMARK    2  A    between atoms: O_2  and  C_3
REMARK    3  A    between atoms: C_8  and  O_9
REMARK    4  A    between atoms: O_9  and  C_10
REMARK    5  A    between atoms: C_11  and  C_12
REMARK    6  A    between atoms: N_18  and  C_19
REMARK    7  A    between atoms: C_19  and  C_20
REMARK    8  A    between atoms: C_24  and  C_25
REMARK                            x       y       z     vdW  Elec       q    Type
REMARK                         _______ _______ _______ _____ _____    ______ ____
ROOT
ATOM      1  C   UNL     1       0.374  12.589  21.197  0.00  0.00    +0.000 C 
ATOM      2  C   UNL     1       1.104  13.936  21.173  0.00  0.00    +0.000 C 
ATOM      3  C   UNL     1       2.505  13.726  20.624  0.00  0.00    +0.000 C 
ATOM      4  C   UNL     1       2.435  13.171  19.213  0.00  0.00    +0.000 C 
ATOM      5  C   UNL     1       1.479  12.011  19.006  0.00  0.00    +0.000 C 
ATOM      6  O   UNL     1       1.549  11.361  17.965  0.00  0.00    +0.000 OA
ATOM      7  N   UNL     1       0.492  11.788  19.958  0.00  0.00    +0.000 N 
ENDROOT
BRANCH   1  14
ATOM      8  C   UNL     1      -1.453  11.891  22.805  0.00  0.00    +0.000 A 
ATOM      9  C   UNL     1      -2.743  11.956  23.320  0.00  0.00    +0.000 A 
ATOM     10  C   UNL     1      -3.659  12.823  22.748  0.00  0.00    +0.000 A 
ATOM     11  F   UNL     1      -4.898  12.892  23.259  0.00  0.00    +0.000 F 
ATOM     12  C   UNL     1      -3.311  13.638  21.686  0.00  0.00    +0.000 A 
ATOM     13  C   UNL     1      -2.017  13.601  21.154  0.00  0.00    +0.000 A 
ATOM     14  C   UNL     1      -1.052  12.718  21.706  0.00  0.00    +0.000 A 
BRANCH   8  16
ATOM     15  C   UNL     1      -0.660   9.665  23.201  0.00  0.00    +0.000 C 
ATOM     16  O   UNL     1      -0.481  11.078  23.350  0.00  0.00    +0.000 OA
ENDBRANCH   8  16
BRANCH  13  17
ATOM     17  O   UNL     1      -1.793  14.597  20.242  0.00  0.00    +0.000 OA
ATOM     18  C   UNL     1      -2.028  15.944  20.630  0.00  0.00    +0.000 C 
ENDBRANCH  13  17
ENDBRANCH   1  14
BRANCH   7  19
ATOM     19  C   UNL     1      -0.293  10.545  19.818  0.00  0.00    +0.000 C 
BRANCH  19  20
ATOM     20  C   UNL     1      -1.382  10.544  18.757  0.00  0.00    +0.000 A 
ATOM     21  C   UNL     1      -1.136   9.930  17.523  0.00  0.00    +0.000 A 
ATOM     22  C   UNL     1      -2.104   9.930  16.519  0.00  0.00    +0.000 A 
ATOM     23  C   UNL     1      -3.331  10.561  16.727  0.00  0.00    +0.000 A 
ATOM     24  C   UNL     1      -3.622  11.196  17.943  0.00  0.00    +0.000 A 
ATOM     25  C   UNL     1      -2.623  11.172  18.936  0.00  0.00    +0.000 A 
BRANCH  24  26
ATOM     26  C   UNL     1      -4.929  11.842  18.210  0.00  0.00    +0.000 A 
ATOM     27  C   UNL     1      -5.423  11.975  19.516  0.00  0.00    +0.000 A 
ATOM     28  C   UNL     1      -6.636  12.621  19.774  0.00  0.00    +0.000 A 
ATOM     29  C   UNL     1      -7.381  13.157  18.728  0.00  0.00    +0.000 A 
ATOM     30  C   UNL     1      -6.918  13.040  17.423  0.00  0.00    +0.000 A 
ATOM     31  C   UNL     1      -5.708  12.387  17.171  0.00  0.00    +0.000 A 
ENDBRANCH  24  26
ENDBRANCH  19  20
ENDBRANCH   7  19
TORSDOF 6
ENDMDL
