MODEL 1
REMARK VINA RESULT:      -7.6      0.000      0.000
REMARK  Name = 
REMARK  6 active torsions:
REMARK  status: ('A' for Active; 'I' for Inactive)
REMARK    1  A    between atoms: C_1  and  O_2
REMARK    2  A    between atoms: O_2  and  C_3
REMARK    3  A    between atoms: C_6  and  C_7
REMARK    4  A    between atoms: C_7  and  C_8
REMARK    5  A    between atoms: C_8  and  N_9
REMARK    6  A    between atoms: C_10  and  C_12
REMARK                            x       y       z     vdW  Elec       q    Type
REMARK                         _______ _______ _______ _____ _____    ______ ____
ROOT
ATOM      1  N   UNL     1       7.423   6.752  18.217  0.00  0.00    +0.000 N 
ATOM      2  C   UNL     1       7.083   5.701  19.042  0.00  0.00    +0.000 C 
ATOM      3  O   UNL     1       7.554   5.458  20.143  0.00  0.00    +0.000 OA
ATOM      4  H   UNL     1       6.962   6.772  17.309  0.00  0.00    +0.000 HD
ENDROOT
BRANCH   2   5
ATOM      5  C   UNL     1       5.992   4.785  18.453  0.00  0.00    +0.000 C 
ATOM      6  O   UNL     1       6.102   4.456  17.279  0.00  0.00    +0.000 OA
ATOM      7  N   UNL     1       5.021   4.461  19.377  0.00  0.00    +0.000 N 
ATOM      8  C   UNL     1       3.912   3.654  19.107  0.00  0.00    +0.000 A 
ATOM      9  C   UNL     1       3.001   3.368  20.125  0.00  0.00    +0.000 A 
ATOM     10  N   UNL     1       1.903   2.590  19.948  0.00  0.00    +0.000 NA
ATOM     11  C   UNL     1       1.741   2.100  18.699  0.00  0.00    +0.000 A 
ATOM     12  C   UNL     1       2.633   2.379  17.683  0.00  0.00    +0.000 A 
ATOM     13  N   UNL     1       3.725   3.155  17.871  0.00  0.00    +0.000 NA
ATOM     14  H   UNL     1       5.149   4.843  20.309  0.00  0.00    +0.000 HD
ENDBRANCH   2   5
BRANCH   1  15
ATOM     15  C   UNL     1       8.446   7.718  18.567  0.00  0.00    +0.000 C 
BRANCH  15  16
ATOM     16  C   UNL     1       8.163   9.108  17.992  0.00  0.00    +0.000 C 
BRANCH  16  20
ATOM     17  C   UNL     1      10.751  12.147  19.670  0.00  0.00    +0.000 A 
ATOM     18  C   UNL     1      10.654  11.980  18.288  0.00  0.00    +0.000 A 
ATOM     19  C   UNL     1       9.813  11.005  17.745  0.00  0.00    +0.000 A 
ATOM     20  C   UNL     1       9.065  10.168  18.580  0.00  0.00    +0.000 A 
ATOM     21  C   UNL     1       9.186  10.320  19.968  0.00  0.00    +0.000 A 
ATOM     22  C   UNL     1      10.023  11.304  20.510  0.00  0.00    +0.000 A 
BRANCH  17  24
ATOM     23  C   UNL     1      12.192  13.916  19.045  0.00  0.00    +0.000 C 
ATOM     24  O   UNL     1      11.611  13.128  20.079  0.00  0.00    +0.000 OA
ENDBRANCH  17  24
ENDBRANCH  16  20
ENDBRANCH  15  16
ENDBRANCH   1  15
TORSDOF 5
ENDMDL
MODEL 2
REMARK VINA RESULT:      -7.5      5.250      7.531
REMARK  Name = 
REMARK  6 active torsions:
REMARK  status: ('A' for Active; 'I' for Inactive)
REMARK    1  A    between atoms: C_1  and  O_2
REMARK    2  A    between atoms: O_2  and  C_3
REMARK    3  A    between atoms: C_6  and  C_7
REMARK    4  A    between atoms: C_7  and  C_8
REMARK    5  A    between atoms: C_8  and  N_9
REMARK    6  A    between atoms: C_10  and  C_12
REMARK                            x       y       z     vdW  Elec       q    Type
REMARK                         _______ _______ _______ _____ _____    ______ ____
ROOT
ATOM      1  N   UNL     1       5.037   3.629  18.181  0.00  0.00    +0.000 N 
ATOM      2  C   UNL     1       6.050   4.552  18.335  0.00  0.00    +0.000 C 
ATOM      3  O   UNL     1       6.419   5.059  19.385  0.00  0.00    +0.000 OA
ATOM      4  H   UNL     1       4.831   3.351  17.223  0.00  0.00    +0.000 HD
ENDROOT
BRANCH   2   5
ATOM      5  C   UNL     1       6.742   4.934  17.011  0.00  0.00    +0.000 C 
ATOM      6  O   UNL     1       7.637   5.767  17.061  0.00  0.00    +0.000 OA
ATOM      7  N   UNL     1       6.226   4.248  15.932  0.00  0.00    +0.000 N 
ATOM      8  C   UNL     1       6.663   4.410  14.613  0.00  0.00    +0.000 A 
ATOM      9  C   UNL     1       6.087   3.645  13.597  0.00  0.00    +0.000 A 
ATOM     10  N   UNL     1       6.456   3.736  12.294  0.00  0.00    +0.000 NA
ATOM     11  C   UNL     1       7.433   4.632  12.035  0.00  0.00    +0.000 A 
ATOM     12  C   UNL     1       8.007   5.397  13.031  0.00  0.00    +0.000 A 
ATOM     13  N   UNL     1       7.632   5.297  14.327  0.00  0.00    +0.000 NA
ATOM     14  H   UNL     1       5.485   3.585  16.138  0.00  0.00    +0.000 HD
ENDBRANCH   2   5
BRANCH   1  15
ATOM     15  C   UNL     1       4.239   3.154  19.294  0.00  0.00    +0.000 C 
BRANCH  15  16
ATOM     16  C   UNL     1       2.752   3.475  19.132  0.00  0.00    +0.000 C 
BRANCH  16  20
ATOM     17  C   UNL     1       1.943   7.719  19.424  0.00  0.00    +0.000 A 
ATOM     18  C   UNL     1       2.343   7.153  18.213  0.00  0.00    +0.000 A 
ATOM     19  C   UNL     1       2.597   5.783  18.115  0.00  0.00    +0.000 A 
ATOM     20  C   UNL     1       2.468   4.955  19.236  0.00  0.00    +0.000 A 
ATOM     21  C   UNL     1       2.093   5.532  20.457  0.00  0.00    +0.000 A 
ATOM     22  C   UNL     1       1.830   6.905  20.551  0.00  0.00    +0.000 A 
BRANCH  17  24
ATOM     23  C   UNL     1       0.606   9.541  20.127  0.00  0.00    +0.000 C 
ATOM     24  O   UNL     1       1.732   9.069  19.394  0.00  0.00    +0.000 OA
ENDBRANCH  17  24
ENDBRANCH  16  20
ENDBRANCH  15  16
ENDBRANCH   1  15
TORSDOF 5
ENDMDL
MODEL 3
REMARK VINA RESULT:      -7.5      0.748      1.256
REMARK  Name = 
REMARK  6 active torsions:
REMARK  status: ('A' for Active; 'I' for Inactive)
REMARK    1  A    between atoms: C_1  and  O_2
REMARK    2  A    between atoms: O_2  and  C_3
REMARK    3  A    between atoms: C_6  and  C_7
REMARK    4  A    between atoms: C_7  and  C_8
REMARK    5  A    between atoms: C_8  and  N_9
REMARK    6  A    between atoms: C_10  and  C_12
REMARK                            x       y       z     vdW  Elec       q    Type
REMARK                         _______ _______ _______ _____ _____    ______ ____
ROOT
ATOM      1  N   UNL     1       7.309   6.729  18.141  0.00  0.00    +0.000 N 
ATOM      2  C   UNL     1       7.037   5.675  18.987  0.00  0.00    +0.000 C 
ATOM      3  O   UNL     1       7.559   5.458  20.071  0.00  0.00    +0.000 OA
ATOM      4  H   UNL     1       6.812   6.725  17.252  0.00  0.00    +0.000 HD
ENDROOT
BRANCH   2   5
ATOM      5  C   UNL     1       5.955   4.717  18.449  0.00  0.00    +0.000 C 
ATOM      6  O   UNL     1       6.070   4.324  17.296  0.00  0.00    +0.000 OA
ATOM      7  N   UNL     1       4.985   4.438  19.389  0.00  0.00    +0.000 N 
ATOM      8  C   UNL     1       3.883   3.608  19.163  0.00  0.00    +0.000 A 
ATOM      9  C   UNL     1       2.972   3.372  20.195  0.00  0.00    +0.000 A 
ATOM     10  N   UNL     1       1.881   2.577  20.061  0.00  0.00    +0.000 NA
ATOM     11  C   UNL     1       1.726   2.015  18.842  0.00  0.00    +0.000 A 
ATOM     12  C   UNL     1       2.618   2.244  17.812  0.00  0.00    +0.000 A 
ATOM     13  N   UNL     1       3.703   3.038  17.958  0.00  0.00    +0.000 NA
ATOM     14  H   UNL     1       5.108   4.874  20.298  0.00  0.00    +0.000 HD
ENDBRANCH   2   5
BRANCH   1  15
ATOM     15  C   UNL     1       8.312   7.731  18.442  0.00  0.00    +0.000 C 
BRANCH  15  16
ATOM     16  C   UNL     1       8.041   9.063  17.739  0.00  0.00    +0.000 C 
BRANCH  16  20
ATOM     17  C   UNL     1      10.074  12.375  19.650  0.00  0.00    +0.000 A 
ATOM     18  C   UNL     1       9.995  11.131  20.278  0.00  0.00    +0.000 A 
ATOM     19  C   UNL     1       9.347  10.060  19.659  0.00  0.00    +0.000 A 
ATOM     20  C   UNL     1       8.751  10.220  18.404  0.00  0.00    +0.000 A 
ATOM     21  C   UNL     1       8.808  11.478  17.788  0.00  0.00    +0.000 A 
ATOM     22  C   UNL     1       9.466  12.549  18.406  0.00  0.00    +0.000 A 
BRANCH  17  24
ATOM     23  C   UNL     1       9.983  13.960  21.404  0.00  0.00    +0.000 C 
ATOM     24  O   UNL     1      10.728  13.344  20.359  0.00  0.00    +0.000 OA
ENDBRANCH  17  24
ENDBRANCH  16  20
ENDBRANCH  15  16
ENDBRANCH   1  15
TORSDOF 5
ENDMDL
MODEL 4
REMARK VINA RESULT:      -7.3      2.815      9.194
REMARK  Name = 
REMARK  6 active torsions:
REMARK  status: ('A' for Active; 'I' for Inactive)
REMARK    1  A    between atoms: C_1  and  O_2
REMARK    2  A    between atoms: O_2  and  C_3
REMARK    3  A    between atoms: C_6  and  C_7
REMARK    4  A    between atoms: C_7  and  C_8
REMARK    5  A    between atoms: C_8  and  N_9
REMARK    6  A    between atoms: C_10  and  C_12
REMARK                            x       y       z     vdW  Elec       q    Type
REMARK                         _______ _______ _______ _____ _____    ______ ____
ROOT
ATOM      1  N   UNL     1       7.369   5.961  17.057  0.00  0.00    +0.000 N 
ATOM      2  C   UNL     1       7.790   6.628  18.188  0.00  0.00    +0.000 C 
ATOM      3  O   UNL     1       7.989   6.138  19.290  0.00  0.00    +0.000 OA
ATOM      4  H   UNL     1       7.206   6.539  16.234  0.00  0.00    +0.000 HD
ENDROOT
BRANCH   2   5
ATOM      5  C   UNL     1       8.013   8.137  17.965  0.00  0.00    +0.000 C 
ATOM      6  O   UNL     1       7.532   8.637  16.956  0.00  0.00    +0.000 OA
ATOM      7  N   UNL     1       8.748   8.716  18.978  0.00  0.00    +0.000 N 
ATOM      8  C   UNL     1       9.104  10.067  19.021  0.00  0.00    +0.000 A 
ATOM      9  C   UNL     1       9.830  10.555  20.109  0.00  0.00    +0.000 A 
ATOM     10  N   UNL     1      10.211  11.852  20.231  0.00  0.00    +0.000 NA
ATOM     11  C   UNL     1       9.837  12.659  19.214  0.00  0.00    +0.000 A 
ATOM     12  C   UNL     1       9.122  12.187  18.131  0.00  0.00    +0.000 A 
ATOM     13  N   UNL     1       8.747  10.892  18.020  0.00  0.00    +0.000 NA
ATOM     14  H   UNL     1       9.031   8.097  19.732  0.00  0.00    +0.000 HD
ENDBRANCH   2   5
BRANCH   1  15
ATOM     15  C   UNL     1       7.076   4.541  17.054  0.00  0.00    +0.000 C 
BRANCH  15  16
ATOM     16  C   UNL     1       5.846   4.197  16.211  0.00  0.00    +0.000 C 
BRANCH  16  20
ATOM     17  C   UNL     1       2.230   3.990  18.584  0.00  0.00    +0.000 A 
ATOM     18  C   UNL     1       2.733   5.221  18.161  0.00  0.00    +0.000 A 
ATOM     19  C   UNL     1       3.895   5.289  17.388  0.00  0.00    +0.000 A 
ATOM     20  C   UNL     1       4.584   4.122  17.038  0.00  0.00    +0.000 A 
ATOM     21  C   UNL     1       4.090   2.890  17.489  0.00  0.00    +0.000 A 
ATOM     22  C   UNL     1       2.920   2.824  18.256  0.00  0.00    +0.000 A 
BRANCH  17  24
ATOM     23  C   UNL     1       1.162   3.450  20.625  0.00  0.00    +0.000 C 
ATOM     24  O   UNL     1       1.092   4.056  19.339  0.00  0.00    +0.000 OA
ENDBRANCH  17  24
ENDBRANCH  16  20
ENDBRANCH  15  16
ENDBRANCH   1  15
TORSDOF 5
ENDMDL
MODEL 5
REMARK VINA RESULT:      -7.2      1.713      2.045
REMARK  Name = 
REMARK  6 active torsions:
REMARK  status: ('A' for Active; 'I' for Inactive)
REMARK    1  A    between atoms: C_1  and  O_2
REMARK    2  A    between atoms: O_2  and  C_3
REMARK    3  A    between atoms: C_6  and  C_7
REMARK    4  A    between atoms: C_7  and  C_8
REMARK    5  A    between atoms: C_8  and  N_9
REMARK    6  A    between atoms: C_10  and  C_12
REMARK                            x       y       z     vdW  Elec       q    Type
REMARK                         _______ _______ _______ _____ _____    ______ ____
ROOT
ATOM      1  N   UNL     1       7.330   7.217  18.015  0.00  0.00    +0.000 N 
ATOM      2  C   UNL     1       6.422   6.577  17.198  0.00  0.00    +0.000 C 
ATOM      3  O   UNL     1       6.080   6.925  16.077  0.00  0.00    +0.000 OA
ATOM      4  H   UNL     1       7.457   6.813  18.941  0.00  0.00    +0.000 HD
ENDROOT
BRANCH   2   5
ATOM      5  C   UNL     1       5.820   5.304  17.826  0.00  0.00    +0.000 C 
ATOM      6  O   UNL     1       6.557   4.609  18.512  0.00  0.00    +0.000 OA
ATOM      7  N   UNL     1       4.489   5.139  17.507  0.00  0.00    +0.000 N 
ATOM      8  C   UNL     1       3.702   4.065  17.934  0.00  0.00    +0.000 A 
ATOM      9  C   UNL     1       2.355   4.009  17.573  0.00  0.00    +0.000 A 
ATOM     10  N   UNL     1       1.522   3.006  17.949  0.00  0.00    +0.000 NA
ATOM     11  C   UNL     1       2.089   2.044  18.710  0.00  0.00    +0.000 A 
ATOM     12  C   UNL     1       3.421   2.086  19.071  0.00  0.00    +0.000 A 
ATOM     13  N   UNL     1       4.241   3.092  18.690  0.00  0.00    +0.000 NA
ATOM     14  H   UNL     1       4.077   5.864  16.926  0.00  0.00    +0.000 HD
ENDBRANCH   2   5
BRANCH   1  15
ATOM     15  C   UNL     1       7.994   8.447  17.629  0.00  0.00    +0.000 C 
BRANCH  15  16
ATOM     16  C   UNL     1       8.803   9.062  18.773  0.00  0.00    +0.000 C 
BRANCH  16  20
ATOM     17  C   UNL     1       9.760  13.224  18.058  0.00  0.00    +0.000 A 
ATOM     18  C   UNL     1       8.604  12.657  17.519  0.00  0.00    +0.000 A 
ATOM     19  C   UNL     1       8.290  11.317  17.756  0.00  0.00    +0.000 A 
ATOM     20  C   UNL     1       9.138  10.514  18.526  0.00  0.00    +0.000 A 
ATOM     21  C   UNL     1      10.313  11.079  19.042  0.00  0.00    +0.000 A 
ATOM     22  C   UNL     1      10.621  12.426  18.812  0.00  0.00    +0.000 A 
BRANCH  17  24
ATOM     23  C   UNL     1       9.441  15.484  18.682  0.00  0.00    +0.000 C 
ATOM     24  O   UNL     1       9.960  14.541  17.750  0.00  0.00    +0.000 OA
ENDBRANCH  17  24
ENDBRANCH  16  20
ENDBRANCH  15  16
ENDBRANCH   1  15
TORSDOF 5
ENDMDL
MODEL 6
REMARK VINA RESULT:      -7.2      1.394      1.423
REMARK  Name = 
REMARK  6 active torsions:
REMARK  status: ('A' for Active; 'I' for Inactive)
REMARK    1  A    between atoms: C_1  and  O_2
REMARK    2  A    between atoms: O_2  and  C_3
REMARK    3  A    between atoms: C_6  and  C_7
REMARK    4  A    between atoms: C_7  and  C_8
REMARK    5  A    between atoms: C_8  and  N_9
REMARK    6  A    between atoms: C_10  and  C_12
REMARK                            x       y       z     vdW  Elec       q    Type
REMARK                         _______ _______ _______ _____ _____    ______ ____
ROOT
ATOM      1  N   UNL     1       7.246   6.355  18.166  0.00  0.00    +0.000 N 
ATOM      2  C   UNL     1       7.016   5.752  16.947  0.00  0.00    +0.000 C 
ATOM      3  O   UNL     1       7.558   6.025  15.886  0.00  0.00    +0.000 OA
ATOM      4  H   UNL     1       6.666   6.032  18.938  0.00  0.00    +0.000 HD
ENDROOT
BRANCH   2   5
ATOM      5  C   UNL     1       5.962   4.629  17.006  0.00  0.00    +0.000 C 
ATOM      6  O   UNL     1       5.905   3.856  16.058  0.00  0.00    +0.000 OA
ATOM      7  N   UNL     1       5.215   4.668  18.164  0.00  0.00    +0.000 N 
ATOM      8  C   UNL     1       4.184   3.774  18.469  0.00  0.00    +0.000 A 
ATOM      9  C   UNL     1       3.507   3.889  19.684  0.00  0.00    +0.000 A 
ATOM     10  N   UNL     1       2.500   3.060  20.060  0.00  0.00    +0.000 NA
ATOM     11  C   UNL     1       2.185   2.098  19.165  0.00  0.00    +0.000 A 
ATOM     12  C   UNL     1       2.845   1.976  17.958  0.00  0.00    +0.000 A 
ATOM     13  N   UNL     1       3.848   2.807  17.595  0.00  0.00    +0.000 NA
ATOM     14  H   UNL     1       5.454   5.402  18.824  0.00  0.00    +0.000 HD
ENDBRANCH   2   5
BRANCH   1  15
ATOM     15  C   UNL     1       8.180   7.452  18.329  0.00  0.00    +0.000 C 
BRANCH  15  16
ATOM     16  C   UNL     1       7.711   8.731  17.631  0.00  0.00    +0.000 C 
BRANCH  16  20
ATOM     17  C   UNL     1       9.757  12.257  19.091  0.00  0.00    +0.000 A 
ATOM     18  C   UNL     1       8.916  12.332  17.980  0.00  0.00    +0.000 A 
ATOM     19  C   UNL     1       8.249  11.197  17.513  0.00  0.00    +0.000 A 
ATOM     20  C   UNL     1       8.425   9.960  18.143  0.00  0.00    +0.000 A 
ATOM     21  C   UNL     1       9.293   9.883  19.242  0.00  0.00    +0.000 A 
ATOM     22  C   UNL     1       9.954  11.024  19.714  0.00  0.00    +0.000 A 
BRANCH  17  24
ATOM     23  C   UNL     1      11.704  13.334  19.896  0.00  0.00    +0.000 C 
ATOM     24  O   UNL     1      10.357  13.433  19.446  0.00  0.00    +0.000 OA
ENDBRANCH  17  24
ENDBRANCH  16  20
ENDBRANCH  15  16
ENDBRANCH   1  15
TORSDOF 5
ENDMDL
MODEL 7
REMARK VINA RESULT:      -7.2      2.820      9.442
REMARK  Name = 
REMARK  6 active torsions:
REMARK  status: ('A' for Active; 'I' for Inactive)
REMARK    1  A    between atoms: C_1  and  O_2
REMARK    2  A    between atoms: O_2  and  C_3
REMARK    3  A    between atoms: C_6  and  C_7
REMARK    4  A    between atoms: C_7  and  C_8
REMARK    5  A    between atoms: C_8  and  N_9
REMARK    6  A    between atoms: C_10  and  C_12
REMARK                            x       y       z     vdW  Elec       q    Type
REMARK                         _______ _______ _______ _____ _____    ______ ____
ROOT
ATOM      1  N   UNL     1       5.767   7.095  17.077  0.00  0.00    +0.000 N 
ATOM      2  C   UNL     1       7.134   7.008  16.918  0.00  0.00    +0.000 C 
ATOM      3  O   UNL     1       7.728   6.349  16.076  0.00  0.00    +0.000 OA
ATOM      4  H   UNL     1       5.446   7.654  17.865  0.00  0.00    +0.000 HD
ENDROOT
BRANCH   2   5
ATOM      5  C   UNL     1       7.927   7.853  17.934  0.00  0.00    +0.000 C 
ATOM      6  O   UNL     1       8.377   7.279  18.918  0.00  0.00    +0.000 OA
ATOM      7  N   UNL     1       8.013   9.178  17.564  0.00  0.00    +0.000 N 
ATOM      8  C   UNL     1       8.666  10.165  18.308  0.00  0.00    +0.000 A 
ATOM      9  C   UNL     1       8.714  11.475  17.827  0.00  0.00    +0.000 A 
ATOM     10  N   UNL     1       9.330  12.490  18.484  0.00  0.00    +0.000 NA
ATOM     11  C   UNL     1       9.906  12.148  19.658  0.00  0.00    +0.000 A 
ATOM     12  C   UNL     1       9.861  10.857  20.146  0.00  0.00    +0.000 A 
ATOM     13  N   UNL     1       9.244   9.853  19.482  0.00  0.00    +0.000 NA
ATOM     14  H   UNL     1       7.568   9.424  16.684  0.00  0.00    +0.000 HD
ENDBRANCH   2   5
BRANCH   1  15
ATOM     15  C   UNL     1       4.837   6.359  16.243  0.00  0.00    +0.000 C 
BRANCH  15  16
ATOM     16  C   UNL     1       4.942   4.845  16.439  0.00  0.00    +0.000 C 
BRANCH  16  20
ATOM     17  C   UNL     1       1.956   3.318  19.177  0.00  0.00    +0.000 A 
ATOM     18  C   UNL     1       2.819   2.448  18.510  0.00  0.00    +0.000 A 
ATOM     19  C   UNL     1       3.788   2.940  17.632  0.00  0.00    +0.000 A 
ATOM     20  C   UNL     1       3.900   4.315  17.396  0.00  0.00    +0.000 A 
ATOM     21  C   UNL     1       3.013   5.183  18.048  0.00  0.00    +0.000 A 
ATOM     22  C   UNL     1       2.048   4.689  18.934  0.00  0.00    +0.000 A 
BRANCH  17  24
ATOM     23  C   UNL     1       1.355   2.742  21.393  0.00  0.00    +0.000 C 
ATOM     24  O   UNL     1       1.047   2.716  20.003  0.00  0.00    +0.000 OA
ENDBRANCH  17  24
ENDBRANCH  16  20
ENDBRANCH  15  16
ENDBRANCH   1  15
TORSDOF 5
ENDMDL
MODEL 8
REMARK VINA RESULT:      -7.1      4.386      6.215
REMARK  Name = 
REMARK  6 active torsions:
REMARK  status: ('A' for Active; 'I' for Inactive)
REMARK    1  A    between atoms: C_1  and  O_2
REMARK    2  A    between atoms: O_2  and  C_3
REMARK    3  A    between atoms: C_6  and  C_7
REMARK    4  A    between atoms: C_7  and  C_8
REMARK    5  A    between atoms: C_8  and  N_9
REMARK    6  A    between atoms: C_10  and  C_12
REMARK                            x       y       z     vdW  Elec       q    Type
REMARK                         _______ _______ _______ _____ _____    ______ ____
ROOT
ATOM      1  N   UNL     1       3.209   5.261  17.893  0.00  0.00    +0.000 N 
ATOM      2  C   UNL     1       2.929   5.687  19.174  0.00  0.00    +0.000 C 
ATOM      3  O   UNL     1       3.160   5.081  20.210  0.00  0.00    +0.000 OA
ATOM      4  H   UNL     1       2.900   5.876  17.142  0.00  0.00    +0.000 HD
ENDROOT
BRANCH   2   5
ATOM      5  C   UNL     1       2.260   7.075  19.229  0.00  0.00    +0.000 C 
ATOM      6  O   UNL     1       2.097   7.667  18.170  0.00  0.00    +0.000 OA
ATOM      7  N   UNL     1       1.932   7.451  20.514  0.00  0.00    +0.000 N 
ATOM      8  C   UNL     1       1.326   8.665  20.851  0.00  0.00    +0.000 A 
ATOM      9  C   UNL     1       1.014   8.935  22.185  0.00  0.00    +0.000 A 
ATOM     10  N   UNL     1       0.422  10.085  22.595  0.00  0.00    +0.000 NA
ATOM     11  C   UNL     1       0.147  10.972  21.613  0.00  0.00    +0.000 A 
ATOM     12  C   UNL     1       0.454  10.718  20.291  0.00  0.00    +0.000 A 
ATOM     13  N   UNL     1       1.044   9.568  19.894  0.00  0.00    +0.000 NA
ATOM     14  H   UNL     1       2.153   6.781  21.244  0.00  0.00    +0.000 HD
ENDBRANCH   2   5
BRANCH   1  15
ATOM     15  C   UNL     1       3.814   3.973  17.615  0.00  0.00    +0.000 C 
BRANCH  15  16
ATOM     16  C   UNL     1       5.090   4.092  16.779  0.00  0.00    +0.000 C 
BRANCH  16  20
ATOM     17  C   UNL     1       7.811   7.081  18.330  0.00  0.00    +0.000 A 
ATOM     18  C   UNL     1       7.009   7.357  17.222  0.00  0.00    +0.000 A 
ATOM     19  C   UNL     1       6.125   6.396  16.725  0.00  0.00    +0.000 A 
ATOM     20  C   UNL     1       6.039   5.134  17.323  0.00  0.00    +0.000 A 
ATOM     21  C   UNL     1       6.868   4.851  18.418  0.00  0.00    +0.000 A 
ATOM     22  C   UNL     1       7.747   5.819  18.920  0.00  0.00    +0.000 A 
BRANCH  17  24
ATOM     23  C   UNL     1       8.414   9.357  18.088  0.00  0.00    +0.000 C 
ATOM     24  O   UNL     1       8.639   8.099  18.716  0.00  0.00    +0.000 OA
ENDBRANCH  17  24
ENDBRANCH  16  20
ENDBRANCH  15  16
ENDBRANCH   1  15
TORSDOF 5
ENDMDL
MODEL 9
REMARK VINA RESULT:      -7.1      1.673      2.157
REMARK  Name = 
REMARK  6 active torsions:
REMARK  status: ('A' for Active; 'I' for Inactive)
REMARK    1  A    between atoms: C_1  and  O_2
REMARK    2  A    between atoms: O_2  and  C_3
REMARK    3  A    between atoms: C_6  and  C_7
REMARK    4  A    between atoms: C_7  and  C_8
REMARK    5  A    between atoms: C_8  and  N_9
REMARK    6  A    between atoms: C_10  and  C_12
REMARK                            x       y       z     vdW  Elec       q    Type
REMARK                         _______ _______ _______ _____ _____    ______ ____
ROOT
ATOM      1  N   UNL     1       7.306   7.451  18.142  0.00  0.00    +0.000 N 
ATOM      2  C   UNL     1       7.143   6.400  17.264  0.00  0.00    +0.000 C 
ATOM      3  O   UNL     1       7.535   6.350  16.108  0.00  0.00    +0.000 OA
ATOM      4  H   UNL     1       6.869   7.340  19.055  0.00  0.00    +0.000 HD
ENDROOT
BRANCH   2   5
ATOM      5  C   UNL     1       6.383   5.204  17.871  0.00  0.00    +0.000 C 
ATOM      6  O   UNL     1       6.989   4.490  18.659  0.00  0.00    +0.000 OA
ATOM      7  N   UNL     1       5.084   5.120  17.416  0.00  0.00    +0.000 N 
ATOM      8  C   UNL     1       4.177   4.126  17.797  0.00  0.00    +0.000 A 
ATOM      9  C   UNL     1       2.875   4.150  17.294  0.00  0.00    +0.000 A 
ATOM     10  N   UNL     1       1.933   3.227  17.616  0.00  0.00    +0.000 NA
ATOM     11  C   UNL     1       2.342   2.263  18.470  0.00  0.00    +0.000 A 
ATOM     12  C   UNL     1       3.628   2.227  18.971  0.00  0.00    +0.000 A 
ATOM     13  N   UNL     1       4.558   3.153  18.644  0.00  0.00    +0.000 NA
ATOM     14  H   UNL     1       4.792   5.845  16.767  0.00  0.00    +0.000 HD
ENDBRANCH   2   5
BRANCH   1  15
ATOM     15  C   UNL     1       7.970   8.684  17.766  0.00  0.00    +0.000 C 
BRANCH  15  16
ATOM     16  C   UNL     1       9.028   9.116  18.784  0.00  0.00    +0.000 C 
BRANCH  16  20
ATOM     17  C   UNL     1       9.203  13.416  19.264  0.00  0.00    +0.000 A 
ATOM     18  C   UNL     1       9.417  12.570  20.353  0.00  0.00    +0.000 A 
ATOM     19  C   UNL     1       9.368  11.182  20.198  0.00  0.00    +0.000 A 
ATOM     20  C   UNL     1       9.090  10.616  18.949  0.00  0.00    +0.000 A 
ATOM     21  C   UNL     1       8.848  11.470  17.863  0.00  0.00    +0.000 A 
ATOM     22  C   UNL     1       8.906  12.861  18.019  0.00  0.00    +0.000 A 
BRANCH  17  24
ATOM     23  C   UNL     1       9.877  15.568  18.548  0.00  0.00    +0.000 C 
ATOM     24  O   UNL     1       9.270  14.752  19.544  0.00  0.00    +0.000 OA
ENDBRANCH  17  24
ENDBRANCH  16  20
ENDBRANCH  15  16
ENDBRANCH   1  15
TORSDOF 5
ENDMDL
