MODEL 1
REMARK VINA RESULT:      -5.8      0.000      0.000
REMARK  Name = 
REMARK  5 active torsions:
REMARK  status: ('A' for Active; 'I' for Inactive)
REMARK    1  A    between atoms: C_1  and  C_2
REMARK    2  A    between atoms: C_2  and  N_3
REMARK    3  A    between atoms: C_5  and  C_6
REMARK    4  A    between atoms: C_11  and  C_12
REMARK    5  A    between atoms: C_15  and  C_16
REMARK                            x       y       z     vdW  Elec       q    Type
REMARK                         _______ _______ _______ _____ _____    ______ ____
ROOT
ATOM      1  N   UNL     1       2.707   5.408  19.888  0.00  0.00    +0.000 N 
ATOM      2  N   UNL     1       3.474   4.820  18.933  0.00  0.00    +0.000 NA
ATOM      3  C   UNL     1       3.635   5.784  18.010  0.00  0.00    +0.000 A 
ATOM      4  C   UNL     1       4.455   5.554  16.795  0.00  0.00    +0.000 C 
ATOM      5  C   UNL     1       2.965   6.957  18.374  0.00  0.00    +0.000 A 
ATOM      6  C   UNL     1       2.405   6.696  19.596  0.00  0.00    +0.000 A 
ATOM      7  C   UNL     1       1.711   7.721  20.268  0.00  0.00    +0.000 C 
ATOM      8  N   UNL     1       1.233   7.621  21.472  0.00  0.00    +0.000 NA
ATOM      9  C   UNL     1       0.718   9.004  21.732  0.00  0.00    +0.000 C 
ATOM     10  C   UNL     1      -0.601   8.873  22.485  0.00  0.00    +0.000 C 
ATOM     11  C   UNL     1       0.700   9.751  20.365  0.00  0.00    +0.000 C 
ATOM     12  N   UNL     1       1.561   8.898  19.578  0.00  0.00    +0.000 N 
ATOM     13  C   UNL     1       2.166   9.095  18.344  0.00  0.00    +0.000 C 
ATOM     14  C   UNL     1       2.104  10.449  17.658  0.00  0.00    +0.000 C 
ATOM     15  N   UNL     1       2.876   8.193  17.703  0.00  0.00    +0.000 NA
ENDROOT
BRANCH   1  17
ATOM     16  C   UNL     1       1.162   3.661  20.690  0.00  0.00    +0.000 C 
ATOM     17  C   UNL     1       2.273   4.636  21.034  0.00  0.00    +0.000 C 
ENDBRANCH   1  17
TORSDOF 1
ENDMDL
MODEL 2
REMARK VINA RESULT:      -5.6      2.097      3.670
REMARK  Name = 
REMARK  5 active torsions:
REMARK  status: ('A' for Active; 'I' for Inactive)
REMARK    1  A    between atoms: C_1  and  C_2
REMARK    2  A    between atoms: C_2  and  N_3
REMARK    3  A    between atoms: C_5  and  C_6
REMARK    4  A    between atoms: C_11  and  C_12
REMARK    5  A    between atoms: C_15  and  C_16
REMARK                            x       y       z     vdW  Elec       q    Type
REMARK                         _______ _______ _______ _____ _____    ______ ____
ROOT
ATOM      1  N   UNL     1       2.210   3.435  19.626  0.00  0.00    +0.000 N 
ATOM      2  N   UNL     1       2.587   2.144  19.446  0.00  0.00    +0.000 NA
ATOM      3  C   UNL     1       3.493   2.206  18.455  0.00  0.00    +0.000 A 
ATOM      4  C   UNL     1       4.186   0.988  17.970  0.00  0.00    +0.000 C 
ATOM      5  C   UNL     1       3.671   3.519  18.008  0.00  0.00    +0.000 A 
ATOM      6  C   UNL     1       2.858   4.289  18.797  0.00  0.00    +0.000 A 
ATOM      7  C   UNL     1       2.867   5.688  18.635  0.00  0.00    +0.000 C 
ATOM      8  N   UNL     1       2.221   6.522  19.395  0.00  0.00    +0.000 NA
ATOM      9  C   UNL     1       2.668   7.852  18.869  0.00  0.00    +0.000 C 
ATOM     10  C   UNL     1       1.458   8.779  18.865  0.00  0.00    +0.000 C 
ATOM     11  C   UNL     1       3.384   7.591  17.510  0.00  0.00    +0.000 C 
ATOM     12  N   UNL     1       3.631   6.170  17.603  0.00  0.00    +0.000 N 
ATOM     13  C   UNL     1       4.439   5.330  16.848  0.00  0.00    +0.000 C 
ATOM     14  C   UNL     1       5.383   5.896  15.801  0.00  0.00    +0.000 C 
ATOM     15  N   UNL     1       4.516   4.026  17.000  0.00  0.00    +0.000 NA
ENDROOT
BRANCH   1  17
ATOM     16  C   UNL     1       1.210   2.832  21.798  0.00  0.00    +0.000 C 
ATOM     17  C   UNL     1       1.180   3.754  20.594  0.00  0.00    +0.000 C 
ENDBRANCH   1  17
TORSDOF 1
ENDMDL
MODEL 3
REMARK VINA RESULT:      -5.5      2.674      5.352
REMARK  Name = 
REMARK  5 active torsions:
REMARK  status: ('A' for Active; 'I' for Inactive)
REMARK    1  A    between atoms: C_1  and  C_2
REMARK    2  A    between atoms: C_2  and  N_3
REMARK    3  A    between atoms: C_5  and  C_6
REMARK    4  A    between atoms: C_11  and  C_12
REMARK    5  A    between atoms: C_15  and  C_16
REMARK                            x       y       z     vdW  Elec       q    Type
REMARK                         _______ _______ _______ _____ _____    ______ ____
ROOT
ATOM      1  N   UNL     1       3.146   2.732  18.527  0.00  0.00    +0.000 N 
ATOM      2  N   UNL     1       2.172   2.636  19.467  0.00  0.00    +0.000 NA
ATOM      3  C   UNL     1       1.776   3.908  19.653  0.00  0.00    +0.000 A 
ATOM      4  C   UNL     1       0.682   4.241  20.597  0.00  0.00    +0.000 C 
ATOM      5  C   UNL     1       2.504   4.791  18.849  0.00  0.00    +0.000 A 
ATOM      6  C   UNL     1       3.354   4.007  18.116  0.00  0.00    +0.000 A 
ATOM      7  C   UNL     1       4.183   4.607  17.149  0.00  0.00    +0.000 C 
ATOM      8  N   UNL     1       4.947   3.954  16.326  0.00  0.00    +0.000 NA
ATOM      9  C   UNL     1       5.497   5.045  15.459  0.00  0.00    +0.000 C 
ATOM     10  C   UNL     1       6.964   4.728  15.188  0.00  0.00    +0.000 C 
ATOM     11  C   UNL     1       5.167   6.398  16.160  0.00  0.00    +0.000 C 
ATOM     12  N   UNL     1       4.146   5.977  17.091  0.00  0.00    +0.000 N 
ATOM     13  C   UNL     1       3.250   6.709  17.860  0.00  0.00    +0.000 C 
ATOM     14  C   UNL     1       3.125   8.213  17.684  0.00  0.00    +0.000 C 
ATOM     15  N   UNL     1       2.411   6.193  18.731  0.00  0.00    +0.000 NA
ENDROOT
BRANCH   1  17
ATOM     16  C   UNL     1       4.536   0.835  19.270  0.00  0.00    +0.000 C 
ATOM     17  C   UNL     1       3.861   1.543  18.110  0.00  0.00    +0.000 C 
ENDBRANCH   1  17
TORSDOF 1
ENDMDL
MODEL 4
REMARK VINA RESULT:      -5.5      2.517      4.255
REMARK  Name = 
REMARK  5 active torsions:
REMARK  status: ('A' for Active; 'I' for Inactive)
REMARK    1  A    between atoms: C_1  and  C_2
REMARK    2  A    between atoms: C_2  and  N_3
REMARK    3  A    between atoms: C_5  and  C_6
REMARK    4  A    between atoms: C_11  and  C_12
REMARK    5  A    between atoms: C_15  and  C_16
REMARK                            x       y       z     vdW  Elec       q    Type
REMARK                         _______ _______ _______ _____ _____    ______ ____
ROOT
ATOM      1  N   UNL     1       2.561   3.647  20.313  0.00  0.00    +0.000 N 
ATOM      2  N   UNL     1       3.054   2.466  20.766  0.00  0.00    +0.000 NA
ATOM      3  C   UNL     1       4.311   2.436  20.292  0.00  0.00    +0.000 A 
ATOM      4  C   UNL     1       5.221   1.304  20.595  0.00  0.00    +0.000 C 
ATOM      5  C   UNL     1       4.599   3.578  19.537  0.00  0.00    +0.000 A 
ATOM      6  C   UNL     1       3.469   4.350  19.593  0.00  0.00    +0.000 A 
ATOM      7  C   UNL     1       3.469   5.617  18.978  0.00  0.00    +0.000 C 
ATOM      8  N   UNL     1       2.497   6.475  19.058  0.00  0.00    +0.000 NA
ATOM      9  C   UNL     1       3.058   7.667  18.344  0.00  0.00    +0.000 C 
ATOM     10  C   UNL     1       1.936   8.281  17.514  0.00  0.00    +0.000 C 
ATOM     11  C   UNL     1       4.338   7.192  17.593  0.00  0.00    +0.000 C 
ATOM     12  N   UNL     1       4.596   5.939  18.265  0.00  0.00    +0.000 N 
ATOM     13  C   UNL     1       5.710   5.110  18.260  0.00  0.00    +0.000 C 
ATOM     14  C   UNL     1       6.997   5.545  17.580  0.00  0.00    +0.000 C 
ATOM     15  N   UNL     1       5.784   3.947  18.870  0.00  0.00    +0.000 NA
ENDROOT
BRANCH   1  17
ATOM     16  C   UNL     1       0.202   3.186  19.762  0.00  0.00    +0.000 C 
ATOM     17  C   UNL     1       1.183   4.001  20.585  0.00  0.00    +0.000 C 
ENDBRANCH   1  17
TORSDOF 1
ENDMDL
MODEL 5
REMARK VINA RESULT:      -5.5      2.002      5.847
REMARK  Name = 
REMARK  5 active torsions:
REMARK  status: ('A' for Active; 'I' for Inactive)
REMARK    1  A    between atoms: C_1  and  C_2
REMARK    2  A    between atoms: C_2  and  N_3
REMARK    3  A    between atoms: C_5  and  C_6
REMARK    4  A    between atoms: C_11  and  C_12
REMARK    5  A    between atoms: C_15  and  C_16
REMARK                            x       y       z     vdW  Elec       q    Type
REMARK                         _______ _______ _______ _____ _____    ______ ____
ROOT
ATOM      1  N   UNL     1       2.298   5.784  19.960  0.00  0.00    +0.000 N 
ATOM      2  N   UNL     1       1.571   5.236  20.967  0.00  0.00    +0.000 NA
ATOM      3  C   UNL     1       1.759   3.913  20.819  0.00  0.00    +0.000 A 
ATOM      4  C   UNL     1       1.149   2.940  21.758  0.00  0.00    +0.000 C 
ATOM      5  C   UNL     1       2.583   3.634  19.723  0.00  0.00    +0.000 A 
ATOM      6  C   UNL     1       2.937   4.853  19.210  0.00  0.00    +0.000 A 
ATOM      7  C   UNL     1       3.833   4.909  18.124  0.00  0.00    +0.000 C 
ATOM      8  N   UNL     1       4.321   6.005  17.627  0.00  0.00    +0.000 NA
ATOM      9  C   UNL     1       5.286   5.495  16.601  0.00  0.00    +0.000 C 
ATOM     10  C   UNL     1       5.185   6.399  15.378  0.00  0.00    +0.000 C 
ATOM     11  C   UNL     1       4.989   3.978  16.407  0.00  0.00    +0.000 C 
ATOM     12  N   UNL     1       4.205   3.702  17.589  0.00  0.00    +0.000 N 
ATOM     13  C   UNL     1       3.813   2.502  18.169  0.00  0.00    +0.000 C 
ATOM     14  C   UNL     1       4.346   1.178  17.647  0.00  0.00    +0.000 C 
ATOM     15  N   UNL     1       3.031   2.395  19.220  0.00  0.00    +0.000 NA
ENDROOT
BRANCH   1  17
ATOM     16  C   UNL     1       1.507   7.945  20.845  0.00  0.00    +0.000 C 
ATOM     17  C   UNL     1       2.287   7.219  19.764  0.00  0.00    +0.000 C 
ENDBRANCH   1  17
TORSDOF 1
ENDMDL
MODEL 6
REMARK VINA RESULT:      -5.4      5.901      7.646
REMARK  Name = 
REMARK  5 active torsions:
REMARK  status: ('A' for Active; 'I' for Inactive)
REMARK    1  A    between atoms: C_1  and  C_2
REMARK    2  A    between atoms: C_2  and  N_3
REMARK    3  A    between atoms: C_5  and  C_6
REMARK    4  A    between atoms: C_11  and  C_12
REMARK    5  A    between atoms: C_15  and  C_16
REMARK                            x       y       z     vdW  Elec       q    Type
REMARK                         _______ _______ _______ _____ _____    ______ ____
ROOT
ATOM      1  N   UNL     1      -1.975  10.707  18.036  0.00  0.00    +0.000 N 
ATOM      2  N   UNL     1      -1.806  10.174  16.799  0.00  0.00    +0.000 NA
ATOM      3  C   UNL     1      -2.949  10.477  16.157  0.00  0.00    +0.000 A 
ATOM      4  C   UNL     1      -3.158  10.094  14.740  0.00  0.00    +0.000 C 
ATOM      5  C   UNL     1      -3.829  11.179  16.987  0.00  0.00    +0.000 A 
ATOM      6  C   UNL     1      -3.167  11.338  18.175  0.00  0.00    +0.000 A 
ATOM      7  C   UNL     1      -3.775  12.078  19.208  0.00  0.00    +0.000 C 
ATOM      8  N   UNL     1      -3.200  12.383  20.332  0.00  0.00    +0.000 NA
ATOM      9  C   UNL     1      -4.222  13.257  20.992  0.00  0.00    +0.000 C 
ATOM     10  C   UNL     1      -4.243  12.909  22.476  0.00  0.00    +0.000 C 
ATOM     11  C   UNL     1      -5.549  13.095  20.192  0.00  0.00    +0.000 C 
ATOM     12  N   UNL     1      -5.058  12.501  18.970  0.00  0.00    +0.000 N 
ATOM     13  C   UNL     1      -5.665  12.311  17.735  0.00  0.00    +0.000 C 
ATOM     14  C   UNL     1      -7.032  12.907  17.444  0.00  0.00    +0.000 C 
ATOM     15  N   UNL     1      -5.118  11.684  16.718  0.00  0.00    +0.000 NA
ENDROOT
BRANCH   1  17
ATOM     16  C   UNL     1       0.346   9.992  18.461  0.00  0.00    +0.000 C 
ATOM     17  C   UNL     1      -0.951  10.524  19.043  0.00  0.00    +0.000 C 
ENDBRANCH   1  17
TORSDOF 1
ENDMDL
MODEL 7
REMARK VINA RESULT:      -5.4      1.186      5.675
REMARK  Name = 
REMARK  5 active torsions:
REMARK  status: ('A' for Active; 'I' for Inactive)
REMARK    1  A    between atoms: C_1  and  C_2
REMARK    2  A    between atoms: C_2  and  N_3
REMARK    3  A    between atoms: C_5  and  C_6
REMARK    4  A    between atoms: C_11  and  C_12
REMARK    5  A    between atoms: C_15  and  C_16
REMARK                            x       y       z     vdW  Elec       q    Type
REMARK                         _______ _______ _______ _____ _____    ______ ____
ROOT
ATOM      1  N   UNL     1       2.168   8.104  18.987  0.00  0.00    +0.000 N 
ATOM      2  N   UNL     1       1.362   8.742  19.875  0.00  0.00    +0.000 NA
ATOM      3  C   UNL     1       1.099   7.806  20.803  0.00  0.00    +0.000 A 
ATOM      4  C   UNL     1       0.261   8.113  21.988  0.00  0.00    +0.000 C 
ATOM      5  C   UNL     1       1.720   6.591  20.494  0.00  0.00    +0.000 A 
ATOM      6  C   UNL     1       2.422   6.820  19.340  0.00  0.00    +0.000 A 
ATOM      7  C   UNL     1       3.221   5.792  18.805  0.00  0.00    +0.000 C 
ATOM      8  N   UNL     1       4.010   5.928  17.781  0.00  0.00    +0.000 NA
ATOM      9  C   UNL     1       4.693   4.596  17.719  0.00  0.00    +0.000 C 
ATOM     10  C   UNL     1       4.820   4.208  16.250  0.00  0.00    +0.000 C 
ATOM     11  C   UNL     1       3.905   3.632  18.656  0.00  0.00    +0.000 C 
ATOM     12  N   UNL     1       3.146   4.579  19.441  0.00  0.00    +0.000 N 
ATOM     13  C   UNL     1       2.419   4.421  20.614  0.00  0.00    +0.000 C 
ATOM     14  C   UNL     1       2.458   3.110  21.380  0.00  0.00    +0.000 C 
ATOM     15  N   UNL     1       1.708   5.366  21.190  0.00  0.00    +0.000 NA
ENDROOT
BRANCH   1  17
ATOM     16  C   UNL     1       2.143  10.239  17.753  0.00  0.00    +0.000 C 
ATOM     17  C   UNL     1       2.614   8.797  17.796  0.00  0.00    +0.000 C 
ENDBRANCH   1  17
TORSDOF 1
ENDMDL
MODEL 8
REMARK VINA RESULT:      -5.4      8.609      9.458
REMARK  Name = 
REMARK  5 active torsions:
REMARK  status: ('A' for Active; 'I' for Inactive)
REMARK    1  A    between atoms: C_1  and  C_2
REMARK    2  A    between atoms: C_2  and  N_3
REMARK    3  A    between atoms: C_5  and  C_6
REMARK    4  A    between atoms: C_11  and  C_12
REMARK    5  A    between atoms: C_15  and  C_16
REMARK                            x       y       z     vdW  Elec       q    Type
REMARK                         _______ _______ _______ _____ _____    ______ ____
ROOT
ATOM      1  N   UNL     1       9.718  11.112  18.935  0.00  0.00    +0.000 N 
ATOM      2  N   UNL     1      10.357  11.360  17.763  0.00  0.00    +0.000 NA
ATOM      3  C   UNL     1      10.779  12.631  17.887  0.00  0.00    +0.000 A 
ATOM      4  C   UNL     1      11.565  13.288  16.815  0.00  0.00    +0.000 C 
ATOM      5  C   UNL     1      10.397  13.177  19.117  0.00  0.00    +0.000 A 
ATOM      6  C   UNL     1       9.744  12.172  19.779  0.00  0.00    +0.000 A 
ATOM      7  C   UNL     1       9.292  12.394  21.094  0.00  0.00    +0.000 C 
ATOM      8  N   UNL     1       8.759  11.485  21.854  0.00  0.00    +0.000 NA
ATOM      9  C   UNL     1       8.581  12.210  23.152  0.00  0.00    +0.000 C 
ATOM     10  C   UNL     1       7.242  11.783  23.743  0.00  0.00    +0.000 C 
ATOM     11  C   UNL     1       8.793  13.726  22.863  0.00  0.00    +0.000 C 
ATOM     12  N   UNL     1       9.453  13.667  21.579  0.00  0.00    +0.000 N 
ATOM     13  C   UNL     1      10.134  14.636  20.853  0.00  0.00    +0.000 C 
ATOM     14  C   UNL     1      10.425  15.998  21.461  0.00  0.00    +0.000 C 
ATOM     15  N   UNL     1      10.632  14.461  19.649  0.00  0.00    +0.000 NA
ENDROOT
BRANCH   1  17
ATOM     16  C   UNL     1       8.271   9.386  17.930  0.00  0.00    +0.000 C 
ATOM     17  C   UNL     1       9.068   9.834  19.141  0.00  0.00    +0.000 C 
ENDBRANCH   1  17
TORSDOF 1
ENDMDL
MODEL 9
REMARK VINA RESULT:      -5.3      4.345      6.815
REMARK  Name = 
REMARK  5 active torsions:
REMARK  status: ('A' for Active; 'I' for Inactive)
REMARK    1  A    between atoms: C_1  and  C_2
REMARK    2  A    between atoms: C_2  and  N_3
REMARK    3  A    between atoms: C_5  and  C_6
REMARK    4  A    between atoms: C_11  and  C_12
REMARK    5  A    between atoms: C_15  and  C_16
REMARK                            x       y       z     vdW  Elec       q    Type
REMARK                         _______ _______ _______ _____ _____    ______ ____
ROOT
ATOM      1  N   UNL     1       0.042  10.429  18.954  0.00  0.00    +0.000 N 
ATOM      2  N   UNL     1       0.525  10.801  20.167  0.00  0.00    +0.000 NA
ATOM      3  C   UNL     1      -0.492  11.481  20.725  0.00  0.00    +0.000 A 
ATOM      4  C   UNL     1      -0.382  12.040  22.094  0.00  0.00    +0.000 C 
ATOM      5  C   UNL     1      -1.594  11.547  19.866  0.00  0.00    +0.000 A 
ATOM      6  C   UNL     1      -1.234  10.840  18.750  0.00  0.00    +0.000 A 
ATOM      7  C   UNL     1      -2.172  10.663  17.715  0.00  0.00    +0.000 C 
ATOM      8  N   UNL     1      -1.978   9.924  16.664  0.00  0.00    +0.000 NA
ATOM      9  C   UNL     1      -3.306   9.991  15.972  0.00  0.00    +0.000 C 
ATOM     10  C   UNL     1      -3.043  10.093  14.474  0.00  0.00    +0.000 C 
ATOM     11  C   UNL     1      -4.115  11.140  16.644  0.00  0.00    +0.000 C 
ATOM     12  N   UNL     1      -3.366  11.320  17.867  0.00  0.00    +0.000 N 
ATOM     13  C   UNL     1      -3.667  12.014  19.032  0.00  0.00    +0.000 C 
ATOM     14  C   UNL     1      -5.045  12.619  19.240  0.00  0.00    +0.000 C 
ATOM     15  N   UNL     1      -2.852  12.156  20.054  0.00  0.00    +0.000 NA
ENDROOT
BRANCH   1  17
ATOM     16  C   UNL     1       1.794   8.709  18.727  0.00  0.00    +0.000 C 
ATOM     17  C   UNL     1       0.898   9.715  18.029  0.00  0.00    +0.000 C 
ENDBRANCH   1  17
TORSDOF 1
ENDMDL
