MODEL 1
REMARK VINA RESULT:      -8.2      0.000      0.000
REMARK  Name = 
REMARK  4 active torsions:
REMARK  status: ('A' for Active; 'I' for Inactive)
REMARK    1  A    between atoms: C_2  and  C_10
REMARK    2  A    between atoms: N_3  and  C_4
REMARK    3  A    between atoms: C_4  and  C_5
REMARK    4  A    between atoms: C_13  and  N_14
REMARK                            x       y       z     vdW  Elec       q    Type
REMARK                         _______ _______ _______ _____ _____    ______ ____
ROOT
ATOM      1  C   UNL     1       2.740   4.908  18.877  0.00  0.00    +0.000 C 
ATOM      2  C   UNL     1       2.870   6.026  17.828  0.00  0.00    +0.000 C 
ATOM      3  C   UNL     1       4.202   6.772  17.863  0.00  0.00    +0.000 C 
ATOM      4  C   UNL     1       5.434   5.863  17.948  0.00  0.00    +0.000 C 
ATOM      5  C   UNL     1       5.298   4.847  19.087  0.00  0.00    +0.000 C 
ATOM      6  C   UNL     1       3.998   4.048  19.079  0.00  0.00    +0.000 C 
ENDROOT
BRANCH   4   7
ATOM      7  N   UNL     1       5.799   5.279  16.650  0.00  0.00    +0.000 N 
ATOM      8  C   UNL     1       5.102   4.335  15.943  0.00  0.00    +0.000 C 
ATOM      9  O   UNL     1       4.119   3.675  16.213  0.00  0.00    +0.000 OA
ATOM     10  C   UNL     1       5.753   4.198  14.650  0.00  0.00    +0.000 A 
ATOM     11  C   UNL     1       5.384   3.431  13.562  0.00  0.00    +0.000 A 
ATOM     12  C   UNL     1       6.188   3.515  12.427  0.00  0.00    +0.000 A 
ATOM     13  C   UNL     1       7.325   4.352  12.415  0.00  0.00    +0.000 A 
ATOM     14  C   UNL     1       7.668   5.125  13.530  0.00  0.00    +0.000 A 
ATOM     15  C   UNL     1       6.849   5.032  14.637  0.00  0.00    +0.000 A 
ATOM     16  C   UNL     1       6.878   5.729  15.922  0.00  0.00    +0.000 C 
ATOM     17  O   UNL     1       7.715   6.561  16.215  0.00  0.00    +0.000 OA
ENDBRANCH   4   7
BRANCH   1  19
ATOM     18  O   UNL     1       2.276   4.860  21.254  0.00  0.00    +0.000 OA
ATOM     19  C   UNL     1       2.320   5.508  20.213  0.00  0.00    +0.000 C 
ATOM     20  N   UNL     1       1.927   6.822  20.146  0.00  0.00    +0.000 N 
ATOM     21  H   UNL     1       2.198   7.387  19.350  0.00  0.00    +0.000 HD
BRANCH  20  22
ATOM     22  C   UNL     1       1.529   7.507  21.349  0.00  0.00    +0.000 C 
BRANCH  22  23
ATOM     23  C   UNL     1       0.831   8.757  20.981  0.00  0.00    +0.000 A 
ATOM     24  C   UNL     1      -0.030   9.586  21.669  0.00  0.00    +0.000 A 
ATOM     25  C   UNL     1      -0.346  10.648  20.792  0.00  0.00    +0.000 A 
ATOM     26  C   UNL     1       0.329  10.392  19.621  0.00  0.00    +0.000 A 
ATOM     27  O   UNL     1       1.045   9.243  19.723  0.00  0.00    +0.000 OA
ENDBRANCH  22  23
ENDBRANCH  20  22
ENDBRANCH   1  19
TORSDOF 4
ENDMDL
MODEL 2
REMARK VINA RESULT:      -8.1      1.640      8.086
REMARK  Name = 
REMARK  4 active torsions:
REMARK  status: ('A' for Active; 'I' for Inactive)
REMARK    1  A    between atoms: C_2  and  C_10
REMARK    2  A    between atoms: N_3  and  C_4
REMARK    3  A    between atoms: C_4  and  C_5
REMARK    4  A    between atoms: C_13  and  N_14
REMARK                            x       y       z     vdW  Elec       q    Type
REMARK                         _______ _______ _______ _____ _____    ______ ____
ROOT
ATOM      1  C   UNL     1       6.448   6.262  17.865  0.00  0.00    +0.000 C 
ATOM      2  C   UNL     1       5.640   7.287  17.051  0.00  0.00    +0.000 C 
ATOM      3  C   UNL     1       4.288   6.776  16.559  0.00  0.00    +0.000 C 
ATOM      4  C   UNL     1       3.460   6.049  17.625  0.00  0.00    +0.000 C 
ATOM      5  C   UNL     1       4.283   4.960  18.321  0.00  0.00    +0.000 C 
ATOM      6  C   UNL     1       5.631   5.426  18.864  0.00  0.00    +0.000 C 
ENDROOT
BRANCH   4   7
ATOM      7  N   UNL     1       2.774   6.974  18.539  0.00  0.00    +0.000 N 
ATOM      8  C   UNL     1       2.342   8.243  18.260  0.00  0.00    +0.000 C 
ATOM      9  O   UNL     1       2.487   8.960  17.290  0.00  0.00    +0.000 OA
ATOM     10  C   UNL     1       1.574   8.698  19.408  0.00  0.00    +0.000 A 
ATOM     11  C   UNL     1       0.872   9.875  19.579  0.00  0.00    +0.000 A 
ATOM     12  C   UNL     1       0.195  10.039  20.785  0.00  0.00    +0.000 A 
ATOM     13  C   UNL     1       0.243   9.033  21.775  0.00  0.00    +0.000 A 
ATOM     14  C   UNL     1       0.956   7.846  21.569  0.00  0.00    +0.000 A 
ATOM     15  C   UNL     1       1.607   7.704  20.361  0.00  0.00    +0.000 A 
ATOM     16  C   UNL     1       2.378   6.594  19.802  0.00  0.00    +0.000 C 
ATOM     17  O   UNL     1       2.569   5.547  20.390  0.00  0.00    +0.000 OA
ENDBRANCH   4   7
BRANCH   1  19
ATOM     18  O   UNL     1       7.893   4.400  17.307  0.00  0.00    +0.000 OA
ATOM     19  C   UNL     1       7.193   5.330  16.918  0.00  0.00    +0.000 C 
ATOM     20  N   UNL     1       7.072   5.657  15.590  0.00  0.00    +0.000 N 
ATOM     21  H   UNL     1       6.316   6.258  15.288  0.00  0.00    +0.000 HD
BRANCH  20  22
ATOM     22  C   UNL     1       7.714   4.836  14.595  0.00  0.00    +0.000 C 
BRANCH  22  23
ATOM     23  C   UNL     1       6.678   4.243  13.723  0.00  0.00    +0.000 A 
ATOM     24  C   UNL     1       5.321   4.057  13.875  0.00  0.00    +0.000 A 
ATOM     25  C   UNL     1       4.864   3.458  12.679  0.00  0.00    +0.000 A 
ATOM     26  C   UNL     1       5.973   3.302  11.880  0.00  0.00    +0.000 A 
ATOM     27  O   UNL     1       7.083   3.773  12.506  0.00  0.00    +0.000 OA
ENDBRANCH  22  23
ENDBRANCH  20  22
ENDBRANCH   1  19
TORSDOF 4
ENDMDL
MODEL 3
REMARK VINA RESULT:      -7.8      1.615      7.966
REMARK  Name = 
REMARK  4 active torsions:
REMARK  status: ('A' for Active; 'I' for Inactive)
REMARK    1  A    between atoms: C_2  and  C_10
REMARK    2  A    between atoms: N_3  and  C_4
REMARK    3  A    between atoms: C_4  and  C_5
REMARK    4  A    between atoms: C_13  and  N_14
REMARK                            x       y       z     vdW  Elec       q    Type
REMARK                         _______ _______ _______ _____ _____    ______ ____
ROOT
ATOM      1  C   UNL     1       6.324   6.206  18.036  0.00  0.00    +0.000 C 
ATOM      2  C   UNL     1       5.560   7.275  17.237  0.00  0.00    +0.000 C 
ATOM      3  C   UNL     1       4.245   6.790  16.630  0.00  0.00    +0.000 C 
ATOM      4  C   UNL     1       3.358   5.994  17.594  0.00  0.00    +0.000 C 
ATOM      5  C   UNL     1       4.145   4.868  18.272  0.00  0.00    +0.000 C 
ATOM      6  C   UNL     1       5.452   5.305  18.927  0.00  0.00    +0.000 C 
ENDROOT
BRANCH   4   7
ATOM      7  N   UNL     1       2.609   6.857  18.519  0.00  0.00    +0.000 N 
ATOM      8  C   UNL     1       2.284   6.587  19.822  0.00  0.00    +0.000 C 
ATOM      9  O   UNL     1       2.410   5.591  20.505  0.00  0.00    +0.000 OA
ATOM     10  C   UNL     1       1.699   7.796  20.379  0.00  0.00    +0.000 A 
ATOM     11  C   UNL     1       1.283   8.052  21.671  0.00  0.00    +0.000 A 
ATOM     12  C   UNL     1       0.781   9.324  21.934  0.00  0.00    +0.000 A 
ATOM     13  C   UNL     1       0.707  10.291  20.908  0.00  0.00    +0.000 A 
ATOM     14  C   UNL     1       1.145  10.006  19.610  0.00  0.00    +0.000 A 
ATOM     15  C   UNL     1       1.649   8.743  19.378  0.00  0.00    +0.000 A 
ATOM     16  C   UNL     1       2.235   8.139  18.183  0.00  0.00    +0.000 C 
ATOM     17  O   UNL     1       2.363   8.730  17.127  0.00  0.00    +0.000 OA
ENDBRANCH   4   7
BRANCH   1  19
ATOM     18  O   UNL     1       7.903   4.461  17.464  0.00  0.00    +0.000 OA
ATOM     19  C   UNL     1       7.134   5.338  17.082  0.00  0.00    +0.000 C 
ATOM     20  N   UNL     1       6.986   5.663  15.756  0.00  0.00    +0.000 N 
ATOM     21  H   UNL     1       6.186   6.207  15.458  0.00  0.00    +0.000 HD
BRANCH  20  22
ATOM     22  C   UNL     1       7.685   4.898  14.755  0.00  0.00    +0.000 C 
BRANCH  22  23
ATOM     23  C   UNL     1       6.698   4.296  13.835  0.00  0.00    +0.000 A 
ATOM     24  C   UNL     1       5.339   4.080  13.931  0.00  0.00    +0.000 A 
ATOM     25  C   UNL     1       4.943   3.487  12.711  0.00  0.00    +0.000 A 
ATOM     26  C   UNL     1       6.085   3.363  11.955  0.00  0.00    +0.000 A 
ATOM     27  O   UNL     1       7.159   3.849  12.630  0.00  0.00    +0.000 OA
ENDBRANCH  22  23
ENDBRANCH  20  22
ENDBRANCH   1  19
TORSDOF 4
ENDMDL
MODEL 4
REMARK VINA RESULT:      -7.4      1.481      8.213
REMARK  Name = 
REMARK  4 active torsions:
REMARK  status: ('A' for Active; 'I' for Inactive)
REMARK    1  A    between atoms: C_2  and  C_10
REMARK    2  A    between atoms: N_3  and  C_4
REMARK    3  A    between atoms: C_4  and  C_5
REMARK    4  A    between atoms: C_13  and  N_14
REMARK                            x       y       z     vdW  Elec       q    Type
REMARK                         _______ _______ _______ _____ _____    ______ ____
ROOT
ATOM      1  C   UNL     1       5.797   5.940  18.323  0.00  0.00    +0.000 C 
ATOM      2  C   UNL     1       5.151   6.993  17.407  0.00  0.00    +0.000 C 
ATOM      3  C   UNL     1       3.731   6.654  16.958  0.00  0.00    +0.000 C 
ATOM      4  C   UNL     1       2.809   6.172  18.084  0.00  0.00    +0.000 C 
ATOM      5  C   UNL     1       3.459   5.041  18.889  0.00  0.00    +0.000 C 
ATOM      6  C   UNL     1       4.867   5.342  19.393  0.00  0.00    +0.000 C 
ENDROOT
BRANCH   4   7
ATOM      7  N   UNL     1       2.284   7.277  18.898  0.00  0.00    +0.000 N 
ATOM      8  C   UNL     1       2.034   8.560  18.488  0.00  0.00    +0.000 C 
ATOM      9  O   UNL     1       2.260   9.143  17.447  0.00  0.00    +0.000 OA
ATOM     10  C   UNL     1       1.364   9.239  19.586  0.00  0.00    +0.000 A 
ATOM     11  C   UNL     1       0.842  10.517  19.635  0.00  0.00    +0.000 A 
ATOM     12  C   UNL     1       0.222  10.902  20.821  0.00  0.00    +0.000 A 
ATOM     13  C   UNL     1       0.144  10.009  21.911  0.00  0.00    +0.000 A 
ATOM     14  C   UNL     1       0.674   8.715  21.829  0.00  0.00    +0.000 A 
ATOM     15  C   UNL     1       1.273   8.355  20.639  0.00  0.00    +0.000 A 
ATOM     16  C   UNL     1       1.863   7.093  20.197  0.00  0.00    +0.000 C 
ATOM     17  O   UNL     1       1.913   6.096  20.892  0.00  0.00    +0.000 OA
ENDBRANCH   4   7
BRANCH   1  19
ATOM     18  O   UNL     1       7.428   4.242  17.755  0.00  0.00    +0.000 OA
ATOM     19  C   UNL     1       6.379   4.815  17.476  0.00  0.00    +0.000 C 
ATOM     20  N   UNL     1       5.668   4.538  16.335  0.00  0.00    +0.000 N 
ATOM     21  H   UNL     1       4.706   4.844  16.256  0.00  0.00    +0.000 HD
BRANCH  20  22
ATOM     22  C   UNL     1       6.107   3.479  15.463  0.00  0.00    +0.000 C 
BRANCH  22  23
ATOM     23  C   UNL     1       6.645   4.071  14.221  0.00  0.00    +0.000 A 
ATOM     24  C   UNL     1       7.454   5.161  13.978  0.00  0.00    +0.000 A 
ATOM     25  C   UNL     1       7.648   5.209  12.579  0.00  0.00    +0.000 A 
ATOM     26  C   UNL     1       6.934   4.156  12.056  0.00  0.00    +0.000 A 
ATOM     27  O   UNL     1       6.317   3.459  13.045  0.00  0.00    +0.000 OA
ENDBRANCH  22  23
ENDBRANCH  20  22
ENDBRANCH   1  19
TORSDOF 4
ENDMDL
MODEL 5
REMARK VINA RESULT:      -7.3      1.465      8.019
REMARK  Name = 
REMARK  4 active torsions:
REMARK  status: ('A' for Active; 'I' for Inactive)
REMARK    1  A    between atoms: C_2  and  C_10
REMARK    2  A    between atoms: N_3  and  C_4
REMARK    3  A    between atoms: C_4  and  C_5
REMARK    4  A    between atoms: C_13  and  N_14
REMARK                            x       y       z     vdW  Elec       q    Type
REMARK                         _______ _______ _______ _____ _____    ______ ____
ROOT
ATOM      1  C   UNL     1       5.874   5.855  18.408  0.00  0.00    +0.000 C 
ATOM      2  C   UNL     1       5.236   6.920  17.501  0.00  0.00    +0.000 C 
ATOM      3  C   UNL     1       3.875   6.528  16.929  0.00  0.00    +0.000 C 
ATOM      4  C   UNL     1       2.903   5.936  17.956  0.00  0.00    +0.000 C 
ATOM      5  C   UNL     1       3.558   4.800  18.749  0.00  0.00    +0.000 C 
ATOM      6  C   UNL     1       4.906   5.150  19.373  0.00  0.00    +0.000 C 
ENDROOT
BRANCH   4   7
ATOM      7  N   UNL     1       2.256   6.964  18.784  0.00  0.00    +0.000 N 
ATOM      8  C   UNL     1       1.892   6.857  20.100  0.00  0.00    +0.000 C 
ATOM      9  O   UNL     1       1.894   5.921  20.874  0.00  0.00    +0.000 OA
ATOM     10  C   UNL     1       1.453   8.174  20.533  0.00  0.00    +0.000 A 
ATOM     11  C   UNL     1       1.062   8.596  21.788  0.00  0.00    +0.000 A 
ATOM     12  C   UNL     1       0.713   9.938  21.924  0.00  0.00    +0.000 A 
ATOM     13  C   UNL     1       0.763  10.807  20.813  0.00  0.00    +0.000 A 
ATOM     14  C   UNL     1       1.173  10.352  19.554  0.00  0.00    +0.000 A 
ATOM     15  C   UNL     1       1.523   9.022  19.449  0.00  0.00    +0.000 A 
ATOM     16  C   UNL     1       2.042   8.244  18.324  0.00  0.00    +0.000 C 
ATOM     17  O   UNL     1       2.247   8.715  17.222  0.00  0.00    +0.000 OA
ENDBRANCH   4   7
BRANCH   1  19
ATOM     18  O   UNL     1       7.647   4.293  17.873  0.00  0.00    +0.000 OA
ATOM     19  C   UNL     1       6.581   4.812  17.552  0.00  0.00    +0.000 C 
ATOM     20  N   UNL     1       5.963   4.547  16.356  0.00  0.00    +0.000 N 
ATOM     21  H   UNL     1       4.989   4.794  16.228  0.00  0.00    +0.000 HD
BRANCH  20  22
ATOM     22  C   UNL     1       6.525   3.560  15.468  0.00  0.00    +0.000 C 
BRANCH  22  23
ATOM     23  C   UNL     1       6.940   4.224  14.215  0.00  0.00    +0.000 A 
ATOM     24  C   UNL     1       6.626   4.002  12.890  0.00  0.00    +0.000 A 
ATOM     25  C   UNL     1       7.317   4.986  12.147  0.00  0.00    +0.000 A 
ATOM     26  C   UNL     1       8.019   5.736  13.062  0.00  0.00    +0.000 A 
ATOM     27  O   UNL     1       7.800   5.279  14.322  0.00  0.00    +0.000 OA
ENDBRANCH  22  23
ENDBRANCH  20  22
ENDBRANCH   1  19
TORSDOF 4
ENDMDL
MODEL 6
REMARK VINA RESULT:      -7.2      0.912      2.092
REMARK  Name = 
REMARK  4 active torsions:
REMARK  status: ('A' for Active; 'I' for Inactive)
REMARK    1  A    between atoms: C_2  and  C_10
REMARK    2  A    between atoms: N_3  and  C_4
REMARK    3  A    between atoms: C_4  and  C_5
REMARK    4  A    between atoms: C_13  and  N_14
REMARK                            x       y       z     vdW  Elec       q    Type
REMARK                         _______ _______ _______ _____ _____    ______ ____
ROOT
ATOM      1  C   UNL     1       2.621   6.359  18.203  0.00  0.00    +0.000 C 
ATOM      2  C   UNL     1       3.840   7.236  17.873  0.00  0.00    +0.000 C 
ATOM      3  C   UNL     1       5.182   6.627  18.272  0.00  0.00    +0.000 C 
ATOM      4  C   UNL     1       5.356   5.158  17.867  0.00  0.00    +0.000 C 
ATOM      5  C   UNL     1       4.165   4.311  18.327  0.00  0.00    +0.000 C 
ATOM      6  C   UNL     1       2.798   4.857  17.923  0.00  0.00    +0.000 C 
ENDROOT
BRANCH   4   7
ATOM      7  N   UNL     1       5.708   4.998  16.449  0.00  0.00    +0.000 N 
ATOM      8  C   UNL     1       6.748   5.592  15.784  0.00  0.00    +0.000 C 
ATOM      9  O   UNL     1       7.550   6.442  16.115  0.00  0.00    +0.000 OA
ATOM     10  C   UNL     1       6.801   5.002  14.456  0.00  0.00    +0.000 A 
ATOM     11  C   UNL     1       7.715   5.212  13.442  0.00  0.00    +0.000 A 
ATOM     12  C   UNL     1       7.538   4.482  12.269  0.00  0.00    +0.000 A 
ATOM     13  C   UNL     1       6.462   3.576  12.145  0.00  0.00    +0.000 A 
ATOM     14  C   UNL     1       5.556   3.377  13.194  0.00  0.00    +0.000 A 
ATOM     15  C   UNL     1       5.761   4.104  14.349  0.00  0.00    +0.000 A 
ATOM     16  C   UNL     1       5.060   4.100  15.632  0.00  0.00    +0.000 C 
ATOM     17  O   UNL     1       4.103   3.388  15.870  0.00  0.00    +0.000 OA
ENDBRANCH   4   7
BRANCH   1  19
ATOM     18  O   UNL     1       2.186   5.637  20.474  0.00  0.00    +0.000 OA
ATOM     19  C   UNL     1       2.229   6.557  19.662  0.00  0.00    +0.000 C 
ATOM     20  N   UNL     1       1.860   7.840  19.980  0.00  0.00    +0.000 N 
ATOM     21  H   UNL     1       2.131   8.605  19.375  0.00  0.00    +0.000 HD
BRANCH  20  22
ATOM     22  C   UNL     1       1.489   8.157  21.336  0.00  0.00    +0.000 C 
BRANCH  22  23
ATOM     23  C   UNL     1       0.661   9.382  21.333  0.00  0.00    +0.000 A 
ATOM     24  C   UNL     1       0.040  10.089  20.325  0.00  0.00    +0.000 A 
ATOM     25  C   UNL     1      -0.632  11.164  20.949  0.00  0.00    +0.000 A 
ATOM     26  C   UNL     1      -0.366  11.055  22.294  0.00  0.00    +0.000 A 
ATOM     27  O   UNL     1       0.423   9.976  22.538  0.00  0.00    +0.000 OA
ENDBRANCH  22  23
ENDBRANCH  20  22
ENDBRANCH   1  19
TORSDOF 4
ENDMDL
MODEL 7
REMARK VINA RESULT:      -7.2      3.394     10.445
REMARK  Name = 
REMARK  4 active torsions:
REMARK  status: ('A' for Active; 'I' for Inactive)
REMARK    1  A    between atoms: C_2  and  C_10
REMARK    2  A    between atoms: N_3  and  C_4
REMARK    3  A    between atoms: C_4  and  C_5
REMARK    4  A    between atoms: C_13  and  N_14
REMARK                            x       y       z     vdW  Elec       q    Type
REMARK                         _______ _______ _______ _____ _____    ______ ____
ROOT
ATOM      1  C   UNL     1       0.375   9.575  18.868  0.00  0.00    +0.000 C 
ATOM      2  C   UNL     1       0.321   9.251  20.371  0.00  0.00    +0.000 C 
ATOM      3  C   UNL     1       1.091  10.230  21.255  0.00  0.00    +0.000 C 
ATOM      4  C   UNL     1       0.834  11.708  20.936  0.00  0.00    +0.000 C 
ATOM      5  C   UNL     1       1.018  11.994  19.442  0.00  0.00    +0.000 C 
ATOM      6  C   UNL     1       0.241  11.065  18.513  0.00  0.00    +0.000 C 
ENDROOT
BRANCH   4   7
ATOM      7  N   UNL     1      -0.431  12.199  21.500  0.00  0.00    +0.000 N 
ATOM      8  C   UNL     1      -1.290  13.106  20.937  0.00  0.00    +0.000 C 
ATOM      9  O   UNL     1      -1.209  13.799  19.943  0.00  0.00    +0.000 OA
ATOM     10  C   UNL     1      -2.480  13.146  21.772  0.00  0.00    +0.000 A 
ATOM     11  C   UNL     1      -3.656  13.846  21.585  0.00  0.00    +0.000 A 
ATOM     12  C   UNL     1      -4.654  13.673  22.541  0.00  0.00    +0.000 A 
ATOM     13  C   UNL     1      -4.448  12.818  23.646  0.00  0.00    +0.000 A 
ATOM     14  C   UNL     1      -3.248  12.115  23.804  0.00  0.00    +0.000 A 
ATOM     15  C   UNL     1      -2.281  12.294  22.837  0.00  0.00    +0.000 A 
ATOM     16  C   UNL     1      -0.964  11.683  22.661  0.00  0.00    +0.000 C 
ATOM     17  O   UNL     1      -0.500  10.858  23.424  0.00  0.00    +0.000 OA
ENDBRANCH   4   7
BRANCH   1  19
ATOM     18  O   UNL     1       2.326   9.634  17.434  0.00  0.00    +0.000 OA
ATOM     19  C   UNL     1       1.667   9.029  18.275  0.00  0.00    +0.000 C 
ATOM     20  N   UNL     1       2.002   7.770  18.707  0.00  0.00    +0.000 N 
ATOM     21  H   UNL     1       1.591   7.405  19.557  0.00  0.00    +0.000 HD
BRANCH  20  22
ATOM     22  C   UNL     1       3.216   7.155  18.233  0.00  0.00    +0.000 C 
BRANCH  22  23
ATOM     23  C   UNL     1       2.970   5.714  18.016  0.00  0.00    +0.000 A 
ATOM     24  C   UNL     1       1.816   4.968  17.900  0.00  0.00    +0.000 A 
ATOM     25  C   UNL     1       2.225   3.635  17.672  0.00  0.00    +0.000 A 
ATOM     26  C   UNL     1       3.600   3.648  17.680  0.00  0.00    +0.000 A 
ATOM     27  O   UNL     1       4.064   4.907  17.891  0.00  0.00    +0.000 OA
ENDBRANCH  22  23
ENDBRANCH  20  22
ENDBRANCH   1  19
TORSDOF 4
ENDMDL
MODEL 8
REMARK VINA RESULT:      -7.1      1.575      8.275
REMARK  Name = 
REMARK  4 active torsions:
REMARK  status: ('A' for Active; 'I' for Inactive)
REMARK    1  A    between atoms: C_2  and  C_10
REMARK    2  A    between atoms: N_3  and  C_4
REMARK    3  A    between atoms: C_4  and  C_5
REMARK    4  A    between atoms: C_13  and  N_14
REMARK                            x       y       z     vdW  Elec       q    Type
REMARK                         _______ _______ _______ _____ _____    ______ ____
ROOT
ATOM      1  C   UNL     1       5.945   6.472  16.584  0.00  0.00    +0.000 C 
ATOM      2  C   UNL     1       4.477   6.245  16.186  0.00  0.00    +0.000 C 
ATOM      3  C   UNL     1       3.764   5.164  16.994  0.00  0.00    +0.000 C 
ATOM      4  C   UNL     1       3.981   5.259  18.509  0.00  0.00    +0.000 C 
ATOM      5  C   UNL     1       5.471   5.364  18.851  0.00  0.00    +0.000 C 
ATOM      6  C   UNL     1       6.225   6.455  18.096  0.00  0.00    +0.000 C 
ENDROOT
BRANCH   4   7
ATOM      7  N   UNL     1       3.136   6.283  19.140  0.00  0.00    +0.000 N 
ATOM      8  C   UNL     1       2.872   7.541  18.669  0.00  0.00    +0.000 C 
ATOM      9  O   UNL     1       3.312   8.169  17.727  0.00  0.00    +0.000 OA
ATOM     10  C   UNL     1       1.857   8.120  19.534  0.00  0.00    +0.000 A 
ATOM     11  C   UNL     1       1.207   9.335  19.430  0.00  0.00    +0.000 A 
ATOM     12  C   UNL     1       0.247   9.624  20.396  0.00  0.00    +0.000 A 
ATOM     13  C   UNL     1      -0.031   8.702  21.428  0.00  0.00    +0.000 A 
ATOM     14  C   UNL     1       0.638   7.474  21.503  0.00  0.00    +0.000 A 
ATOM     15  C   UNL     1       1.575   7.207  20.527  0.00  0.00    +0.000 A 
ATOM     16  C   UNL     1       2.397   6.025  20.273  0.00  0.00    +0.000 C 
ATOM     17  O   UNL     1       2.361   5.023  20.961  0.00  0.00    +0.000 OA
ENDBRANCH   4   7
BRANCH   1  19
ATOM     18  O   UNL     1       7.669   4.773  16.493  0.00  0.00    +0.000 OA
ATOM     19  C   UNL     1       6.826   5.437  15.896  0.00  0.00    +0.000 C 
ATOM     20  N   UNL     1       6.649   5.355  14.538  0.00  0.00    +0.000 N 
ATOM     21  H   UNL     1       5.804   5.724  14.118  0.00  0.00    +0.000 HD
BRANCH  20  22
ATOM     22  C   UNL     1       7.410   4.396  13.778  0.00  0.00    +0.000 C 
BRANCH  22  23
ATOM     23  C   UNL     1       6.502   3.687  12.853  0.00  0.00    +0.000 A 
ATOM     24  C   UNL     1       6.715   2.733  11.880  0.00  0.00    +0.000 A 
ATOM     25  C   UNL     1       5.445   2.418  11.347  0.00  0.00    +0.000 A 
ATOM     26  C   UNL     1       4.540   3.209  12.017  0.00  0.00    +0.000 A 
ATOM     27  O   UNL     1       5.172   3.987  12.933  0.00  0.00    +0.000 OA
ENDBRANCH  22  23
ENDBRANCH  20  22
ENDBRANCH   1  19
TORSDOF 4
ENDMDL
MODEL 9
REMARK VINA RESULT:      -7.1      3.282     10.627
REMARK  Name = 
REMARK  4 active torsions:
REMARK  status: ('A' for Active; 'I' for Inactive)
REMARK    1  A    between atoms: C_2  and  C_10
REMARK    2  A    between atoms: N_3  and  C_4
REMARK    3  A    between atoms: C_4  and  C_5
REMARK    4  A    between atoms: C_13  and  N_14
REMARK                            x       y       z     vdW  Elec       q    Type
REMARK                         _______ _______ _______ _____ _____    ______ ____
ROOT
ATOM      1  C   UNL     1       0.249   9.552  18.925  0.00  0.00    +0.000 C 
ATOM      2  C   UNL     1       0.322   9.289  20.439  0.00  0.00    +0.000 C 
ATOM      3  C   UNL     1       0.974  10.412  21.244  0.00  0.00    +0.000 C 
ATOM      4  C   UNL     1       0.476  11.817  20.889  0.00  0.00    +0.000 C 
ATOM      5  C   UNL     1       0.537  12.064  19.377  0.00  0.00    +0.000 C 
ATOM      6  C   UNL     1      -0.132  10.988  18.526  0.00  0.00    +0.000 C 
ENDROOT
BRANCH   4   7
ATOM      7  N   UNL     1      -0.820  12.132  21.506  0.00  0.00    +0.000 N 
ATOM      8  C   UNL     1      -1.343  11.593  22.651  0.00  0.00    +0.000 C 
ATOM      9  O   UNL     1      -0.970  10.689  23.372  0.00  0.00    +0.000 OA
ATOM     10  C   UNL     1      -2.557  12.332  22.960  0.00  0.00    +0.000 A 
ATOM     11  C   UNL     1      -3.398  12.218  24.050  0.00  0.00    +0.000 A 
ATOM     12  C   UNL     1      -4.487  13.084  24.102  0.00  0.00    +0.000 A 
ATOM     13  C   UNL     1      -4.703  14.026  23.073  0.00  0.00    +0.000 A 
ATOM     14  C   UNL     1      -3.829  14.125  21.985  0.00  0.00    +0.000 A 
ATOM     15  C   UNL     1      -2.751  13.263  21.963  0.00  0.00    +0.000 A 
ATOM     16  C   UNL     1      -1.633  13.136  21.029  0.00  0.00    +0.000 C 
ATOM     17  O   UNL     1      -1.497  13.841  20.047  0.00  0.00    +0.000 OA
ENDBRANCH   4   7
BRANCH   1  19
ATOM     18  O   UNL     1       2.178   9.932  17.509  0.00  0.00    +0.000 OA
ATOM     19  C   UNL     1       1.579   9.186  18.279  0.00  0.00    +0.000 C 
ATOM     20  N   UNL     1       2.023   7.921  18.573  0.00  0.00    +0.000 N 
ATOM     21  H   UNL     1       1.650   7.432  19.379  0.00  0.00    +0.000 HD
BRANCH  20  22
ATOM     22  C   UNL     1       3.281   7.466  18.038  0.00  0.00    +0.000 C 
BRANCH  22  23
ATOM     23  C   UNL     1       3.204   6.009  17.805  0.00  0.00    +0.000 A 
ATOM     24  C   UNL     1       2.208   5.078  18.013  0.00  0.00    +0.000 A 
ATOM     25  C   UNL     1       2.720   3.839  17.567  0.00  0.00    +0.000 A 
ATOM     26  C   UNL     1       4.001   4.088  17.130  0.00  0.00    +0.000 A 
ATOM     27  O   UNL     1       4.307   5.403  17.273  0.00  0.00    +0.000 OA
ENDBRANCH  22  23
ENDBRANCH  20  22
ENDBRANCH   1  19
TORSDOF 4
ENDMDL
