MODEL 1
REMARK VINA RESULT:      -6.9      0.000      0.000
REMARK  Name = 
REMARK  5 active torsions:
REMARK  status: ('A' for Active; 'I' for Inactive)
REMARK    1  A    between atoms: N_1  and  S_2
REMARK    2  A    between atoms: S_2  and  C_5
REMARK    3  A    between atoms: C_8  and  N_9
REMARK    4  A    between atoms: C_10  and  C_12
REMARK    5  A    between atoms: C_12  and  C_13
REMARK                            x       y       z     vdW  Elec       q    Type
REMARK                         _______ _______ _______ _____ _____    ______ ____
ROOT
ATOM      1  C   UNL     1       0.734   9.627  19.034  0.00  0.00    +0.000 A 
ATOM      2  C   UNL     1       0.992   8.896  20.193  0.00  0.00    +0.000 A 
ATOM      3  C   UNL     1       1.901   7.835  20.149  0.00  0.00    +0.000 A 
ATOM      4  C   UNL     1       2.537   7.485  18.955  0.00  0.00    +0.000 A 
ATOM      5  C   UNL     1       2.298   8.251  17.807  0.00  0.00    +0.000 A 
ATOM      6  C   UNL     1       1.385   9.310  17.839  0.00  0.00    +0.000 A 
ENDROOT
BRANCH   4   7
ATOM      7  N   UNL     1       3.413   6.380  18.846  0.00  0.00    +0.000 N 
ATOM      8  C   UNL     1       3.044   5.069  18.595  0.00  0.00    +0.000 C 
ATOM      9  O   UNL     1       1.899   4.669  18.386  0.00  0.00    +0.000 OA
ATOM     10  H   UNL     1       4.405   6.588  18.869  0.00  0.00    +0.000 HD
BRANCH   8  11
ATOM     11  C   UNL     1       4.207   4.087  18.580  0.00  0.00    +0.000 C 
BRANCH  11  12
ATOM     12  C   UNL     1       5.148   4.374  17.435  0.00  0.00    +0.000 A 
ATOM     13  C   UNL     1       4.738   4.026  16.134  0.00  0.00    +0.000 A 
ATOM     14  C   UNL     1       5.601   4.161  15.046  0.00  0.00    +0.000 A 
ATOM     15  C   UNL     1       6.892   4.641  15.241  0.00  0.00    +0.000 A 
ATOM     16  C   UNL     1       7.310   5.009  16.519  0.00  0.00    +0.000 A 
ATOM     17  C   UNL     1       6.444   4.884  17.609  0.00  0.00    +0.000 A 
ATOM     18 BR   UNL     1       7.101   5.435  19.306  0.00  0.00    +0.000 Br
ENDBRANCH  11  12
ENDBRANCH   8  11
ENDBRANCH   4   7
BRANCH   1  19
ATOM     19  S   UNL     1      -0.482  10.910  19.052  0.00  0.00    +0.000 S 
ATOM     20  O   UNL     1      -0.775  11.277  20.419  0.00  0.00    +0.000 OA
ATOM     21  O   UNL     1      -1.517  10.598  18.095  0.00  0.00    +0.000 OA
BRANCH  19  22
ATOM     22  N   UNL     1       0.365  12.205  18.398  0.00  0.00    +0.000 NA
ATOM     23  H   UNL     1       0.079  12.342  17.427  0.00  0.00    +0.000 HD
ATOM     24  H   UNL     1       1.367  12.062  18.516  0.00  0.00    +0.000 HD
ENDBRANCH  19  22
ENDBRANCH   1  19
TORSDOF 5
ENDMDL
MODEL 2
REMARK VINA RESULT:      -6.9      0.889      1.491
REMARK  Name = 
REMARK  5 active torsions:
REMARK  status: ('A' for Active; 'I' for Inactive)
REMARK    1  A    between atoms: N_1  and  S_2
REMARK    2  A    between atoms: S_2  and  C_5
REMARK    3  A    between atoms: C_8  and  N_9
REMARK    4  A    between atoms: C_10  and  C_12
REMARK    5  A    between atoms: C_12  and  C_13
REMARK                            x       y       z     vdW  Elec       q    Type
REMARK                         _______ _______ _______ _____ _____    ______ ____
ROOT
ATOM      1  C   UNL     1       0.759   9.660  19.297  0.00  0.00    +0.000 A 
ATOM      2  C   UNL     1       1.332   9.453  18.043  0.00  0.00    +0.000 A 
ATOM      3  C   UNL     1       2.178   8.358  17.846  0.00  0.00    +0.000 A 
ATOM      4  C   UNL     1       2.473   7.481  18.894  0.00  0.00    +0.000 A 
ATOM      5  C   UNL     1       1.861   7.679  20.138  0.00  0.00    +0.000 A 
ATOM      6  C   UNL     1       1.019   8.776  20.348  0.00  0.00    +0.000 A 
ENDROOT
BRANCH   4   7
ATOM      7  N   UNL     1       3.373   6.399  18.760  0.00  0.00    +0.000 N 
ATOM      8  C   UNL     1       3.061   5.132  18.295  0.00  0.00    +0.000 C 
ATOM      9  O   UNL     1       1.961   4.765  17.885  0.00  0.00    +0.000 OA
ATOM     10  H   UNL     1       4.350   6.601  18.941  0.00  0.00    +0.000 HD
BRANCH   8  11
ATOM     11  C   UNL     1       4.231   4.160  18.307  0.00  0.00    +0.000 C 
BRANCH  11  12
ATOM     12  C   UNL     1       5.187   4.439  17.172  0.00  0.00    +0.000 A 
ATOM     13  C   UNL     1       4.800   4.066  15.871  0.00  0.00    +0.000 A 
ATOM     14  C   UNL     1       5.678   4.195  14.793  0.00  0.00    +0.000 A 
ATOM     15  C   UNL     1       6.960   4.693  15.000  0.00  0.00    +0.000 A 
ATOM     16  C   UNL     1       7.354   5.086  16.278  0.00  0.00    +0.000 A 
ATOM     17  C   UNL     1       6.473   4.968  17.357  0.00  0.00    +0.000 A 
ATOM     18 BR   UNL     1       7.098   5.553  19.054  0.00  0.00    +0.000 Br
ENDBRANCH  11  12
ENDBRANCH   8  11
ENDBRANCH   4   7
BRANCH   1  19
ATOM     19  S   UNL     1      -0.236  11.092  19.588  0.00  0.00    +0.000 S 
ATOM     20  O   UNL     1      -1.529  10.914  18.966  0.00  0.00    +0.000 OA
ATOM     21  O   UNL     1       0.564  12.277  19.386  0.00  0.00    +0.000 OA
BRANCH  19  22
ATOM     22  N   UNL     1      -0.504  11.003  21.243  0.00  0.00    +0.000 NA
ATOM     23  H   UNL     1      -1.125  10.217  21.445  0.00  0.00    +0.000 HD
ATOM     24  H   UNL     1      -0.847  11.897  21.591  0.00  0.00    +0.000 HD
ENDBRANCH  19  22
ENDBRANCH   1  19
TORSDOF 5
ENDMDL
MODEL 3
REMARK VINA RESULT:      -6.8      0.685      1.248
REMARK  Name = 
REMARK  5 active torsions:
REMARK  status: ('A' for Active; 'I' for Inactive)
REMARK    1  A    between atoms: N_1  and  S_2
REMARK    2  A    between atoms: S_2  and  C_5
REMARK    3  A    between atoms: C_8  and  N_9
REMARK    4  A    between atoms: C_10  and  C_12
REMARK    5  A    between atoms: C_12  and  C_13
REMARK                            x       y       z     vdW  Elec       q    Type
REMARK                         _______ _______ _______ _____ _____    ______ ____
ROOT
ATOM      1  C   UNL     1       1.007   9.439  19.408  0.00  0.00    +0.000 A 
ATOM      2  C   UNL     1       1.583   9.355  18.142  0.00  0.00    +0.000 A 
ATOM      3  C   UNL     1       2.409   8.271  17.832  0.00  0.00    +0.000 A 
ATOM      4  C   UNL     1       2.681   7.282  18.781  0.00  0.00    +0.000 A 
ATOM      5  C   UNL     1       2.065   7.358  20.037  0.00  0.00    +0.000 A 
ATOM      6  C   UNL     1       1.243   8.443  20.360  0.00  0.00    +0.000 A 
ENDROOT
BRANCH   4   7
ATOM      7  N   UNL     1       3.561   6.203  18.536  0.00  0.00    +0.000 N 
ATOM      8  C   UNL     1       3.202   4.948  18.074  0.00  0.00    +0.000 C 
ATOM      9  O   UNL     1       2.067   4.591  17.764  0.00  0.00    +0.000 OA
ATOM     10  H   UNL     1       4.551   6.400  18.627  0.00  0.00    +0.000 HD
BRANCH   8  11
ATOM     11  C   UNL     1       4.366   3.975  17.952  0.00  0.00    +0.000 C 
BRANCH  11  12
ATOM     12  C   UNL     1       5.277   4.354  16.809  0.00  0.00    +0.000 A 
ATOM     13  C   UNL     1       4.856   4.060  15.498  0.00  0.00    +0.000 A 
ATOM     14  C   UNL     1       5.695   4.283  14.405  0.00  0.00    +0.000 A 
ATOM     15  C   UNL     1       6.972   4.797  14.605  0.00  0.00    +0.000 A 
ATOM     16  C   UNL     1       7.400   5.111  15.894  0.00  0.00    +0.000 A 
ATOM     17  C   UNL     1       6.557   4.899  16.990  0.00  0.00    +0.000 A 
ATOM     18 BR   UNL     1       7.225   5.382  18.702  0.00  0.00    +0.000 Br
ENDBRANCH  11  12
ENDBRANCH   8  11
ENDBRANCH   4   7
BRANCH   1  19
ATOM     19  S   UNL     1       0.037  10.851  19.846  0.00  0.00    +0.000 S 
ATOM     20  O   UNL     1       0.235  11.156  21.246  0.00  0.00    +0.000 OA
ATOM     21  O   UNL     1      -1.276  10.727  19.259  0.00  0.00    +0.000 OA
BRANCH  19  22
ATOM     22  N   UNL     1       0.801  12.079  18.993  0.00  0.00    +0.000 NA
ATOM     23  H   UNL     1       1.163  11.707  18.114  0.00  0.00    +0.000 HD
ATOM     24  H   UNL     1       1.510  12.521  19.577  0.00  0.00    +0.000 HD
ENDBRANCH  19  22
ENDBRANCH   1  19
TORSDOF 5
ENDMDL
MODEL 4
REMARK VINA RESULT:      -6.8      1.459      2.258
REMARK  Name = 
REMARK  5 active torsions:
REMARK  status: ('A' for Active; 'I' for Inactive)
REMARK    1  A    between atoms: N_1  and  S_2
REMARK    2  A    between atoms: S_2  and  C_5
REMARK    3  A    between atoms: C_8  and  N_9
REMARK    4  A    between atoms: C_10  and  C_12
REMARK    5  A    between atoms: C_12  and  C_13
REMARK                            x       y       z     vdW  Elec       q    Type
REMARK                         _______ _______ _______ _____ _____    ______ ____
ROOT
ATOM      1  C   UNL     1       1.043   9.729  19.251  0.00  0.00    +0.000 A 
ATOM      2  C   UNL     1       1.545   9.562  17.961  0.00  0.00    +0.000 A 
ATOM      3  C   UNL     1       2.256   8.401  17.645  0.00  0.00    +0.000 A 
ATOM      4  C   UNL     1       2.488   7.417  18.609  0.00  0.00    +0.000 A 
ATOM      5  C   UNL     1       1.946   7.579  19.890  0.00  0.00    +0.000 A 
ATOM      6  C   UNL     1       1.239   8.741  20.219  0.00  0.00    +0.000 A 
ENDROOT
BRANCH   4   7
ATOM      7  N   UNL     1       3.257   6.258  18.355  0.00  0.00    +0.000 N 
ATOM      8  C   UNL     1       2.769   5.033  17.932  0.00  0.00    +0.000 C 
ATOM      9  O   UNL     1       1.595   4.775  17.670  0.00  0.00    +0.000 OA
ATOM     10  H   UNL     1       4.264   6.365  18.405  0.00  0.00    +0.000 HD
BRANCH   8  11
ATOM     11  C   UNL     1       3.834   3.955  17.787  0.00  0.00    +0.000 C 
BRANCH  11  12
ATOM     12  C   UNL     1       5.222   4.540  17.903  0.00  0.00    +0.000 A 
ATOM     13  C   UNL     1       5.701   4.865  19.187  0.00  0.00    +0.000 A 
ATOM     14  C   UNL     1       6.928   5.509  19.356  0.00  0.00    +0.000 A 
ATOM     15  C   UNL     1       7.693   5.844  18.244  0.00  0.00    +0.000 A 
ATOM     16  C   UNL     1       7.245   5.512  16.966  0.00  0.00    +0.000 A 
ATOM     17  C   UNL     1       6.021   4.858  16.794  0.00  0.00    +0.000 A 
ATOM     18 BR   UNL     1       5.510   4.429  15.015  0.00  0.00    +0.000 Br
ENDBRANCH  11  12
ENDBRANCH   8  11
ENDBRANCH   4   7
BRANCH   1  19
ATOM     19  S   UNL     1       0.224  11.232  19.692  0.00  0.00    +0.000 S 
ATOM     20  O   UNL     1       1.209  12.237  20.024  0.00  0.00    +0.000 OA
ATOM     21  O   UNL     1      -0.895  10.929  20.554  0.00  0.00    +0.000 OA
BRANCH  19  22
ATOM     22  N   UNL     1      -0.447  11.709  18.229  0.00  0.00    +0.000 NA
ATOM     23  H   UNL     1      -0.891  12.622  18.340  0.00  0.00    +0.000 HD
ATOM     24  H   UNL     1      -1.075  10.986  17.880  0.00  0.00    +0.000 HD
ENDBRANCH  19  22
ENDBRANCH   1  19
TORSDOF 5
ENDMDL
MODEL 5
REMARK VINA RESULT:      -6.7      1.722      2.459
REMARK  Name = 
REMARK  5 active torsions:
REMARK  status: ('A' for Active; 'I' for Inactive)
REMARK    1  A    between atoms: N_1  and  S_2
REMARK    2  A    between atoms: S_2  and  C_5
REMARK    3  A    between atoms: C_8  and  N_9
REMARK    4  A    between atoms: C_10  and  C_12
REMARK    5  A    between atoms: C_12  and  C_13
REMARK                            x       y       z     vdW  Elec       q    Type
REMARK                         _______ _______ _______ _____ _____    ______ ____
ROOT
ATOM      1  C   UNL     1       0.894   9.706  20.379  0.00  0.00    +0.000 A 
ATOM      2  C   UNL     1       1.056   9.921  19.011  0.00  0.00    +0.000 A 
ATOM      3  C   UNL     1       1.674   8.942  18.229  0.00  0.00    +0.000 A 
ATOM      4  C   UNL     1       2.152   7.761  18.804  0.00  0.00    +0.000 A 
ATOM      5  C   UNL     1       1.950   7.541  20.172  0.00  0.00    +0.000 A 
ATOM      6  C   UNL     1       1.338   8.518  20.965  0.00  0.00    +0.000 A 
ENDROOT
BRANCH   4   7
ATOM      7  N   UNL     1       2.843   6.772  18.067  0.00  0.00    +0.000 N 
ATOM      8  C   UNL     1       2.687   5.402  18.196  0.00  0.00    +0.000 C 
ATOM      9  O   UNL     1       1.891   4.834  18.943  0.00  0.00    +0.000 OA
ATOM     10  H   UNL     1       3.440   7.103  17.318  0.00  0.00    +0.000 HD
BRANCH   8  11
ATOM     11  C   UNL     1       3.603   4.584  17.298  0.00  0.00    +0.000 C 
BRANCH  11  12
ATOM     12  C   UNL     1       5.052   4.773  17.678  0.00  0.00    +0.000 A 
ATOM     13  C   UNL     1       5.351   5.105  19.013  0.00  0.00    +0.000 A 
ATOM     14  C   UNL     1       6.657   5.402  19.407  0.00  0.00    +0.000 A 
ATOM     15  C   UNL     1       7.685   5.377  18.471  0.00  0.00    +0.000 A 
ATOM     16  C   UNL     1       7.412   5.032  17.148  0.00  0.00    +0.000 A 
ATOM     17  C   UNL     1       6.106   4.724  16.753  0.00  0.00    +0.000 A 
ATOM     18 BR   UNL     1       5.842   4.243  14.933  0.00  0.00    +0.000 Br
ENDBRANCH  11  12
ENDBRANCH   8  11
ENDBRANCH   4   7
BRANCH   1  19
ATOM     19  S   UNL     1       0.199  10.974  21.396  0.00  0.00    +0.000 S 
ATOM     20  O   UNL     1       0.313  10.592  22.786  0.00  0.00    +0.000 OA
ATOM     21  O   UNL     1      -1.045  11.422  20.815  0.00  0.00    +0.000 OA
BRANCH  19  22
ATOM     22  N   UNL     1       1.284  12.236  21.174  0.00  0.00    +0.000 NA
ATOM     23  H   UNL     1       2.091  12.102  21.785  0.00  0.00    +0.000 HD
ATOM     24  H   UNL     1       0.812  13.130  21.306  0.00  0.00    +0.000 HD
ENDBRANCH  19  22
ENDBRANCH   1  19
TORSDOF 5
ENDMDL
MODEL 6
REMARK VINA RESULT:      -6.7      1.787      2.311
REMARK  Name = 
REMARK  5 active torsions:
REMARK  status: ('A' for Active; 'I' for Inactive)
REMARK    1  A    between atoms: N_1  and  S_2
REMARK    2  A    between atoms: S_2  and  C_5
REMARK    3  A    between atoms: C_8  and  N_9
REMARK    4  A    between atoms: C_10  and  C_12
REMARK    5  A    between atoms: C_12  and  C_13
REMARK                            x       y       z     vdW  Elec       q    Type
REMARK                         _______ _______ _______ _____ _____    ______ ____
ROOT
ATOM      1  C   UNL     1       1.076   9.283  19.975  0.00  0.00    +0.000 A 
ATOM      2  C   UNL     1       1.484   8.175  20.716  0.00  0.00    +0.000 A 
ATOM      3  C   UNL     1       2.204   7.155  20.089  0.00  0.00    +0.000 A 
ATOM      4  C   UNL     1       2.501   7.221  18.725  0.00  0.00    +0.000 A 
ATOM      5  C   UNL     1       2.118   8.358  18.000  0.00  0.00    +0.000 A 
ATOM      6  C   UNL     1       1.391   9.381  18.618  0.00  0.00    +0.000 A 
ENDROOT
BRANCH   4   7
ATOM      7  N   UNL     1       3.168   6.185  18.032  0.00  0.00    +0.000 N 
ATOM      8  C   UNL     1       2.676   4.911  17.800  0.00  0.00    +0.000 C 
ATOM      9  O   UNL     1       1.564   4.498  18.124  0.00  0.00    +0.000 OA
ATOM     10  H   UNL     1       4.049   6.430  17.595  0.00  0.00    +0.000 HD
BRANCH   8  11
ATOM     11  C   UNL     1       3.644   3.995  17.065  0.00  0.00    +0.000 C 
BRANCH  11  12
ATOM     12  C   UNL     1       5.076   4.309  17.428  0.00  0.00    +0.000 A 
ATOM     13  C   UNL     1       5.379   4.559  18.780  0.00  0.00    +0.000 A 
ATOM     14  C   UNL     1       6.658   4.962  19.169  0.00  0.00    +0.000 A 
ATOM     15  C   UNL     1       7.653   5.129  18.211  0.00  0.00    +0.000 A 
ATOM     16  C   UNL     1       7.376   4.868  16.870  0.00  0.00    +0.000 A 
ATOM     17  C   UNL     1       6.099   4.453  16.479  0.00  0.00    +0.000 A 
ATOM     18 BR   UNL     1       5.830   4.100  14.631  0.00  0.00    +0.000 Br
ENDBRANCH  11  12
ENDBRANCH   8  11
ENDBRANCH   4   7
BRANCH   1  19
ATOM     19  S   UNL     1       0.084  10.537  20.732  0.00  0.00    +0.000 S 
ATOM     20  O   UNL     1      -1.067  10.808  19.900  0.00  0.00    +0.000 OA
ATOM     21  O   UNL     1       0.942  11.584  21.233  0.00  0.00    +0.000 OA
BRANCH  19  22
ATOM     22  N   UNL     1      -0.505   9.745  22.091  0.00  0.00    +0.000 NA
ATOM     23  H   UNL     1      -1.177  10.346  22.570  0.00  0.00    +0.000 HD
ATOM     24  H   UNL     1       0.269   9.441  22.682  0.00  0.00    +0.000 HD
ENDBRANCH  19  22
ENDBRANCH   1  19
TORSDOF 5
ENDMDL
MODEL 7
REMARK VINA RESULT:      -6.7      1.452      1.996
REMARK  Name = 
REMARK  5 active torsions:
REMARK  status: ('A' for Active; 'I' for Inactive)
REMARK    1  A    between atoms: N_1  and  S_2
REMARK    2  A    between atoms: S_2  and  C_5
REMARK    3  A    between atoms: C_8  and  N_9
REMARK    4  A    between atoms: C_10  and  C_12
REMARK    5  A    between atoms: C_12  and  C_13
REMARK                            x       y       z     vdW  Elec       q    Type
REMARK                         _______ _______ _______ _____ _____    ______ ____
ROOT
ATOM      1  C   UNL     1       0.949   9.796  19.114  0.00  0.00    +0.000 A 
ATOM      2  C   UNL     1       1.145   8.914  20.176  0.00  0.00    +0.000 A 
ATOM      3  C   UNL     1       1.924   7.770  19.985  0.00  0.00    +0.000 A 
ATOM      4  C   UNL     1       2.489   7.487  18.739  0.00  0.00    +0.000 A 
ATOM      5  C   UNL     1       2.316   8.400  17.691  0.00  0.00    +0.000 A 
ATOM      6  C   UNL     1       1.532   9.545  17.870  0.00  0.00    +0.000 A 
ENDROOT
BRANCH   4   7
ATOM      7  N   UNL     1       3.228   6.309  18.479  0.00  0.00    +0.000 N 
ATOM      8  C   UNL     1       2.723   5.126  17.968  0.00  0.00    +0.000 C 
ATOM      9  O   UNL     1       1.559   4.929  17.619  0.00  0.00    +0.000 OA
ATOM     10  H   UNL     1       4.232   6.373  18.600  0.00  0.00    +0.000 HD
BRANCH   8  11
ATOM     11  C   UNL     1       3.753   4.013  17.840  0.00  0.00    +0.000 C 
BRANCH  11  12
ATOM     12  C   UNL     1       5.158   4.553  17.966  0.00  0.00    +0.000 A 
ATOM     13  C   UNL     1       5.625   4.898  19.249  0.00  0.00    +0.000 A 
ATOM     14  C   UNL     1       6.871   5.504  19.423  0.00  0.00    +0.000 A 
ATOM     15  C   UNL     1       7.667   5.780  18.317  0.00  0.00    +0.000 A 
ATOM     16  C   UNL     1       7.230   5.428  17.041  0.00  0.00    +0.000 A 
ATOM     17  C   UNL     1       5.987   4.812  16.864  0.00  0.00    +0.000 A 
ATOM     18 BR   UNL     1       5.494   4.350  15.088  0.00  0.00    +0.000 Br
ENDBRANCH  11  12
ENDBRANCH   8  11
ENDBRANCH   4   7
BRANCH   1  19
ATOM     19  S   UNL     1      -0.110  11.198  19.314  0.00  0.00    +0.000 S 
ATOM     20  O   UNL     1       0.690  12.402  19.358  0.00  0.00    +0.000 OA
ATOM     21  O   UNL     1      -1.114  10.899  20.307  0.00  0.00    +0.000 OA
BRANCH  19  22
ATOM     22  N   UNL     1      -0.922  11.237  17.845  0.00  0.00    +0.000 NA
ATOM     23  H   UNL     1      -0.856  12.174  17.445  0.00  0.00    +0.000 HD
ATOM     24  H   UNL     1      -1.878  10.908  17.965  0.00  0.00    +0.000 HD
ENDBRANCH  19  22
ENDBRANCH   1  19
TORSDOF 5
ENDMDL
MODEL 8
REMARK VINA RESULT:      -6.6      0.866      1.015
REMARK  Name = 
REMARK  5 active torsions:
REMARK  status: ('A' for Active; 'I' for Inactive)
REMARK    1  A    between atoms: N_1  and  S_2
REMARK    2  A    between atoms: S_2  and  C_5
REMARK    3  A    between atoms: C_8  and  N_9
REMARK    4  A    between atoms: C_10  and  C_12
REMARK    5  A    between atoms: C_12  and  C_13
REMARK                            x       y       z     vdW  Elec       q    Type
REMARK                         _______ _______ _______ _____ _____    ______ ____
ROOT
ATOM      1  C   UNL     1       0.864   9.504  19.167  0.00  0.00    +0.000 A 
ATOM      2  C   UNL     1       1.121   8.709  20.283  0.00  0.00    +0.000 A 
ATOM      3  C   UNL     1       2.036   7.657  20.182  0.00  0.00    +0.000 A 
ATOM      4  C   UNL     1       2.679   7.380  18.973  0.00  0.00    +0.000 A 
ATOM      5  C   UNL     1       2.440   8.209  17.870  0.00  0.00    +0.000 A 
ATOM      6  C   UNL     1       1.521   9.260  17.958  0.00  0.00    +0.000 A 
ENDROOT
BRANCH   4   7
ATOM      7  N   UNL     1       3.561   6.288  18.804  0.00  0.00    +0.000 N 
ATOM      8  C   UNL     1       3.271   4.958  19.059  0.00  0.00    +0.000 C 
ATOM      9  O   UNL     1       2.185   4.515  19.431  0.00  0.00    +0.000 OA
ATOM     10  H   UNL     1       4.457   6.494  18.376  0.00  0.00    +0.000 HD
BRANCH   8  11
ATOM     11  C   UNL     1       4.439   4.010  18.828  0.00  0.00    +0.000 C 
BRANCH  11  12
ATOM     12  C   UNL     1       5.213   4.390  17.588  0.00  0.00    +0.000 A 
ATOM     13  C   UNL     1       4.671   4.045  16.335  0.00  0.00    +0.000 A 
ATOM     14  C   UNL     1       5.385   4.267  15.156  0.00  0.00    +0.000 A 
ATOM     15  C   UNL     1       6.654   4.832  15.210  0.00  0.00    +0.000 A 
ATOM     16  C   UNL     1       7.199   5.198  16.441  0.00  0.00    +0.000 A 
ATOM     17  C   UNL     1       6.483   4.987  17.622  0.00  0.00    +0.000 A 
ATOM     18 BR   UNL     1       7.302   5.542  19.245  0.00  0.00    +0.000 Br
ENDBRANCH  11  12
ENDBRANCH   8  11
ENDBRANCH   4   7
BRANCH   1  19
ATOM     19  S   UNL     1      -0.360  10.778  19.253  0.00  0.00    +0.000 S 
ATOM     20  O   UNL     1      -1.599  10.293  18.687  0.00  0.00    +0.000 OA
ATOM     21  O   UNL     1       0.233  12.034  18.860  0.00  0.00    +0.000 OA
BRANCH  19  22
ATOM     22  N   UNL     1      -0.625  10.899  20.907  0.00  0.00    +0.000 NA
ATOM     23  H   UNL     1      -1.401  10.291  21.172  0.00  0.00    +0.000 HD
ATOM     24  H   UNL     1      -0.759  11.875  21.169  0.00  0.00    +0.000 HD
ENDBRANCH  19  22
ENDBRANCH   1  19
TORSDOF 5
ENDMDL
MODEL 9
REMARK VINA RESULT:      -6.6      1.605      2.097
REMARK  Name = 
REMARK  5 active torsions:
REMARK  status: ('A' for Active; 'I' for Inactive)
REMARK    1  A    between atoms: N_1  and  S_2
REMARK    2  A    between atoms: S_2  and  C_5
REMARK    3  A    between atoms: C_8  and  N_9
REMARK    4  A    between atoms: C_10  and  C_12
REMARK    5  A    between atoms: C_12  and  C_13
REMARK                            x       y       z     vdW  Elec       q    Type
REMARK                         _______ _______ _______ _____ _____    ______ ____
ROOT
ATOM      1  C   UNL     1       0.856   9.364  20.138  0.00  0.00    +0.000 A 
ATOM      2  C   UNL     1       1.260   8.282  20.919  0.00  0.00    +0.000 A 
ATOM      3  C   UNL     1       2.055   7.283  20.351  0.00  0.00    +0.000 A 
ATOM      4  C   UNL     1       2.432   7.344  19.007  0.00  0.00    +0.000 A 
ATOM      5  C   UNL     1       2.052   8.455  18.244  0.00  0.00    +0.000 A 
ATOM      6  C   UNL     1       1.250   9.457  18.801  0.00  0.00    +0.000 A 
ENDROOT
BRANCH   4   7
ATOM      7  N   UNL     1       3.179   6.325  18.371  0.00  0.00    +0.000 N 
ATOM      8  C   UNL     1       2.689   5.105  17.936  0.00  0.00    +0.000 C 
ATOM      9  O   UNL     1       1.517   4.735  17.997  0.00  0.00    +0.000 OA
ATOM     10  H   UNL     1       4.140   6.551  18.138  0.00  0.00    +0.000 HD
BRANCH   8  11
ATOM     11  C   UNL     1       3.744   4.192  17.329  0.00  0.00    +0.000 C 
BRANCH  11  12
ATOM     12  C   UNL     1       5.137   4.681  17.645  0.00  0.00    +0.000 A 
ATOM     13  C   UNL     1       5.497   4.835  18.997  0.00  0.00    +0.000 A 
ATOM     14  C   UNL     1       6.728   5.386  19.357  0.00  0.00    +0.000 A 
ATOM     15  C   UNL     1       7.618   5.798  18.371  0.00  0.00    +0.000 A 
ATOM     16  C   UNL     1       7.287   5.636  17.026  0.00  0.00    +0.000 A 
ATOM     17  C   UNL     1       6.059   5.075  16.663  0.00  0.00    +0.000 A 
ATOM     18 BR   UNL     1       5.714   4.875  14.804  0.00  0.00    +0.000 Br
ENDBRANCH  11  12
ENDBRANCH   8  11
ENDBRANCH   4   7
BRANCH   1  19
ATOM     19  S   UNL     1      -0.227  10.587  20.816  0.00  0.00    +0.000 S 
ATOM     20  O   UNL     1      -0.731  10.130  22.091  0.00  0.00    +0.000 OA
ATOM     21  O   UNL     1      -1.093  11.085  19.774  0.00  0.00    +0.000 OA
BRANCH  19  22
ATOM     22  N   UNL     1       0.834  11.842  21.162  0.00  0.00    +0.000 NA
ATOM     23  H   UNL     1       0.606  12.237  22.075  0.00  0.00    +0.000 HD
ATOM     24  H   UNL     1       0.827  12.525  20.405  0.00  0.00    +0.000 HD
ENDBRANCH  19  22
ENDBRANCH   1  19
TORSDOF 5
ENDMDL
