MODEL 1
REMARK VINA RESULT:      -8.4      0.000      0.000
REMARK  Name = 
REMARK  11 active torsions:
REMARK  status: ('A' for Active; 'I' for Inactive)
REMARK    1  A    between atoms: C_1  and  C_2
REMARK    2  A    between atoms: C_2  and  C_3
REMARK    3  A    between atoms: C_2  and  C_4
REMARK    4  A    between atoms: C_4  and  N_5
REMARK    5  A    between atoms: C_6  and  C_8
REMARK    6  A    between atoms: C_11  and  N_12
REMARK    7  A    between atoms: C_17  and  C_18
REMARK    8  A    between atoms: N_20  and  C_21
REMARK    9  A    between atoms: C_21  and  C_22
REMARK   10  A    between atoms: C_22  and  C_23
REMARK   11  A    between atoms: C_22  and  C_24
REMARK                            x       y       z     vdW  Elec       q    Type
REMARK                         _______ _______ _______ _____ _____    ______ ____
ROOT
ATOM      1  N   UNL     1       8.033   8.634  17.498  0.00  0.00    +0.000 N 
ATOM      2  C   UNL     1       8.555   9.647  18.208  0.00  0.00    +0.000 A 
ATOM      3  N   UNL     1       8.775  10.822  17.670  0.00  0.00    +0.000 NA
ATOM      4  C   UNL     1       9.303  11.597  18.656  0.00  0.00    +0.000 A 
ATOM      5  C   UNL     1       9.653  12.948  18.601  0.00  0.00    +0.000 A 
ATOM      6  C   UNL     1      10.165  13.579  19.742  0.00  0.00    +0.000 A 
ATOM      7  C   UNL     1      10.372  12.814  20.906  0.00  0.00    +0.000 A 
ATOM      8  C   UNL     1      10.030  11.443  20.976  0.00  0.00    +0.000 A 
ATOM      9  C   UNL     1       9.468  10.876  19.826  0.00  0.00    +0.000 A 
ATOM     10  N   UNL     1       8.960   9.631  19.522  0.00  0.00    +0.000 N 
ATOM     11  H   UNL     1       7.873   8.931  16.536  0.00  0.00    +0.000 HD
ATOM     12  H   UNL     1       8.916   8.848  20.148  0.00  0.00    +0.000 HD
ENDROOT
BRANCH   1  16
ATOM     13  C   UNL     1       5.705   5.183  18.233  0.00  0.00    +0.000 A 
ATOM     14  C   UNL     1       5.231   6.228  17.448  0.00  0.00    +0.000 A 
ATOM     15  C   UNL     1       6.036   7.344  17.236  0.00  0.00    +0.000 A 
ATOM     16  C   UNL     1       7.325   7.461  17.800  0.00  0.00    +0.000 A 
ATOM     17  C   UNL     1       7.778   6.408  18.590  0.00  0.00    +0.000 A 
ATOM     18  C   UNL     1       6.973   5.277  18.812  0.00  0.00    +0.000 A 
BRANCH  13  20
ATOM     19  N   UNL     1       3.542   4.021  18.024  0.00  0.00    +0.000 N 
ATOM     20  C   UNL     1       4.832   4.003  18.488  0.00  0.00    +0.000 C 
ATOM     21  N   UNL     1       5.330   3.015  19.150  0.00  0.00    +0.000 NA
ATOM     22  H   UNL     1       3.353   4.573  17.194  0.00  0.00    +0.000 HD
ATOM     23  H   UNL     1       4.634   2.275  19.229  0.00  0.00    +0.000 HD
BRANCH  19  24
ATOM     24  C   UNL     1       2.429   3.280  18.579  0.00  0.00    +0.000 C 
BRANCH  24  26
ATOM     25  C   UNL     1       1.726   3.480  20.981  0.00  0.00    +0.000 C 
ATOM     26  C   UNL     1       1.649   4.129  19.599  0.00  0.00    +0.000 C 
ATOM     27  C   UNL     1       2.168   5.568  19.683  0.00  0.00    +0.000 C 
ENDBRANCH  24  26
ENDBRANCH  19  24
ENDBRANCH  13  20
ENDBRANCH   1  16
BRANCH   6  28
ATOM     28  C   UNL     1      10.382  15.074  19.729  0.00  0.00    +0.000 C 
ATOM     29  N   UNL     1      11.339  15.642  20.400  0.00  0.00    +0.000 NA
ATOM     30  N   UNL     1       9.585  15.887  18.951  0.00  0.00    +0.000 N 
ATOM     31  H   UNL     1      11.904  14.996  20.944  0.00  0.00    +0.000 HD
ATOM     32  H   UNL     1       8.589  15.770  19.089  0.00  0.00    +0.000 HD
BRANCH  30  33
ATOM     33  C   UNL     1      10.019  17.257  18.672  0.00  0.00    +0.000 C 
BRANCH  33  34
ATOM     34  C   UNL     1      10.686  17.429  17.302  0.00  0.00    +0.000 C 
ATOM     35  C   UNL     1      11.844  18.423  17.330  0.00  0.00    +0.000 C 
ATOM     36  C   UNL     1      11.116  16.088  16.710  0.00  0.00    +0.000 C 
ENDBRANCH  33  34
ENDBRANCH  30  33
ENDBRANCH   6  28
TORSDOF 7
ENDMDL
MODEL 2
REMARK VINA RESULT:      -8.4      1.412      1.860
REMARK  Name = 
REMARK  11 active torsions:
REMARK  status: ('A' for Active; 'I' for Inactive)
REMARK    1  A    between atoms: C_1  and  C_2
REMARK    2  A    between atoms: C_2  and  C_3
REMARK    3  A    between atoms: C_2  and  C_4
REMARK    4  A    between atoms: C_4  and  N_5
REMARK    5  A    between atoms: C_6  and  C_8
REMARK    6  A    between atoms: C_11  and  N_12
REMARK    7  A    between atoms: C_17  and  C_18
REMARK    8  A    between atoms: N_20  and  C_21
REMARK    9  A    between atoms: C_21  and  C_22
REMARK   10  A    between atoms: C_22  and  C_23
REMARK   11  A    between atoms: C_22  and  C_24
REMARK                            x       y       z     vdW  Elec       q    Type
REMARK                         _______ _______ _______ _____ _____    ______ ____
ROOT
ATOM      1  N   UNL     1       7.620   8.187  17.260  0.00  0.00    +0.000 N 
ATOM      2  C   UNL     1       8.222   9.192  17.916  0.00  0.00    +0.000 A 
ATOM      3  N   UNL     1       8.313  10.393  17.399  0.00  0.00    +0.000 NA
ATOM      4  C   UNL     1       8.974  11.151  18.316  0.00  0.00    +0.000 A 
ATOM      5  C   UNL     1       9.268  12.515  18.260  0.00  0.00    +0.000 A 
ATOM      6  C   UNL     1       9.944  13.123  19.326  0.00  0.00    +0.000 A 
ATOM      7  C   UNL     1      10.366  12.325  20.406  0.00  0.00    +0.000 A 
ATOM      8  C   UNL     1      10.084  10.940  20.474  0.00  0.00    +0.000 A 
ATOM      9  C   UNL     1       9.355  10.395  19.411  0.00  0.00    +0.000 A 
ATOM     10  N   UNL     1       8.842   9.143  19.143  0.00  0.00    +0.000 N 
ATOM     11  H   UNL     1       7.292   8.512  16.352  0.00  0.00    +0.000 HD
ATOM     12  H   UNL     1       8.927   8.337  19.734  0.00  0.00    +0.000 HD
ENDROOT
BRANCH   1  16
ATOM     13  C   UNL     1       5.542   4.646  18.268  0.00  0.00    +0.000 A 
ATOM     14  C   UNL     1       4.876   5.773  17.798  0.00  0.00    +0.000 A 
ATOM     15  C   UNL     1       5.606   6.916  17.480  0.00  0.00    +0.000 A 
ATOM     16  C   UNL     1       7.009   6.978  17.627  0.00  0.00    +0.000 A 
ATOM     17  C   UNL     1       7.656   5.843  18.107  0.00  0.00    +0.000 A 
ATOM     18  C   UNL     1       6.929   4.684  18.433  0.00  0.00    +0.000 A 
BRANCH  13  20
ATOM     19  N   UNL     1       3.765   3.003  17.799  0.00  0.00    +0.000 N 
ATOM     20  C   UNL     1       4.759   3.434  18.639  0.00  0.00    +0.000 C 
ATOM     21  N   UNL     1       5.045   2.848  19.751  0.00  0.00    +0.000 NA
ATOM     22  H   UNL     1       3.870   3.209  16.810  0.00  0.00    +0.000 HD
ATOM     23  H   UNL     1       4.451   2.028  19.864  0.00  0.00    +0.000 HD
BRANCH  19  24
ATOM     24  C   UNL     1       2.601   2.233  18.182  0.00  0.00    +0.000 C 
BRANCH  24  26
ATOM     25  C   UNL     1       1.171   3.424  19.867  0.00  0.00    +0.000 C 
ATOM     26  C   UNL     1       1.374   3.141  18.378  0.00  0.00    +0.000 C 
ATOM     27  C   UNL     1       1.498   4.466  17.620  0.00  0.00    +0.000 C 
ENDBRANCH  24  26
ENDBRANCH  19  24
ENDBRANCH  13  20
ENDBRANCH   1  16
BRANCH   6  28
ATOM     28  C   UNL     1      10.110  14.625  19.339  0.00  0.00    +0.000 C 
ATOM     29  N   UNL     1      11.038  15.227  18.657  0.00  0.00    +0.000 NA
ATOM     30  N   UNL     1       9.234  15.416  20.053  0.00  0.00    +0.000 N 
ATOM     31  H   UNL     1      11.645  14.599  18.139  0.00  0.00    +0.000 HD
ATOM     32  H   UNL     1       9.117  15.158  21.024  0.00  0.00    +0.000 HD
BRANCH  30  33
ATOM     33  C   UNL     1       9.184  16.853  19.778  0.00  0.00    +0.000 C 
BRANCH  33  34
ATOM     34  C   UNL     1       7.818  17.343  19.281  0.00  0.00    +0.000 C 
ATOM     35  C   UNL     1       7.004  16.239  18.612  0.00  0.00    +0.000 C 
ATOM     36  C   UNL     1       7.024  18.026  20.393  0.00  0.00    +0.000 C 
ENDBRANCH  33  34
ENDBRANCH  30  33
ENDBRANCH   6  28
TORSDOF 7
ENDMDL
MODEL 3
REMARK VINA RESULT:      -8.3      7.311      9.586
REMARK  Name = 
REMARK  11 active torsions:
REMARK  status: ('A' for Active; 'I' for Inactive)
REMARK    1  A    between atoms: C_1  and  C_2
REMARK    2  A    between atoms: C_2  and  C_3
REMARK    3  A    between atoms: C_2  and  C_4
REMARK    4  A    between atoms: C_4  and  N_5
REMARK    5  A    between atoms: C_6  and  C_8
REMARK    6  A    between atoms: C_11  and  N_12
REMARK    7  A    between atoms: C_17  and  C_18
REMARK    8  A    between atoms: N_20  and  C_21
REMARK    9  A    between atoms: C_21  and  C_22
REMARK   10  A    between atoms: C_22  and  C_23
REMARK   11  A    between atoms: C_22  and  C_24
REMARK                            x       y       z     vdW  Elec       q    Type
REMARK                         _______ _______ _______ _____ _____    ______ ____
ROOT
ATOM      1  N   UNL     1       2.813   6.380  18.893  0.00  0.00    +0.000 N 
ATOM      2  C   UNL     1       2.133   7.514  19.122  0.00  0.00    +0.000 A 
ATOM      3  N   UNL     1       1.741   7.849  20.327  0.00  0.00    +0.000 NA
ATOM      4  C   UNL     1       1.088   9.036  20.197  0.00  0.00    +0.000 A 
ATOM      5  C   UNL     1       0.535   9.834  21.201  0.00  0.00    +0.000 A 
ATOM      6  C   UNL     1      -0.083  11.044  20.863  0.00  0.00    +0.000 A 
ATOM      7  C   UNL     1      -0.183  11.400  19.504  0.00  0.00    +0.000 A 
ATOM      8  C   UNL     1       0.364  10.599  18.475  0.00  0.00    +0.000 A 
ATOM      9  C   UNL     1       1.021   9.429  18.871  0.00  0.00    +0.000 A 
ATOM     10  N   UNL     1       1.719   8.446  18.200  0.00  0.00    +0.000 N 
ATOM     11  H   UNL     1       2.938   5.868  19.765  0.00  0.00    +0.000 HD
ATOM     12  H   UNL     1       1.875   8.413  17.209  0.00  0.00    +0.000 HD
ENDROOT
BRANCH   1  16
ATOM     13  C   UNL     1       5.503   5.268  15.827  0.00  0.00    +0.000 A 
ATOM     14  C   UNL     1       5.117   6.591  16.012  0.00  0.00    +0.000 A 
ATOM     15  C   UNL     1       4.227   6.906  17.036  0.00  0.00    +0.000 A 
ATOM     16  C   UNL     1       3.690   5.923  17.897  0.00  0.00    +0.000 A 
ATOM     17  C   UNL     1       4.083   4.604  17.689  0.00  0.00    +0.000 A 
ATOM     18  C   UNL     1       4.979   4.274  16.656  0.00  0.00    +0.000 A 
BRANCH  13  20
ATOM     19  N   UNL     1       5.930   4.272  13.613  0.00  0.00    +0.000 N 
ATOM     20  C   UNL     1       6.429   4.924  14.711  0.00  0.00    +0.000 C 
ATOM     21  N   UNL     1       7.670   5.248  14.835  0.00  0.00    +0.000 NA
ATOM     22  H   UNL     1       4.954   4.429  13.381  0.00  0.00    +0.000 HD
ATOM     23  H   UNL     1       8.177   4.974  13.994  0.00  0.00    +0.000 HD
BRANCH  19  24
ATOM     24  C   UNL     1       6.680   3.417  12.717  0.00  0.00    +0.000 C 
BRANCH  24  26
ATOM     25  C   UNL     1       5.914   1.417  11.409  0.00  0.00    +0.000 C 
ATOM     26  C   UNL     1       5.807   2.936  11.546  0.00  0.00    +0.000 C 
ATOM     27  C   UNL     1       4.336   3.330  11.710  0.00  0.00    +0.000 C 
ENDBRANCH  24  26
ENDBRANCH  19  24
ENDBRANCH  13  20
ENDBRANCH   1  16
BRANCH   6  28
ATOM     28  C   UNL     1      -0.527  11.983  21.961  0.00  0.00    +0.000 C 
ATOM     29  N   UNL     1       0.009  13.154  22.132  0.00  0.00    +0.000 NA
ATOM     30  N   UNL     1      -1.566  11.633  22.798  0.00  0.00    +0.000 N 
ATOM     31  H   UNL     1       0.759  13.366  21.480  0.00  0.00    +0.000 HD
ATOM     32  H   UNL     1      -1.470  10.733  23.249  0.00  0.00    +0.000 HD
BRANCH  30  33
ATOM     33  C   UNL     1      -2.211  12.670  23.607  0.00  0.00    +0.000 C 
BRANCH  33  34
ATOM     34  C   UNL     1      -3.742  12.661  23.519  0.00  0.00    +0.000 C 
ATOM     35  C   UNL     1      -4.410  12.527  24.884  0.00  0.00    +0.000 C 
ATOM     36  C   UNL     1      -4.271  13.874  22.755  0.00  0.00    +0.000 C 
ENDBRANCH  33  34
ENDBRANCH  30  33
ENDBRANCH   6  28
TORSDOF 7
ENDMDL
MODEL 4
REMARK VINA RESULT:      -8.3      1.494     11.507
REMARK  Name = 
REMARK  11 active torsions:
REMARK  status: ('A' for Active; 'I' for Inactive)
REMARK    1  A    between atoms: C_1  and  C_2
REMARK    2  A    between atoms: C_2  and  C_3
REMARK    3  A    between atoms: C_2  and  C_4
REMARK    4  A    between atoms: C_4  and  N_5
REMARK    5  A    between atoms: C_6  and  C_8
REMARK    6  A    between atoms: C_11  and  N_12
REMARK    7  A    between atoms: C_17  and  C_18
REMARK    8  A    between atoms: N_20  and  C_21
REMARK    9  A    between atoms: C_21  and  C_22
REMARK   10  A    between atoms: C_22  and  C_23
REMARK   11  A    between atoms: C_22  and  C_24
REMARK                            x       y       z     vdW  Elec       q    Type
REMARK                         _______ _______ _______ _____ _____    ______ ____
ROOT
ATOM      1  N   UNL     1       8.920   8.914  18.445  0.00  0.00    +0.000 N 
ATOM      2  C   UNL     1       7.950   8.024  18.184  0.00  0.00    +0.000 A 
ATOM      3  N   UNL     1       7.868   6.886  18.829  0.00  0.00    +0.000 NA
ATOM      4  C   UNL     1       6.786   6.238  18.319  0.00  0.00    +0.000 A 
ATOM      5  C   UNL     1       6.246   5.012  18.715  0.00  0.00    +0.000 A 
ATOM      6  C   UNL     1       5.103   4.519  18.074  0.00  0.00    +0.000 A 
ATOM      7  C   UNL     1       4.558   5.248  16.999  0.00  0.00    +0.000 A 
ATOM      8  C   UNL     1       5.099   6.486  16.580  0.00  0.00    +0.000 A 
ATOM      9  C   UNL     1       6.206   6.961  17.292  0.00  0.00    +0.000 A 
ATOM     10  N   UNL     1       6.957   8.117  17.237  0.00  0.00    +0.000 N 
ATOM     11  H   UNL     1       9.538   8.551  19.170  0.00  0.00    +0.000 HD
ATOM     12  H   UNL     1       6.811   8.879  16.601  0.00  0.00    +0.000 HD
ENDROOT
BRANCH   1  16
ATOM     13  C   UNL     1       9.648  13.061  18.057  0.00  0.00    +0.000 A 
ATOM     14  C   UNL     1      10.509  12.233  18.771  0.00  0.00    +0.000 A 
ATOM     15  C   UNL     1      10.224  10.874  18.871  0.00  0.00    +0.000 A 
ATOM     16  C   UNL     1       9.080  10.298  18.276  0.00  0.00    +0.000 A 
ATOM     17  C   UNL     1       8.227  11.144  17.573  0.00  0.00    +0.000 A 
ATOM     18  C   UNL     1       8.503  12.519  17.468  0.00  0.00    +0.000 A 
BRANCH  13  20
ATOM     19  N   UNL     1      11.057  15.011  18.592  0.00  0.00    +0.000 N 
ATOM     20  C   UNL     1       9.933  14.520  17.978  0.00  0.00    +0.000 C 
ATOM     21  N   UNL     1       9.095  15.265  17.341  0.00  0.00    +0.000 NA
ATOM     22  H   UNL     1      11.849  14.383  18.683  0.00  0.00    +0.000 HD
ATOM     23  H   UNL     1       9.426  16.229  17.349  0.00  0.00    +0.000 HD
BRANCH  19  24
ATOM     24  C   UNL     1      11.239  16.362  19.077  0.00  0.00    +0.000 C 
BRANCH  24  26
ATOM     25  C   UNL     1      10.907  15.641  21.459  0.00  0.00    +0.000 C 
ATOM     26  C   UNL     1      10.437  16.603  20.367  0.00  0.00    +0.000 C 
ATOM     27  C   UNL     1      10.557  18.044  20.873  0.00  0.00    +0.000 C 
ENDBRANCH  24  26
ENDBRANCH  19  24
ENDBRANCH  13  20
ENDBRANCH   1  16
BRANCH   6  28
ATOM     28  C   UNL     1       4.424   3.282  18.616  0.00  0.00    +0.000 C 
ATOM     29  N   UNL     1       5.033   2.443  19.399  0.00  0.00    +0.000 NA
ATOM     30  N   UNL     1       3.100   3.030  18.325  0.00  0.00    +0.000 N 
ATOM     31  H   UNL     1       6.001   2.683  19.592  0.00  0.00    +0.000 HD
ATOM     32  H   UNL     1       2.865   3.046  17.341  0.00  0.00    +0.000 HD
BRANCH  30  33
ATOM     33  C   UNL     1       2.367   2.046  19.125  0.00  0.00    +0.000 C 
BRANCH  33  34
ATOM     34  C   UNL     1       1.455   2.668  20.190  0.00  0.00    +0.000 C 
ATOM     35  C   UNL     1       2.053   2.599  21.592  0.00  0.00    +0.000 C 
ATOM     36  C   UNL     1       1.051   4.096  19.825  0.00  0.00    +0.000 C 
ENDBRANCH  33  34
ENDBRANCH  30  33
ENDBRANCH   6  28
TORSDOF 7
ENDMDL
MODEL 5
REMARK VINA RESULT:      -8.2      7.339      9.718
REMARK  Name = 
REMARK  11 active torsions:
REMARK  status: ('A' for Active; 'I' for Inactive)
REMARK    1  A    between atoms: C_1  and  C_2
REMARK    2  A    between atoms: C_2  and  C_3
REMARK    3  A    between atoms: C_2  and  C_4
REMARK    4  A    between atoms: C_4  and  N_5
REMARK    5  A    between atoms: C_6  and  C_8
REMARK    6  A    between atoms: C_11  and  N_12
REMARK    7  A    between atoms: C_17  and  C_18
REMARK    8  A    between atoms: N_20  and  C_21
REMARK    9  A    between atoms: C_21  and  C_22
REMARK   10  A    between atoms: C_22  and  C_23
REMARK   11  A    between atoms: C_22  and  C_24
REMARK                            x       y       z     vdW  Elec       q    Type
REMARK                         _______ _______ _______ _____ _____    ______ ____
ROOT
ATOM      1  N   UNL     1       2.676   6.545  19.915  0.00  0.00    +0.000 N 
ATOM      2  C   UNL     1       1.933   7.661  19.986  0.00  0.00    +0.000 A 
ATOM      3  N   UNL     1       1.289   7.990  21.079  0.00  0.00    +0.000 NA
ATOM      4  C   UNL     1       0.647   9.158  20.804  0.00  0.00    +0.000 A 
ATOM      5  C   UNL     1      -0.124   9.944  21.663  0.00  0.00    +0.000 A 
ATOM      6  C   UNL     1      -0.688  11.136  21.193  0.00  0.00    +0.000 A 
ATOM      7  C   UNL     1      -0.511  11.484  19.840  0.00  0.00    +0.000 A 
ATOM      8  C   UNL     1       0.261  10.695  18.955  0.00  0.00    +0.000 A 
ATOM      9  C   UNL     1       0.850   9.544  19.491  0.00  0.00    +0.000 A 
ATOM     10  N   UNL     1       1.698   8.579  18.989  0.00  0.00    +0.000 N 
ATOM     11  H   UNL     1       2.628   6.039  20.798  0.00  0.00    +0.000 HD
ATOM     12  H   UNL     1       2.059   8.547  18.054  0.00  0.00    +0.000 HD
ENDROOT
BRANCH   1  16
ATOM     13  C   UNL     1       5.843   5.412  17.354  0.00  0.00    +0.000 A 
ATOM     14  C   UNL     1       4.846   6.288  16.937  0.00  0.00    +0.000 A 
ATOM     15  C   UNL     1       3.824   6.630  17.818  0.00  0.00    +0.000 A 
ATOM     16  C   UNL     1       3.753   6.109  19.129  0.00  0.00    +0.000 A 
ATOM     17  C   UNL     1       4.755   5.227  19.524  0.00  0.00    +0.000 A 
ATOM     18  C   UNL     1       5.791   4.873  18.642  0.00  0.00    +0.000 A 
BRANCH  13  20
ATOM     19  N   UNL     1       6.866   5.484  15.113  0.00  0.00    +0.000 N 
ATOM     20  C   UNL     1       6.919   5.019  16.401  0.00  0.00    +0.000 C 
ATOM     21  N   UNL     1       7.852   4.242  16.832  0.00  0.00    +0.000 NA
ATOM     22  H   UNL     1       6.405   6.376  14.958  0.00  0.00    +0.000 HD
ATOM     23  H   UNL     1       8.526   4.076  16.086  0.00  0.00    +0.000 HD
BRANCH  19  24
ATOM     24  C   UNL     1       7.454   4.847  13.953  0.00  0.00    +0.000 C 
BRANCH  24  26
ATOM     25  C   UNL     1       5.063   4.132  13.674  0.00  0.00    +0.000 C 
ATOM     26  C   UNL     1       6.519   3.770  13.377  0.00  0.00    +0.000 C 
ATOM     27  C   UNL     1       6.699   3.583  11.868  0.00  0.00    +0.000 C 
ENDBRANCH  24  26
ENDBRANCH  19  24
ENDBRANCH  13  20
ENDBRANCH   1  16
BRANCH   6  28
ATOM     28  C   UNL     1      -1.377  12.066  22.165  0.00  0.00    +0.000 C 
ATOM     29  N   UNL     1      -0.789  12.508  23.236  0.00  0.00    +0.000 NA
ATOM     30  N   UNL     1      -2.655  12.516  21.912  0.00  0.00    +0.000 N 
ATOM     31  H   UNL     1       0.155  12.156  23.367  0.00  0.00    +0.000 HD
ATOM     32  H   UNL     1      -3.335  11.793  21.718  0.00  0.00    +0.000 HD
BRANCH  30  33
ATOM     33  C   UNL     1      -3.167  13.670  22.655  0.00  0.00    +0.000 C 
BRANCH  33  34
ATOM     34  C   UNL     1      -4.489  13.400  23.385  0.00  0.00    +0.000 C 
ATOM     35  C   UNL     1      -5.589  12.911  22.448  0.00  0.00    +0.000 C 
ATOM     36  C   UNL     1      -4.299  12.452  24.568  0.00  0.00    +0.000 C 
ENDBRANCH  33  34
ENDBRANCH  30  33
ENDBRANCH   6  28
TORSDOF 7
ENDMDL
MODEL 6
REMARK VINA RESULT:      -8.2      1.360      1.643
REMARK  Name = 
REMARK  11 active torsions:
REMARK  status: ('A' for Active; 'I' for Inactive)
REMARK    1  A    between atoms: C_1  and  C_2
REMARK    2  A    between atoms: C_2  and  C_3
REMARK    3  A    between atoms: C_2  and  C_4
REMARK    4  A    between atoms: C_4  and  N_5
REMARK    5  A    between atoms: C_6  and  C_8
REMARK    6  A    between atoms: C_11  and  N_12
REMARK    7  A    between atoms: C_17  and  C_18
REMARK    8  A    between atoms: N_20  and  C_21
REMARK    9  A    between atoms: C_21  and  C_22
REMARK   10  A    between atoms: C_22  and  C_23
REMARK   11  A    between atoms: C_22  and  C_24
REMARK                            x       y       z     vdW  Elec       q    Type
REMARK                         _______ _______ _______ _____ _____    ______ ____
ROOT
ATOM      1  N   UNL     1       7.522   7.939  17.305  0.00  0.00    +0.000 N 
ATOM      2  C   UNL     1       8.169   8.944  17.916  0.00  0.00    +0.000 A 
ATOM      3  N   UNL     1       8.324  10.112  17.341  0.00  0.00    +0.000 NA
ATOM      4  C   UNL     1       9.015  10.881  18.226  0.00  0.00    +0.000 A 
ATOM      5  C   UNL     1       9.377  12.225  18.105  0.00  0.00    +0.000 A 
ATOM      6  C   UNL     1      10.075  12.851  19.146  0.00  0.00    +0.000 A 
ATOM      7  C   UNL     1      10.448  12.088  20.269  0.00  0.00    +0.000 A 
ATOM      8  C   UNL     1      10.096  10.724  20.403  0.00  0.00    +0.000 A 
ATOM      9  C   UNL     1       9.349  10.163  19.361  0.00  0.00    +0.000 A 
ATOM     10  N   UNL     1       8.776   8.927  19.150  0.00  0.00    +0.000 N 
ATOM     11  H   UNL     1       7.218   8.235  16.379  0.00  0.00    +0.000 HD
ATOM     12  H   UNL     1       8.816   8.148  19.781  0.00  0.00    +0.000 HD
ENDROOT
BRANCH   1  16
ATOM     13  C   UNL     1       5.283   4.527  18.407  0.00  0.00    +0.000 A 
ATOM     14  C   UNL     1       4.736   5.534  17.619  0.00  0.00    +0.000 A 
ATOM     15  C   UNL     1       5.515   6.639  17.284  0.00  0.00    +0.000 A 
ATOM     16  C   UNL     1       6.848   6.782  17.725  0.00  0.00    +0.000 A 
ATOM     17  C   UNL     1       7.375   5.768  18.520  0.00  0.00    +0.000 A 
ATOM     18  C   UNL     1       6.597   4.648  18.866  0.00  0.00    +0.000 A 
BRANCH  13  20
ATOM     19  N   UNL     1       3.104   3.377  18.489  0.00  0.00    +0.000 N 
ATOM     20  C   UNL     1       4.441   3.361  18.795  0.00  0.00    +0.000 C 
ATOM     21  N   UNL     1       5.009   2.386  19.417  0.00  0.00    +0.000 NA
ATOM     22  H   UNL     1       2.820   3.911  17.673  0.00  0.00    +0.000 HD
ATOM     23  H   UNL     1       4.324   1.654  19.598  0.00  0.00    +0.000 HD
BRANCH  19  24
ATOM     24  C   UNL     1       2.062   2.660  19.191  0.00  0.00    +0.000 C 
BRANCH  24  26
ATOM     25  C   UNL     1       1.805   3.013  21.663  0.00  0.00    +0.000 C 
ATOM     26  C   UNL     1       1.419   3.537  20.279  0.00  0.00    +0.000 C 
ATOM     27  C   UNL     1       1.825   5.010  20.161  0.00  0.00    +0.000 C 
ENDBRANCH  24  26
ENDBRANCH  19  24
ENDBRANCH  13  20
ENDBRANCH   1  16
BRANCH   6  28
ATOM     28  C   UNL     1      10.316  14.342  19.087  0.00  0.00    +0.000 C 
ATOM     29  N   UNL     1      10.729  14.935  18.008  0.00  0.00    +0.000 NA
ATOM     30  N   UNL     1      10.053  15.133  20.185  0.00  0.00    +0.000 N 
ATOM     31  H   UNL     1      10.893  14.307  17.226  0.00  0.00    +0.000 HD
ATOM     32  H   UNL     1      10.492  14.834  21.045  0.00  0.00    +0.000 HD
BRANCH  30  33
ATOM     33  C   UNL     1       9.949  16.584  20.010  0.00  0.00    +0.000 C 
BRANCH  33  34
ATOM     34  C   UNL     1       8.524  17.127  20.172  0.00  0.00    +0.000 C 
ATOM     35  C   UNL     1       8.492  18.627  20.451  0.00  0.00    +0.000 C 
ATOM     36  C   UNL     1       7.641  16.762  18.980  0.00  0.00    +0.000 C 
ENDBRANCH  33  34
ENDBRANCH  30  33
ENDBRANCH   6  28
TORSDOF 7
ENDMDL
MODEL 7
REMARK VINA RESULT:      -8.2      1.373      2.053
REMARK  Name = 
REMARK  11 active torsions:
REMARK  status: ('A' for Active; 'I' for Inactive)
REMARK    1  A    between atoms: C_1  and  C_2
REMARK    2  A    between atoms: C_2  and  C_3
REMARK    3  A    between atoms: C_2  and  C_4
REMARK    4  A    between atoms: C_4  and  N_5
REMARK    5  A    between atoms: C_6  and  C_8
REMARK    6  A    between atoms: C_11  and  N_12
REMARK    7  A    between atoms: C_17  and  C_18
REMARK    8  A    between atoms: N_20  and  C_21
REMARK    9  A    between atoms: C_21  and  C_22
REMARK   10  A    between atoms: C_22  and  C_23
REMARK   11  A    between atoms: C_22  and  C_24
REMARK                            x       y       z     vdW  Elec       q    Type
REMARK                         _______ _______ _______ _____ _____    ______ ____
ROOT
ATOM      1  N   UNL     1       7.674   7.996  17.282  0.00  0.00    +0.000 N 
ATOM      2  C   UNL     1       8.281   8.988  17.952  0.00  0.00    +0.000 A 
ATOM      3  N   UNL     1       8.676  10.084  17.349  0.00  0.00    +0.000 NA
ATOM      4  C   UNL     1       9.244  10.861  18.311  0.00  0.00    +0.000 A 
ATOM      5  C   UNL     1       9.763  12.152  18.185  0.00  0.00    +0.000 A 
ATOM      6  C   UNL     1      10.290  12.800  19.309  0.00  0.00    +0.000 A 
ATOM      7  C   UNL     1      10.337  12.107  20.534  0.00  0.00    +0.000 A 
ATOM      8  C   UNL     1       9.822  10.796  20.676  0.00  0.00    +0.000 A 
ATOM      9  C   UNL     1       9.255  10.217  19.535  0.00  0.00    +0.000 A 
ATOM     10  N   UNL     1       8.611   9.023  19.287  0.00  0.00    +0.000 N 
ATOM     11  H   UNL     1       7.604   8.236  16.294  0.00  0.00    +0.000 HD
ATOM     12  H   UNL     1       8.436   8.301  19.961  0.00  0.00    +0.000 HD
ENDROOT
BRANCH   1  16
ATOM     13  C   UNL     1       5.250   4.750  18.490  0.00  0.00    +0.000 A 
ATOM     14  C   UNL     1       6.538   4.922  18.987  0.00  0.00    +0.000 A 
ATOM     15  C   UNL     1       7.297   6.007  18.557  0.00  0.00    +0.000 A 
ATOM     16  C   UNL     1       6.809   6.944  17.620  0.00  0.00    +0.000 A 
ATOM     17  C   UNL     1       5.521   6.750  17.128  0.00  0.00    +0.000 A 
ATOM     18  C   UNL     1       4.746   5.656  17.554  0.00  0.00    +0.000 A 
BRANCH  13  20
ATOM     19  N   UNL     1       3.107   3.542  18.646  0.00  0.00    +0.000 N 
ATOM     20  C   UNL     1       4.450   3.571  18.924  0.00  0.00    +0.000 C 
ATOM     21  N   UNL     1       5.058   2.628  19.558  0.00  0.00    +0.000 NA
ATOM     22  H   UNL     1       2.791   4.047  17.823  0.00  0.00    +0.000 HD
ATOM     23  H   UNL     1       4.398   1.882  19.771  0.00  0.00    +0.000 HD
BRANCH  19  24
ATOM     24  C   UNL     1       2.100   2.814  19.388  0.00  0.00    +0.000 C 
BRANCH  24  26
ATOM     25  C   UNL     1       2.083   3.208  21.867  0.00  0.00    +0.000 C 
ATOM     26  C   UNL     1       1.518   3.672  20.524  0.00  0.00    +0.000 C 
ATOM     27  C   UNL     1       1.807   5.165  20.340  0.00  0.00    +0.000 C 
ENDBRANCH  24  26
ENDBRANCH  19  24
ENDBRANCH  13  20
ENDBRANCH   1  16
BRANCH   6  28
ATOM     28  C   UNL     1      10.694  14.253  19.206  0.00  0.00    +0.000 C 
ATOM     29  N   UNL     1      10.225  15.039  18.285  0.00  0.00    +0.000 NA
ATOM     30  N   UNL     1      11.551  14.805  20.135  0.00  0.00    +0.000 N 
ATOM     31  H   UNL     1       9.587  14.586  17.636  0.00  0.00    +0.000 HD
ATOM     32  H   UNL     1      12.419  14.303  20.269  0.00  0.00    +0.000 HD
BRANCH  30  33
ATOM     33  C   UNL     1      11.651  16.262  20.236  0.00  0.00    +0.000 C 
BRANCH  33  34
ATOM     34  C   UNL     1      10.827  16.862  21.382  0.00  0.00    +0.000 C 
ATOM     35  C   UNL     1       9.570  17.577  20.893  0.00  0.00    +0.000 C 
ATOM     36  C   UNL     1      10.496  15.818  22.447  0.00  0.00    +0.000 C 
ENDBRANCH  33  34
ENDBRANCH  30  33
ENDBRANCH   6  28
TORSDOF 7
ENDMDL
MODEL 8
REMARK VINA RESULT:      -8.2      7.218      9.495
REMARK  Name = 
REMARK  11 active torsions:
REMARK  status: ('A' for Active; 'I' for Inactive)
REMARK    1  A    between atoms: C_1  and  C_2
REMARK    2  A    between atoms: C_2  and  C_3
REMARK    3  A    between atoms: C_2  and  C_4
REMARK    4  A    between atoms: C_4  and  N_5
REMARK    5  A    between atoms: C_6  and  C_8
REMARK    6  A    between atoms: C_11  and  N_12
REMARK    7  A    between atoms: C_17  and  C_18
REMARK    8  A    between atoms: N_20  and  C_21
REMARK    9  A    between atoms: C_21  and  C_22
REMARK   10  A    between atoms: C_22  and  C_23
REMARK   11  A    between atoms: C_22  and  C_24
REMARK                            x       y       z     vdW  Elec       q    Type
REMARK                         _______ _______ _______ _____ _____    ______ ____
ROOT
ATOM      1  N   UNL     1       2.867   6.646  18.934  0.00  0.00    +0.000 N 
ATOM      2  C   UNL     1       2.086   7.729  19.072  0.00  0.00    +0.000 A 
ATOM      3  N   UNL     1       1.780   8.210  20.252  0.00  0.00    +0.000 NA
ATOM      4  C   UNL     1       0.984   9.291  20.027  0.00  0.00    +0.000 A 
ATOM      5  C   UNL     1       0.446  10.178  20.961  0.00  0.00    +0.000 A 
ATOM      6  C   UNL     1      -0.338  11.253  20.524  0.00  0.00    +0.000 A 
ATOM      7  C   UNL     1      -0.614  11.378  19.148  0.00  0.00    +0.000 A 
ATOM      8  C   UNL     1      -0.083  10.482  18.190  0.00  0.00    +0.000 A 
ATOM      9  C   UNL     1       0.741   9.460  18.675  0.00  0.00    +0.000 A 
ATOM     10  N   UNL     1       1.477   8.458  18.078  0.00  0.00    +0.000 N 
ATOM     11  H   UNL     1       3.136   6.293  19.851  0.00  0.00    +0.000 HD
ATOM     12  H   UNL     1       1.536   8.285  17.092  0.00  0.00    +0.000 HD
ENDROOT
BRANCH   1  16
ATOM     13  C   UNL     1       5.436   5.336  15.843  0.00  0.00    +0.000 A 
ATOM     14  C   UNL     1       5.295   6.685  16.151  0.00  0.00    +0.000 A 
ATOM     15  C   UNL     1       4.435   7.066  17.177  0.00  0.00    +0.000 A 
ATOM     16  C   UNL     1       3.686   6.127  17.920  0.00  0.00    +0.000 A 
ATOM     17  C   UNL     1       3.835   4.782  17.591  0.00  0.00    +0.000 A 
ATOM     18  C   UNL     1       4.699   4.386  16.554  0.00  0.00    +0.000 A 
BRANCH  13  20
ATOM     19  N   UNL     1       5.771   4.416  13.581  0.00  0.00    +0.000 N 
ATOM     20  C   UNL     1       6.330   4.929  14.723  0.00  0.00    +0.000 C 
ATOM     21  N   UNL     1       7.602   5.067  14.884  0.00  0.00    +0.000 NA
ATOM     22  H   UNL     1       4.832   4.722  13.344  0.00  0.00    +0.000 HD
ATOM     23  H   UNL     1       8.085   4.773  14.036  0.00  0.00    +0.000 HD
BRANCH  19  24
ATOM     24  C   UNL     1       6.416   3.516  12.648  0.00  0.00    +0.000 C 
BRANCH  24  26
ATOM     25  C   UNL     1       4.323   3.229  11.292  0.00  0.00    +0.000 C 
ATOM     26  C   UNL     1       5.415   2.499  12.075  0.00  0.00    +0.000 C 
ATOM     27  C   UNL     1       6.085   1.463  11.167  0.00  0.00    +0.000 C 
ENDBRANCH  24  26
ENDBRANCH  19  24
ENDBRANCH  13  20
ENDBRANCH   1  16
BRANCH   6  28
ATOM     28  C   UNL     1      -0.776  12.305  21.517  0.00  0.00    +0.000 C 
ATOM     29  N   UNL     1       0.069  12.940  22.272  0.00  0.00    +0.000 NA
ATOM     30  N   UNL     1      -2.105  12.658  21.617  0.00  0.00    +0.000 N 
ATOM     31  H   UNL     1       1.035  12.652  22.148  0.00  0.00    +0.000 HD
ATOM     32  H   UNL     1      -2.745  11.886  21.756  0.00  0.00    +0.000 HD
BRANCH  30  33
ATOM     33  C   UNL     1      -2.465  13.898  22.307  0.00  0.00    +0.000 C 
BRANCH  33  34
ATOM     34  C   UNL     1      -3.387  13.691  23.515  0.00  0.00    +0.000 C 
ATOM     35  C   UNL     1      -3.571  12.218  23.871  0.00  0.00    +0.000 C 
ATOM     36  C   UNL     1      -2.927  14.504  24.724  0.00  0.00    +0.000 C 
ENDBRANCH  33  34
ENDBRANCH  30  33
ENDBRANCH   6  28
TORSDOF 7
ENDMDL
MODEL 9
REMARK VINA RESULT:      -8.1      1.595     11.369
REMARK  Name = 
REMARK  11 active torsions:
REMARK  status: ('A' for Active; 'I' for Inactive)
REMARK    1  A    between atoms: C_1  and  C_2
REMARK    2  A    between atoms: C_2  and  C_3
REMARK    3  A    between atoms: C_2  and  C_4
REMARK    4  A    between atoms: C_4  and  N_5
REMARK    5  A    between atoms: C_6  and  C_8
REMARK    6  A    between atoms: C_11  and  N_12
REMARK    7  A    between atoms: C_17  and  C_18
REMARK    8  A    between atoms: N_20  and  C_21
REMARK    9  A    between atoms: C_21  and  C_22
REMARK   10  A    between atoms: C_22  and  C_23
REMARK   11  A    between atoms: C_22  and  C_24
REMARK                            x       y       z     vdW  Elec       q    Type
REMARK                         _______ _______ _______ _____ _____    ______ ____
ROOT
ATOM      1  N   UNL     1       8.735   8.654  18.646  0.00  0.00    +0.000 N 
ATOM      2  C   UNL     1       7.816   7.790  18.186  0.00  0.00    +0.000 A 
ATOM      3  N   UNL     1       7.484   6.717  18.862  0.00  0.00    +0.000 NA
ATOM      4  C   UNL     1       6.543   6.076  18.116  0.00  0.00    +0.000 A 
ATOM      5  C   UNL     1       5.833   4.915  18.430  0.00  0.00    +0.000 A 
ATOM      6  C   UNL     1       4.880   4.420  17.531  0.00  0.00    +0.000 A 
ATOM      7  C   UNL     1       4.704   5.077  16.298  0.00  0.00    +0.000 A 
ATOM      8  C   UNL     1       5.421   6.249  15.960  0.00  0.00    +0.000 A 
ATOM      9  C   UNL     1       6.318   6.734  16.919  0.00  0.00    +0.000 A 
ATOM     10  N   UNL     1       7.132   7.845  16.995  0.00  0.00    +0.000 N 
ATOM     11  H   UNL     1       9.103   8.328  19.538  0.00  0.00    +0.000 HD
ATOM     12  H   UNL     1       7.219   8.555  16.291  0.00  0.00    +0.000 HD
ENDROOT
BRANCH   1  16
ATOM     13  C   UNL     1       9.869  12.691  18.103  0.00  0.00    +0.000 A 
ATOM     14  C   UNL     1      10.686  11.789  18.777  0.00  0.00    +0.000 A 
ATOM     15  C   UNL     1      10.267  10.469  18.930  0.00  0.00    +0.000 A 
ATOM     16  C   UNL     1       9.029  10.009  18.431  0.00  0.00    +0.000 A 
ATOM     17  C   UNL     1       8.222  10.930  17.767  0.00  0.00    +0.000 A 
ATOM     18  C   UNL     1       8.634  12.265  17.608  0.00  0.00    +0.000 A 
BRANCH  13  20
ATOM     19  N   UNL     1      10.287  14.916  19.076  0.00  0.00    +0.000 N 
ATOM     20  C   UNL     1      10.301  14.110  17.967  0.00  0.00    +0.000 C 
ATOM     21  N   UNL     1      10.659  14.523  16.800  0.00  0.00    +0.000 NA
ATOM     22  H   UNL     1      10.420  14.470  19.978  0.00  0.00    +0.000 HD
ATOM     23  H   UNL     1      10.948  15.498  16.860  0.00  0.00    +0.000 HD
BRANCH  19  24
ATOM     24  C   UNL     1      10.152  16.357  19.079  0.00  0.00    +0.000 C 
BRANCH  24  26
ATOM     25  C   UNL     1       7.802  17.038  18.517  0.00  0.00    +0.000 C 
ATOM     26  C   UNL     1       8.792  16.787  19.655  0.00  0.00    +0.000 C 
ATOM     27  C   UNL     1       8.207  15.749  20.618  0.00  0.00    +0.000 C 
ENDBRANCH  24  26
ENDBRANCH  19  24
ENDBRANCH  13  20
ENDBRANCH   1  16
BRANCH   6  28
ATOM     28  C   UNL     1       3.996   3.267  17.946  0.00  0.00    +0.000 C 
ATOM     29  N   UNL     1       4.308   2.030  17.697  0.00  0.00    +0.000 NA
ATOM     30  N   UNL     1       2.837   3.498  18.655  0.00  0.00    +0.000 N 
ATOM     31  H   UNL     1       5.178   1.916  17.186  0.00  0.00    +0.000 HD
ATOM     32  H   UNL     1       2.206   4.171  18.240  0.00  0.00    +0.000 HD
BRANCH  30  33
ATOM     33  C   UNL     1       2.189   2.382  19.348  0.00  0.00    +0.000 C 
BRANCH  33  34
ATOM     34  C   UNL     1       1.200   2.818  20.436  0.00  0.00    +0.000 C 
ATOM     35  C   UNL     1       1.655   2.423  21.838  0.00  0.00    +0.000 C 
ATOM     36  C   UNL     1       0.887   4.311  20.350  0.00  0.00    +0.000 C 
ENDBRANCH  33  34
ENDBRANCH  30  33
ENDBRANCH   6  28
TORSDOF 7
ENDMDL
