MODEL 1
REMARK VINA RESULT:      -8.9      0.000      0.000
REMARK  Name = 
REMARK  13 active torsions:
REMARK  status: ('A' for Active; 'I' for Inactive)
REMARK    1  A    between atoms: C_1  and  C_2
REMARK    2  A    between atoms: C_11  and  O_12
REMARK    3  A    between atoms: O_12  and  C_13
REMARK    4  A    between atoms: C_19  and  C_20
REMARK    5  A    between atoms: N_21  and  O_22
REMARK    6  A    between atoms: O_22  and  C_23
REMARK    7  A    between atoms: C_23  and  C_24
REMARK    8  A    between atoms: C_27  and  C_28
REMARK    9  A    between atoms: C_28  and  O_30
REMARK   10  A    between atoms: O_30  and  C_31
REMARK   11  A    between atoms: C_31  and  C_32
REMARK   12  A    between atoms: C_31  and  C_33
REMARK   13  A    between atoms: C_31  and  C_34
REMARK                            x       y       z     vdW  Elec       q    Type
REMARK                         _______ _______ _______ _____ _____    ______ ____
ROOT
ATOM      1  C   UNL     1       5.909   5.001  14.970  0.00  0.00    +0.000 C 
ATOM      2  C   UNL     1       5.125   5.069  16.231  0.00  0.00    +0.000 A 
ATOM      3  N   UNL     1       4.244   4.107  16.526  0.00  0.00    +0.000 NA
ATOM      4  N   UNL     1       3.646   4.519  17.686  0.00  0.00    +0.000 N 
ATOM      5  C   UNL     1       2.586   3.759  18.287  0.00  0.00    +0.000 A 
ATOM      6  C   UNL     1       2.256   2.514  17.751  0.00  0.00    +0.000 A 
ATOM      7  C   UNL     1       1.205   1.795  18.320  0.00  0.00    +0.000 A 
ATOM      8  C   UNL     1       0.512   2.332  19.393  0.00  0.00    +0.000 A 
ATOM      9  C   UNL     1       0.901   3.567  19.873  0.00  0.00    +0.000 A 
ATOM     10  N   UNL     1       1.922   4.284  19.352  0.00  0.00    +0.000 NA
ATOM     11  C   UNL     1       4.156   5.739  18.111  0.00  0.00    +0.000 A 
ATOM     12  C   UNL     1       5.174   6.070  17.230  0.00  0.00    +0.000 A 
ENDROOT
BRANCH  12  13
ATOM     13  C   UNL     1       6.005   7.238  17.354  0.00  0.00    +0.000 C 
ATOM     14  N   UNL     1       7.287   7.164  17.196  0.00  0.00    +0.000 NA
BRANCH  14  15
ATOM     15  O   UNL     1       7.785   8.477  17.273  0.00  0.00    +0.000 OA
BRANCH  15  16
ATOM     16  C   UNL     1       8.632   8.604  18.409  0.00  0.00    +0.000 C 
BRANCH  16  17
ATOM     17  C   UNL     1       8.888  10.073  18.635  0.00  0.00    +0.000 A 
ATOM     18  C   UNL     1       9.399  10.508  19.861  0.00  0.00    +0.000 A 
ATOM     19  C   UNL     1       9.631  11.863  20.083  0.00  0.00    +0.000 A 
ATOM     20  C   UNL     1       9.354  12.813  19.088  0.00  0.00    +0.000 A 
ATOM     21  C   UNL     1       8.828  12.392  17.864  0.00  0.00    +0.000 A 
ATOM     22  C   UNL     1       8.596  11.026  17.642  0.00  0.00    +0.000 A 
BRANCH  20  23
ATOM     23  C   UNL     1       9.654  14.228  19.422  0.00  0.00    +0.000 C 
ATOM     24  O   UNL     1       9.442  14.665  20.544  0.00  0.00    +0.000 OA
BRANCH  23  25
ATOM     25  O   UNL     1      10.168  14.931  18.380  0.00  0.00    +0.000 OA
BRANCH  25  26
ATOM     26  C   UNL     1       9.876  16.357  18.295  0.00  0.00    +0.000 C 
ATOM     27  C   UNL     1      10.469  17.120  19.487  0.00  0.00    +0.000 C 
ATOM     28  C   UNL     1      10.569  16.864  17.019  0.00  0.00    +0.000 C 
ATOM     29  C   UNL     1       8.369  16.610  18.139  0.00  0.00    +0.000 C 
ENDBRANCH  25  26
ENDBRANCH  23  25
ENDBRANCH  20  23
ENDBRANCH  16  17
ENDBRANCH  15  16
ENDBRANCH  14  15
ENDBRANCH  12  13
BRANCH  11  30
ATOM     30  O   UNL     1       3.664   6.363  19.189  0.00  0.00    +0.000 OA
BRANCH  30  31
ATOM     31  C   UNL     1       2.763   7.398  19.081  0.00  0.00    +0.000 A 
ATOM     32  C   UNL     1       2.525   8.106  17.898  0.00  0.00    +0.000 A 
ATOM     33  C   UNL     1       1.626   9.172  17.888  0.00  0.00    +0.000 A 
ATOM     34  C   UNL     1       0.921   9.497  19.045  0.00  0.00    +0.000 A 
ATOM     35  C   UNL     1       1.119   8.761  20.213  0.00  0.00    +0.000 A 
ATOM     36  C   UNL     1       2.042   7.714  20.232  0.00  0.00    +0.000 A 
ENDBRANCH  30  31
ENDBRANCH  11  30
TORSDOF 9
ENDMDL
MODEL 2
REMARK VINA RESULT:      -8.8      0.874      1.198
REMARK  Name = 
REMARK  13 active torsions:
REMARK  status: ('A' for Active; 'I' for Inactive)
REMARK    1  A    between atoms: C_1  and  C_2
REMARK    2  A    between atoms: C_11  and  O_12
REMARK    3  A    between atoms: O_12  and  C_13
REMARK    4  A    between atoms: C_19  and  C_20
REMARK    5  A    between atoms: N_21  and  O_22
REMARK    6  A    between atoms: O_22  and  C_23
REMARK    7  A    between atoms: C_23  and  C_24
REMARK    8  A    between atoms: C_27  and  C_28
REMARK    9  A    between atoms: C_28  and  O_30
REMARK   10  A    between atoms: O_30  and  C_31
REMARK   11  A    between atoms: C_31  and  C_32
REMARK   12  A    between atoms: C_31  and  C_33
REMARK   13  A    between atoms: C_31  and  C_34
REMARK                            x       y       z     vdW  Elec       q    Type
REMARK                         _______ _______ _______ _____ _____    ______ ____
ROOT
ATOM      1  C   UNL     1       5.985   4.996  15.043  0.00  0.00    +0.000 C 
ATOM      2  C   UNL     1       5.176   5.078  16.287  0.00  0.00    +0.000 A 
ATOM      3  N   UNL     1       4.296   4.114  16.579  0.00  0.00    +0.000 NA
ATOM      4  N   UNL     1       3.672   4.539  17.721  0.00  0.00    +0.000 N 
ATOM      5  C   UNL     1       2.605   3.782  18.312  0.00  0.00    +0.000 A 
ATOM      6  C   UNL     1       2.294   2.526  17.789  0.00  0.00    +0.000 A 
ATOM      7  C   UNL     1       1.237   1.809  18.348  0.00  0.00    +0.000 A 
ATOM      8  C   UNL     1       0.519   2.357  19.399  0.00  0.00    +0.000 A 
ATOM      9  C   UNL     1       0.890   3.602  19.867  0.00  0.00    +0.000 A 
ATOM     10  N   UNL     1       1.916   4.318  19.355  0.00  0.00    +0.000 NA
ATOM     11  C   UNL     1       4.165   5.770  18.137  0.00  0.00    +0.000 A 
ATOM     12  C   UNL     1       5.198   6.094  17.270  0.00  0.00    +0.000 A 
ENDROOT
BRANCH  12  13
ATOM     13  C   UNL     1       6.019   7.270  17.392  0.00  0.00    +0.000 C 
ATOM     14  N   UNL     1       7.292   7.219  17.172  0.00  0.00    +0.000 NA
BRANCH  14  15
ATOM     15  O   UNL     1       7.776   8.536  17.268  0.00  0.00    +0.000 OA
BRANCH  15  16
ATOM     16  C   UNL     1       8.612   8.660  18.413  0.00  0.00    +0.000 C 
BRANCH  16  17
ATOM     17  C   UNL     1       8.905  10.125  18.617  0.00  0.00    +0.000 A 
ATOM     18  C   UNL     1       9.540  10.549  19.788  0.00  0.00    +0.000 A 
ATOM     19  C   UNL     1       9.808  11.900  19.990  0.00  0.00    +0.000 A 
ATOM     20  C   UNL     1       9.445  12.858  19.030  0.00  0.00    +0.000 A 
ATOM     21  C   UNL     1       8.796  12.447  17.863  0.00  0.00    +0.000 A 
ATOM     22  C   UNL     1       8.527  11.085  17.661  0.00  0.00    +0.000 A 
BRANCH  20  23
ATOM     23  C   UNL     1       9.794  14.268  19.338  0.00  0.00    +0.000 C 
ATOM     24  O   UNL     1      10.713  14.534  20.098  0.00  0.00    +0.000 OA
BRANCH  23  25
ATOM     25  O   UNL     1       9.004  15.170  18.698  0.00  0.00    +0.000 OA
BRANCH  25  26
ATOM     26  C   UNL     1       8.044  15.932  19.488  0.00  0.00    +0.000 C 
ATOM     27  C   UNL     1       7.263  16.921  18.613  0.00  0.00    +0.000 C 
ATOM     28  C   UNL     1       7.042  14.910  20.053  0.00  0.00    +0.000 C 
ATOM     29  C   UNL     1       8.724  16.625  20.678  0.00  0.00    +0.000 C 
ENDBRANCH  25  26
ENDBRANCH  23  25
ENDBRANCH  20  23
ENDBRANCH  16  17
ENDBRANCH  15  16
ENDBRANCH  14  15
ENDBRANCH  12  13
BRANCH  11  30
ATOM     30  O   UNL     1       3.647   6.406  19.195  0.00  0.00    +0.000 OA
BRANCH  30  31
ATOM     31  C   UNL     1       2.758   7.447  19.052  0.00  0.00    +0.000 A 
ATOM     32  C   UNL     1       2.570   8.156  17.861  0.00  0.00    +0.000 A 
ATOM     33  C   UNL     1       1.679   9.227  17.817  0.00  0.00    +0.000 A 
ATOM     34  C   UNL     1       0.932   9.558  18.946  0.00  0.00    +0.000 A 
ATOM     35  C   UNL     1       1.081   8.821  20.121  0.00  0.00    +0.000 A 
ATOM     36  C   UNL     1       1.996   7.769  20.175  0.00  0.00    +0.000 A 
ENDBRANCH  30  31
ENDBRANCH  11  30
TORSDOF 9
ENDMDL
MODEL 3
REMARK VINA RESULT:      -8.7      0.889      1.722
REMARK  Name = 
REMARK  13 active torsions:
REMARK  status: ('A' for Active; 'I' for Inactive)
REMARK    1  A    between atoms: C_1  and  C_2
REMARK    2  A    between atoms: C_11  and  O_12
REMARK    3  A    between atoms: O_12  and  C_13
REMARK    4  A    between atoms: C_19  and  C_20
REMARK    5  A    between atoms: N_21  and  O_22
REMARK    6  A    between atoms: O_22  and  C_23
REMARK    7  A    between atoms: C_23  and  C_24
REMARK    8  A    between atoms: C_27  and  C_28
REMARK    9  A    between atoms: C_28  and  O_30
REMARK   10  A    between atoms: O_30  and  C_31
REMARK   11  A    between atoms: C_31  and  C_32
REMARK   12  A    between atoms: C_31  and  C_33
REMARK   13  A    between atoms: C_31  and  C_34
REMARK                            x       y       z     vdW  Elec       q    Type
REMARK                         _______ _______ _______ _____ _____    ______ ____
ROOT
ATOM      1  C   UNL     1       6.219   4.794  15.290  0.00  0.00    +0.000 C 
ATOM      2  C   UNL     1       5.375   4.938  16.506  0.00  0.00    +0.000 A 
ATOM      3  N   UNL     1       4.464   4.005  16.805  0.00  0.00    +0.000 NA
ATOM      4  N   UNL     1       3.817   4.485  17.912  0.00  0.00    +0.000 N 
ATOM      5  C   UNL     1       2.716   3.773  18.496  0.00  0.00    +0.000 A 
ATOM      6  C   UNL     1       2.391   2.508  18.008  0.00  0.00    +0.000 A 
ATOM      7  C   UNL     1       1.301   1.834  18.560  0.00  0.00    +0.000 A 
ATOM      8  C   UNL     1       0.566   2.436  19.568  0.00  0.00    +0.000 A 
ATOM      9  C   UNL     1       0.953   3.688  20.005  0.00  0.00    +0.000 A 
ATOM     10  N   UNL     1       2.010   4.361  19.499  0.00  0.00    +0.000 NA
ATOM     11  C   UNL     1       4.328   5.718  18.299  0.00  0.00    +0.000 A 
ATOM     12  C   UNL     1       5.393   5.987  17.454  0.00  0.00    +0.000 A 
ENDROOT
BRANCH  12  13
ATOM     13  C   UNL     1       6.238   7.148  17.560  0.00  0.00    +0.000 C 
ATOM     14  N   UNL     1       7.432   7.150  17.064  0.00  0.00    +0.000 NA
BRANCH  14  15
ATOM     15  O   UNL     1       7.944   8.448  17.238  0.00  0.00    +0.000 OA
BRANCH  15  16
ATOM     16  C   UNL     1       8.399   8.611  18.576  0.00  0.00    +0.000 C 
BRANCH  16  17
ATOM     17  C   UNL     1       8.970  10.001  18.706  0.00  0.00    +0.000 A 
ATOM     18  C   UNL     1       8.719  10.949  17.710  0.00  0.00    +0.000 A 
ATOM     19  C   UNL     1       9.247  12.233  17.816  0.00  0.00    +0.000 A 
ATOM     20  C   UNL     1      10.040  12.597  18.916  0.00  0.00    +0.000 A 
ATOM     21  C   UNL     1      10.310  11.653  19.910  0.00  0.00    +0.000 A 
ATOM     22  C   UNL     1       9.776  10.360  19.801  0.00  0.00    +0.000 A 
BRANCH  20  23
ATOM     23  C   UNL     1      10.538  13.996  18.939  0.00  0.00    +0.000 C 
ATOM     24  O   UNL     1      10.933  14.536  17.916  0.00  0.00    +0.000 OA
BRANCH  23  25
ATOM     25  O   UNL     1      10.495  14.562  20.173  0.00  0.00    +0.000 OA
BRANCH  25  26
ATOM     26  C   UNL     1       9.281  15.268  20.569  0.00  0.00    +0.000 C 
ATOM     27  C   UNL     1       8.475  14.458  21.593  0.00  0.00    +0.000 C 
ATOM     28  C   UNL     1       9.740  16.567  21.251  0.00  0.00    +0.000 C 
ATOM     29  C   UNL     1       8.437  15.656  19.345  0.00  0.00    +0.000 C 
ENDBRANCH  25  26
ENDBRANCH  23  25
ENDBRANCH  20  23
ENDBRANCH  16  17
ENDBRANCH  15  16
ENDBRANCH  14  15
ENDBRANCH  12  13
BRANCH  11  30
ATOM     30  O   UNL     1       3.795   6.403  19.319  0.00  0.00    +0.000 OA
BRANCH  30  31
ATOM     31  C   UNL     1       2.860   7.393  19.118  0.00  0.00    +0.000 A 
ATOM     32  C   UNL     1       1.956   7.824  20.095  0.00  0.00    +0.000 A 
ATOM     33  C   UNL     1       1.012   8.804  19.793  0.00  0.00    +0.000 A 
ATOM     34  C   UNL     1       1.005   9.397  18.531  0.00  0.00    +0.000 A 
ATOM     35  C   UNL     1       1.937   9.005  17.571  0.00  0.00    +0.000 A 
ATOM     36  C   UNL     1       2.862   8.002  17.863  0.00  0.00    +0.000 A 
ENDBRANCH  30  31
ENDBRANCH  11  30
TORSDOF 9
ENDMDL
MODEL 4
REMARK VINA RESULT:      -8.6      5.882      8.895
REMARK  Name = 
REMARK  13 active torsions:
REMARK  status: ('A' for Active; 'I' for Inactive)
REMARK    1  A    between atoms: C_1  and  C_2
REMARK    2  A    between atoms: C_11  and  O_12
REMARK    3  A    between atoms: O_12  and  C_13
REMARK    4  A    between atoms: C_19  and  C_20
REMARK    5  A    between atoms: N_21  and  O_22
REMARK    6  A    between atoms: O_22  and  C_23
REMARK    7  A    between atoms: C_23  and  C_24
REMARK    8  A    between atoms: C_27  and  C_28
REMARK    9  A    between atoms: C_28  and  O_30
REMARK   10  A    between atoms: O_30  and  C_31
REMARK   11  A    between atoms: C_31  and  C_32
REMARK   12  A    between atoms: C_31  and  C_33
REMARK   13  A    between atoms: C_31  and  C_34
REMARK                            x       y       z     vdW  Elec       q    Type
REMARK                         _______ _______ _______ _____ _____    ______ ____
ROOT
ATOM      1  C   UNL     1       1.371   9.669  17.834  0.00  0.00    +0.000 C 
ATOM      2  C   UNL     1       2.219   8.487  18.143  0.00  0.00    +0.000 A 
ATOM      3  N   UNL     1       3.076   8.020  17.228  0.00  0.00    +0.000 NA
ATOM      4  N   UNL     1       3.618   6.897  17.793  0.00  0.00    +0.000 N 
ATOM      5  C   UNL     1       4.553   6.079  17.073  0.00  0.00    +0.000 A 
ATOM      6  C   UNL     1       5.016   6.513  15.831  0.00  0.00    +0.000 A 
ATOM      7  C   UNL     1       5.900   5.699  15.122  0.00  0.00    +0.000 A 
ATOM      8  C   UNL     1       6.291   4.483  15.661  0.00  0.00    +0.000 A 
ATOM      9  C   UNL     1       5.795   4.125  16.899  0.00  0.00    +0.000 A 
ATOM     10  N   UNL     1       4.947   4.896  17.616  0.00  0.00    +0.000 NA
ATOM     11  C   UNL     1       3.095   6.668  19.060  0.00  0.00    +0.000 A 
ATOM     12  C   UNL     1       2.252   7.732  19.338  0.00  0.00    +0.000 A 
ENDROOT
BRANCH  12  13
ATOM     13  C   UNL     1       1.555   7.910  20.584  0.00  0.00    +0.000 C 
ATOM     14  N   UNL     1       1.876   8.862  21.398  0.00  0.00    +0.000 NA
BRANCH  14  15
ATOM     15  O   UNL     1       0.948   8.828  22.454  0.00  0.00    +0.000 OA
BRANCH  15  16
ATOM     16  C   UNL     1      -0.376   8.878  21.934  0.00  0.00    +0.000 C 
BRANCH  16  17
ATOM     17  C   UNL     1      -0.811  10.322  21.914  0.00  0.00    +0.000 A 
ATOM     18  C   UNL     1      -1.220  10.940  23.099  0.00  0.00    +0.000 A 
ATOM     19  C   UNL     1      -1.632  12.270  23.090  0.00  0.00    +0.000 A 
ATOM     20  C   UNL     1      -1.646  13.012  21.898  0.00  0.00    +0.000 A 
ATOM     21  C   UNL     1      -1.253  12.400  20.705  0.00  0.00    +0.000 A 
ATOM     22  C   UNL     1      -0.839  11.059  20.716  0.00  0.00    +0.000 A 
BRANCH  20  23
ATOM     23  C   UNL     1      -2.085  14.426  22.004  0.00  0.00    +0.000 C 
ATOM     24  O   UNL     1      -1.418  15.244  22.620  0.00  0.00    +0.000 OA
BRANCH  23  25
ATOM     25  O   UNL     1      -3.254  14.677  21.360  0.00  0.00    +0.000 OA
BRANCH  25  26
ATOM     26  C   UNL     1      -4.502  14.479  22.089  0.00  0.00    +0.000 C 
ATOM     27  C   UNL     1      -4.320  14.748  23.589  0.00  0.00    +0.000 C 
ATOM     28  C   UNL     1      -5.492  15.521  21.540  0.00  0.00    +0.000 C 
ATOM     29  C   UNL     1      -5.092  13.087  21.820  0.00  0.00    +0.000 C 
ENDBRANCH  25  26
ENDBRANCH  23  25
ENDBRANCH  20  23
ENDBRANCH  16  17
ENDBRANCH  15  16
ENDBRANCH  14  15
ENDBRANCH  12  13
BRANCH  11  30
ATOM     30  O   UNL     1       3.434   5.582  19.766  0.00  0.00    +0.000 OA
BRANCH  30  31
ATOM     31  C   UNL     1       2.553   4.544  19.970  0.00  0.00    +0.000 A 
ATOM     32  C   UNL     1       2.280   3.986  21.223  0.00  0.00    +0.000 A 
ATOM     33  C   UNL     1       1.406   2.905  21.333  0.00  0.00    +0.000 A 
ATOM     34  C   UNL     1       0.760   2.415  20.200  0.00  0.00    +0.000 A 
ATOM     35  C   UNL     1       0.992   3.002  18.956  0.00  0.00    +0.000 A 
ATOM     36  C   UNL     1       1.891   4.063  18.840  0.00  0.00    +0.000 A 
ENDBRANCH  30  31
ENDBRANCH  11  30
TORSDOF 9
ENDMDL
MODEL 5
REMARK VINA RESULT:      -8.6      5.882      8.806
REMARK  Name = 
REMARK  13 active torsions:
REMARK  status: ('A' for Active; 'I' for Inactive)
REMARK    1  A    between atoms: C_1  and  C_2
REMARK    2  A    between atoms: C_11  and  O_12
REMARK    3  A    between atoms: O_12  and  C_13
REMARK    4  A    between atoms: C_19  and  C_20
REMARK    5  A    between atoms: N_21  and  O_22
REMARK    6  A    between atoms: O_22  and  C_23
REMARK    7  A    between atoms: C_23  and  C_24
REMARK    8  A    between atoms: C_27  and  C_28
REMARK    9  A    between atoms: C_28  and  O_30
REMARK   10  A    between atoms: O_30  and  C_31
REMARK   11  A    between atoms: C_31  and  C_32
REMARK   12  A    between atoms: C_31  and  C_33
REMARK   13  A    between atoms: C_31  and  C_34
REMARK                            x       y       z     vdW  Elec       q    Type
REMARK                         _______ _______ _______ _____ _____    ______ ____
ROOT
ATOM      1  C   UNL     1       1.321   9.720  17.834  0.00  0.00    +0.000 C 
ATOM      2  C   UNL     1       2.166   8.539  18.152  0.00  0.00    +0.000 A 
ATOM      3  N   UNL     1       3.030   8.069  17.245  0.00  0.00    +0.000 NA
ATOM      4  N   UNL     1       3.567   6.947  17.817  0.00  0.00    +0.000 N 
ATOM      5  C   UNL     1       4.506   6.127  17.106  0.00  0.00    +0.000 A 
ATOM      6  C   UNL     1       4.980   6.557  15.866  0.00  0.00    +0.000 A 
ATOM      7  C   UNL     1       5.869   5.741  15.167  0.00  0.00    +0.000 A 
ATOM      8  C   UNL     1       6.254   4.527  15.711  0.00  0.00    +0.000 A 
ATOM      9  C   UNL     1       5.748   4.172  16.946  0.00  0.00    +0.000 A 
ATOM     10  N   UNL     1       4.895   4.944  17.654  0.00  0.00    +0.000 NA
ATOM     11  C   UNL     1       3.034   6.720  19.080  0.00  0.00    +0.000 A 
ATOM     12  C   UNL     1       2.189   7.787  19.349  0.00  0.00    +0.000 A 
ENDROOT
BRANCH  12  13
ATOM     13  C   UNL     1       1.482   7.967  20.589  0.00  0.00    +0.000 C 
ATOM     14  N   UNL     1       1.822   8.897  21.421  0.00  0.00    +0.000 NA
BRANCH  14  15
ATOM     15  O   UNL     1       0.880   8.876  22.465  0.00  0.00    +0.000 OA
BRANCH  15  16
ATOM     16  C   UNL     1      -0.435   8.975  21.930  0.00  0.00    +0.000 C 
BRANCH  16  17
ATOM     17  C   UNL     1      -0.810  10.435  21.889  0.00  0.00    +0.000 A 
ATOM     18  C   UNL     1      -1.146  11.098  23.074  0.00  0.00    +0.000 A 
ATOM     19  C   UNL     1      -1.503  12.443  23.046  0.00  0.00    +0.000 A 
ATOM     20  C   UNL     1      -1.533  13.156  21.837  0.00  0.00    +0.000 A 
ATOM     21  C   UNL     1      -1.213  12.500  20.646  0.00  0.00    +0.000 A 
ATOM     22  C   UNL     1      -0.854  11.144  20.675  0.00  0.00    +0.000 A 
BRANCH  20  23
ATOM     23  C   UNL     1      -1.909  14.590  21.923  0.00  0.00    +0.000 C 
ATOM     24  O   UNL     1      -1.414  15.413  21.167  0.00  0.00    +0.000 OA
BRANCH  23  25
ATOM     25  O   UNL     1      -2.822  14.850  22.894  0.00  0.00    +0.000 OA
BRANCH  25  26
ATOM     26  C   UNL     1      -4.181  15.193  22.491  0.00  0.00    +0.000 C 
ATOM     27  C   UNL     1      -4.624  14.376  21.270  0.00  0.00    +0.000 C 
ATOM     28  C   UNL     1      -5.091  14.810  23.671  0.00  0.00    +0.000 C 
ATOM     29  C   UNL     1      -4.330  16.704  22.259  0.00  0.00    +0.000 C 
ENDBRANCH  25  26
ENDBRANCH  23  25
ENDBRANCH  20  23
ENDBRANCH  16  17
ENDBRANCH  15  16
ENDBRANCH  14  15
ENDBRANCH  12  13
BRANCH  11  30
ATOM     30  O   UNL     1       3.366   5.636  19.792  0.00  0.00    +0.000 OA
BRANCH  30  31
ATOM     31  C   UNL     1       2.524   4.554  19.902  0.00  0.00    +0.000 A 
ATOM     32  C   UNL     1       1.859   3.967  18.819  0.00  0.00    +0.000 A 
ATOM     33  C   UNL     1       0.988   2.899  19.027  0.00  0.00    +0.000 A 
ATOM     34  C   UNL     1       0.820   2.378  20.309  0.00  0.00    +0.000 A 
ATOM     35  C   UNL     1       1.519   2.929  21.383  0.00  0.00    +0.000 A 
ATOM     36  C   UNL     1       2.367   4.018  21.180  0.00  0.00    +0.000 A 
ENDBRANCH  30  31
ENDBRANCH  11  30
TORSDOF 9
ENDMDL
MODEL 6
REMARK VINA RESULT:      -8.6      4.477      7.039
REMARK  Name = 
REMARK  13 active torsions:
REMARK  status: ('A' for Active; 'I' for Inactive)
REMARK    1  A    between atoms: C_1  and  C_2
REMARK    2  A    between atoms: C_11  and  O_12
REMARK    3  A    between atoms: O_12  and  C_13
REMARK    4  A    between atoms: C_19  and  C_20
REMARK    5  A    between atoms: N_21  and  O_22
REMARK    6  A    between atoms: O_22  and  C_23
REMARK    7  A    between atoms: C_23  and  C_24
REMARK    8  A    between atoms: C_27  and  C_28
REMARK    9  A    between atoms: C_28  and  O_30
REMARK   10  A    between atoms: O_30  and  C_31
REMARK   11  A    between atoms: C_31  and  C_32
REMARK   12  A    between atoms: C_31  and  C_33
REMARK   13  A    between atoms: C_31  and  C_34
REMARK                            x       y       z     vdW  Elec       q    Type
REMARK                         _______ _______ _______ _____ _____    ______ ____
ROOT
ATOM      1  C   UNL     1       7.695   7.233  17.918  0.00  0.00    +0.000 C 
ATOM      2  C   UNL     1       6.851   6.278  17.152  0.00  0.00    +0.000 A 
ATOM      3  N   UNL     1       7.230   5.874  15.934  0.00  0.00    +0.000 NA
ATOM      4  N   UNL     1       6.204   5.088  15.487  0.00  0.00    +0.000 N 
ATOM      5  C   UNL     1       6.225   4.514  14.171  0.00  0.00    +0.000 A 
ATOM      6  C   UNL     1       7.373   4.650  13.391  0.00  0.00    +0.000 A 
ATOM      7  C   UNL     1       7.377   4.117  12.102  0.00  0.00    +0.000 A 
ATOM      8  C   UNL     1       6.246   3.474  11.625  0.00  0.00    +0.000 A 
ATOM      9  C   UNL     1       5.149   3.373  12.459  0.00  0.00    +0.000 A 
ATOM     10  N   UNL     1       5.118   3.868  13.716  0.00  0.00    +0.000 NA
ATOM     11  C   UNL     1       5.185   5.005  16.428  0.00  0.00    +0.000 A 
ATOM     12  C   UNL     1       5.623   5.698  17.546  0.00  0.00    +0.000 A 
ENDROOT
BRANCH  12  13
ATOM     13  C   UNL     1       4.884   5.801  18.777  0.00  0.00    +0.000 C 
ATOM     14  N   UNL     1       3.790   6.487  18.842  0.00  0.00    +0.000 NA
BRANCH  14  15
ATOM     15  O   UNL     1       3.266   6.299  20.134  0.00  0.00    +0.000 OA
BRANCH  15  16
ATOM     16  C   UNL     1       1.850   6.430  20.102  0.00  0.00    +0.000 C 
BRANCH  16  17
ATOM     17  C   UNL     1       1.516   7.894  20.240  0.00  0.00    +0.000 A 
ATOM     18  C   UNL     1       1.204   8.419  21.498  0.00  0.00    +0.000 A 
ATOM     19  C   UNL     1       0.886   9.768  21.635  0.00  0.00    +0.000 A 
ATOM     20  C   UNL     1       0.871  10.621  20.521  0.00  0.00    +0.000 A 
ATOM     21  C   UNL     1       1.167  10.104  19.257  0.00  0.00    +0.000 A 
ATOM     22  C   UNL     1       1.487   8.745  19.121  0.00  0.00    +0.000 A 
BRANCH  20  23
ATOM     23  C   UNL     1       0.538  12.045  20.782  0.00  0.00    +0.000 C 
ATOM     24  O   UNL     1       0.334  12.441  21.920  0.00  0.00    +0.000 OA
BRANCH  23  25
ATOM     25  O   UNL     1       0.494  12.802  19.656  0.00  0.00    +0.000 OA
BRANCH  25  26
ATOM     26  C   UNL     1       1.604  13.711  19.390  0.00  0.00    +0.000 C 
ATOM     27  C   UNL     1       2.319  13.351  18.081  0.00  0.00    +0.000 C 
ATOM     28  C   UNL     1       0.985  15.109  19.220  0.00  0.00    +0.000 C 
ATOM     29  C   UNL     1       2.573  13.771  20.580  0.00  0.00    +0.000 C 
ENDBRANCH  25  26
ENDBRANCH  23  25
ENDBRANCH  20  23
ENDBRANCH  16  17
ENDBRANCH  15  16
ENDBRANCH  14  15
ENDBRANCH  12  13
BRANCH  11  30
ATOM     30  O   UNL     1       4.050   4.343  16.170  0.00  0.00    +0.000 OA
BRANCH  30  31
ATOM     31  C   UNL     1       3.457   3.526  17.105  0.00  0.00    +0.000 A 
ATOM     32  C   UNL     1       4.099   2.445  17.719  0.00  0.00    +0.000 A 
ATOM     33  C   UNL     1       3.408   1.642  18.625  0.00  0.00    +0.000 A 
ATOM     34  C   UNL     1       2.091   1.949  18.963  0.00  0.00    +0.000 A 
ATOM     35  C   UNL     1       1.464   3.056  18.390  0.00  0.00    +0.000 A 
ATOM     36  C   UNL     1       2.145   3.842  17.460  0.00  0.00    +0.000 A 
ENDBRANCH  30  31
ENDBRANCH  11  30
TORSDOF 9
ENDMDL
MODEL 7
REMARK VINA RESULT:      -8.6      5.895      9.469
REMARK  Name = 
REMARK  13 active torsions:
REMARK  status: ('A' for Active; 'I' for Inactive)
REMARK    1  A    between atoms: C_1  and  C_2
REMARK    2  A    between atoms: C_11  and  O_12
REMARK    3  A    between atoms: O_12  and  C_13
REMARK    4  A    between atoms: C_19  and  C_20
REMARK    5  A    between atoms: N_21  and  O_22
REMARK    6  A    between atoms: O_22  and  C_23
REMARK    7  A    between atoms: C_23  and  C_24
REMARK    8  A    between atoms: C_27  and  C_28
REMARK    9  A    between atoms: C_28  and  O_30
REMARK   10  A    between atoms: O_30  and  C_31
REMARK   11  A    between atoms: C_31  and  C_32
REMARK   12  A    between atoms: C_31  and  C_33
REMARK   13  A    between atoms: C_31  and  C_34
REMARK                            x       y       z     vdW  Elec       q    Type
REMARK                         _______ _______ _______ _____ _____    ______ ____
ROOT
ATOM      1  C   UNL     1       1.344   9.750  17.820  0.00  0.00    +0.000 C 
ATOM      2  C   UNL     1       2.187   8.573  18.159  0.00  0.00    +0.000 A 
ATOM      3  N   UNL     1       3.031   8.068  17.253  0.00  0.00    +0.000 NA
ATOM      4  N   UNL     1       3.571   6.961  17.850  0.00  0.00    +0.000 N 
ATOM      5  C   UNL     1       4.491   6.111  17.148  0.00  0.00    +0.000 A 
ATOM      6  C   UNL     1       4.945   6.499  15.887  0.00  0.00    +0.000 A 
ATOM      7  C   UNL     1       5.815   5.654  15.198  0.00  0.00    +0.000 A 
ATOM      8  C   UNL     1       6.202   4.455  15.773  0.00  0.00    +0.000 A 
ATOM      9  C   UNL     1       5.717   4.143  17.029  0.00  0.00    +0.000 A 
ATOM     10  N   UNL     1       4.883   4.944  17.727  0.00  0.00    +0.000 NA
ATOM     11  C   UNL     1       3.060   6.779  19.129  0.00  0.00    +0.000 A 
ATOM     12  C   UNL     1       2.228   7.859  19.379  0.00  0.00    +0.000 A 
ENDROOT
BRANCH  12  13
ATOM     13  C   UNL     1       1.545   8.084  20.626  0.00  0.00    +0.000 C 
ATOM     14  N   UNL     1       0.315   8.482  20.651  0.00  0.00    +0.000 NA
BRANCH  14  15
ATOM     15  O   UNL     1      -0.082   8.502  21.999  0.00  0.00    +0.000 OA
BRANCH  15  16
ATOM     16  C   UNL     1       0.326   9.723  22.604  0.00  0.00    +0.000 C 
BRANCH  16  17
ATOM     17  C   UNL     1      -0.731  10.759  22.315  0.00  0.00    +0.000 A 
ATOM     18  C   UNL     1      -0.791  11.355  21.052  0.00  0.00    +0.000 A 
ATOM     19  C   UNL     1      -1.758  12.319  20.778  0.00  0.00    +0.000 A 
ATOM     20  C   UNL     1      -2.683  12.711  21.758  0.00  0.00    +0.000 A 
ATOM     21  C   UNL     1      -2.623  12.132  23.029  0.00  0.00    +0.000 A 
ATOM     22  C   UNL     1      -1.648  11.161  23.303  0.00  0.00    +0.000 A 
BRANCH  20  23
ATOM     23  C   UNL     1      -3.683  13.732  21.354  0.00  0.00    +0.000 C 
ATOM     24  O   UNL     1      -3.330  14.782  20.838  0.00  0.00    +0.000 OA
BRANCH  23  25
ATOM     25  O   UNL     1      -4.964  13.365  21.617  0.00  0.00    +0.000 OA
BRANCH  25  26
ATOM     26  C   UNL     1      -5.847  13.082  20.491  0.00  0.00    +0.000 C 
ATOM     27  C   UNL     1      -5.102  12.342  19.371  0.00  0.00    +0.000 C 
ATOM     28  C   UNL     1      -6.943  12.145  21.028  0.00  0.00    +0.000 C 
ATOM     29  C   UNL     1      -6.532  14.359  19.983  0.00  0.00    +0.000 C 
ENDBRANCH  25  26
ENDBRANCH  23  25
ENDBRANCH  20  23
ENDBRANCH  16  17
ENDBRANCH  15  16
ENDBRANCH  14  15
ENDBRANCH  12  13
BRANCH  11  30
ATOM     30  O   UNL     1       3.398   5.716  19.869  0.00  0.00    +0.000 OA
BRANCH  30  31
ATOM     31  C   UNL     1       2.540   4.656  20.053  0.00  0.00    +0.000 A 
ATOM     32  C   UNL     1       2.327   4.027  21.285  0.00  0.00    +0.000 A 
ATOM     33  C   UNL     1       1.471   2.930  21.373  0.00  0.00    +0.000 A 
ATOM     34  C   UNL     1       0.782   2.493  20.243  0.00  0.00    +0.000 A 
ATOM     35  C   UNL     1       0.955   3.148  19.024  0.00  0.00    +0.000 A 
ATOM     36  C   UNL     1       1.835   4.227  18.928  0.00  0.00    +0.000 A 
ENDBRANCH  30  31
ENDBRANCH  11  30
TORSDOF 9
ENDMDL
MODEL 8
REMARK VINA RESULT:      -8.5      6.296     10.548
REMARK  Name = 
REMARK  13 active torsions:
REMARK  status: ('A' for Active; 'I' for Inactive)
REMARK    1  A    between atoms: C_1  and  C_2
REMARK    2  A    between atoms: C_11  and  O_12
REMARK    3  A    between atoms: O_12  and  C_13
REMARK    4  A    between atoms: C_19  and  C_20
REMARK    5  A    between atoms: N_21  and  O_22
REMARK    6  A    between atoms: O_22  and  C_23
REMARK    7  A    between atoms: C_23  and  C_24
REMARK    8  A    between atoms: C_27  and  C_28
REMARK    9  A    between atoms: C_28  and  O_30
REMARK   10  A    between atoms: O_30  and  C_31
REMARK   11  A    between atoms: C_31  and  C_32
REMARK   12  A    between atoms: C_31  and  C_33
REMARK   13  A    between atoms: C_31  and  C_34
REMARK                            x       y       z     vdW  Elec       q    Type
REMARK                         _______ _______ _______ _____ _____    ______ ____
ROOT
ATOM      1  C   UNL     1      -0.294   9.919  23.154  0.00  0.00    +0.000 C 
ATOM      2  C   UNL     1      -1.106  10.943  22.445  0.00  0.00    +0.000 A 
ATOM      3  N   UNL     1      -2.060  11.614  23.100  0.00  0.00    +0.000 NA
ATOM      4  N   UNL     1      -2.660  12.395  22.150  0.00  0.00    +0.000 N 
ATOM      5  C   UNL     1      -3.787  13.224  22.471  0.00  0.00    +0.000 A 
ATOM      6  C   UNL     1      -4.188  13.337  23.802  0.00  0.00    +0.000 A 
ATOM      7  C   UNL     1      -5.302  14.120  24.104  0.00  0.00    +0.000 A 
ATOM      8  C   UNL     1      -5.986  14.759  23.082  0.00  0.00    +0.000 A 
ATOM      9  C   UNL     1      -5.524  14.605  21.789  0.00  0.00    +0.000 A 
ATOM     10  N   UNL     1      -4.442  13.864  21.465  0.00  0.00    +0.000 NA
ATOM     11  C   UNL     1      -2.077  12.207  20.902  0.00  0.00    +0.000 A 
ATOM     12  C   UNL     1      -1.015  11.336  21.090  0.00  0.00    +0.000 A 
ENDROOT
BRANCH  12  13
ATOM     13  C   UNL     1      -0.107  10.930  20.049  0.00  0.00    +0.000 C 
ATOM     14  N   UNL     1       1.010  11.552  19.859  0.00  0.00    +0.000 NA
BRANCH  14  15
ATOM     15  O   UNL     1       1.702  10.851  18.855  0.00  0.00    +0.000 OA
BRANCH  15  16
ATOM     16  C   UNL     1       0.964   9.694  18.480  0.00  0.00    +0.000 C 
BRANCH  16  17
ATOM     17  C   UNL     1       1.868   8.497  18.634  0.00  0.00    +0.000 A 
ATOM     18  C   UNL     1       1.817   7.735  19.805  0.00  0.00    +0.000 A 
ATOM     19  C   UNL     1       2.653   6.633  19.962  0.00  0.00    +0.000 A 
ATOM     20  C   UNL     1       3.561   6.269  18.955  0.00  0.00    +0.000 A 
ATOM     21  C   UNL     1       3.632   7.032  17.786  0.00  0.00    +0.000 A 
ATOM     22  C   UNL     1       2.788   8.142  17.631  0.00  0.00    +0.000 A 
BRANCH  20  23
ATOM     23  C   UNL     1       4.392   5.067  19.217  0.00  0.00    +0.000 C 
ATOM     24  O   UNL     1       5.599   5.166  19.385  0.00  0.00    +0.000 OA
BRANCH  23  25
ATOM     25  O   UNL     1       3.677   3.913  19.246  0.00  0.00    +0.000 OA
BRANCH  25  26
ATOM     26  C   UNL     1       3.329   3.282  17.978  0.00  0.00    +0.000 C 
ATOM     27  C   UNL     1       4.389   3.566  16.905  0.00  0.00    +0.000 C 
ATOM     28  C   UNL     1       3.317   1.766  18.239  0.00  0.00    +0.000 C 
ATOM     29  C   UNL     1       1.920   3.688  17.520  0.00  0.00    +0.000 C 
ENDBRANCH  25  26
ENDBRANCH  23  25
ENDBRANCH  20  23
ENDBRANCH  16  17
ENDBRANCH  15  16
ENDBRANCH  14  15
ENDBRANCH  12  13
BRANCH  11  30
ATOM     30  O   UNL     1      -2.554  12.820  19.812  0.00  0.00    +0.000 OA
BRANCH  30  31
ATOM     31  C   UNL     1      -3.011  12.113  18.723  0.00  0.00    +0.000 A 
ATOM     32  C   UNL     1      -2.186  11.639  17.697  0.00  0.00    +0.000 A 
ATOM     33  C   UNL     1      -2.739  10.969  16.606  0.00  0.00    +0.000 A 
ATOM     34  C   UNL     1      -4.109  10.721  16.564  0.00  0.00    +0.000 A 
ATOM     35  C   UNL     1      -4.928  11.149  17.610  0.00  0.00    +0.000 A 
ATOM     36  C   UNL     1      -4.380  11.847  18.686  0.00  0.00    +0.000 A 
ENDBRANCH  30  31
ENDBRANCH  11  30
TORSDOF 9
ENDMDL
MODEL 9
REMARK VINA RESULT:      -8.4      0.856      1.310
REMARK  Name = 
REMARK  13 active torsions:
REMARK  status: ('A' for Active; 'I' for Inactive)
REMARK    1  A    between atoms: C_1  and  C_2
REMARK    2  A    between atoms: C_11  and  O_12
REMARK    3  A    between atoms: O_12  and  C_13
REMARK    4  A    between atoms: C_19  and  C_20
REMARK    5  A    between atoms: N_21  and  O_22
REMARK    6  A    between atoms: O_22  and  C_23
REMARK    7  A    between atoms: C_23  and  C_24
REMARK    8  A    between atoms: C_27  and  C_28
REMARK    9  A    between atoms: C_28  and  O_30
REMARK   10  A    between atoms: O_30  and  C_31
REMARK   11  A    between atoms: C_31  and  C_32
REMARK   12  A    between atoms: C_31  and  C_33
REMARK   13  A    between atoms: C_31  and  C_34
REMARK                            x       y       z     vdW  Elec       q    Type
REMARK                         _______ _______ _______ _____ _____    ______ ____
ROOT
ATOM      1  C   UNL     1       6.470   4.811  15.531  0.00  0.00    +0.000 C 
ATOM      2  C   UNL     1       5.536   4.952  16.679  0.00  0.00    +0.000 A 
ATOM      3  N   UNL     1       4.627   4.002  16.925  0.00  0.00    +0.000 NA
ATOM      4  N   UNL     1       3.890   4.482  17.974  0.00  0.00    +0.000 N 
ATOM      5  C   UNL     1       2.764   3.752  18.487  0.00  0.00    +0.000 A 
ATOM      6  C   UNL     1       2.505   2.473  17.996  0.00  0.00    +0.000 A 
ATOM      7  C   UNL     1       1.393   1.781  18.477  0.00  0.00    +0.000 A 
ATOM      8  C   UNL     1       0.572   2.379  19.419  0.00  0.00    +0.000 A 
ATOM      9  C   UNL     1       0.897   3.647  19.862  0.00  0.00    +0.000 A 
ATOM     10  N   UNL     1       1.973   4.338  19.426  0.00  0.00    +0.000 NA
ATOM     11  C   UNL     1       4.342   5.731  18.378  0.00  0.00    +0.000 A 
ATOM     12  C   UNL     1       5.460   6.014  17.609  0.00  0.00    +0.000 A 
ENDROOT
BRANCH  12  13
ATOM     13  C   UNL     1       6.268   7.196  17.758  0.00  0.00    +0.000 C 
ATOM     14  N   UNL     1       7.141   7.525  16.862  0.00  0.00    +0.000 NA
BRANCH  14  15
ATOM     15  O   UNL     1       7.676   8.766  17.248  0.00  0.00    +0.000 OA
BRANCH  15  16
ATOM     16  C   UNL     1       8.376   8.627  18.480  0.00  0.00    +0.000 C 
BRANCH  16  17
ATOM     17  C   UNL     1       9.073   9.933  18.767  0.00  0.00    +0.000 A 
ATOM     18  C   UNL     1       9.436  10.250  20.079  0.00  0.00    +0.000 A 
ATOM     19  C   UNL     1      10.073  11.457  20.357  0.00  0.00    +0.000 A 
ATOM     20  C   UNL     1      10.358  12.374  19.333  0.00  0.00    +0.000 A 
ATOM     21  C   UNL     1       9.985  12.073  18.020  0.00  0.00    +0.000 A 
ATOM     22  C   UNL     1       9.344  10.857  17.742  0.00  0.00    +0.000 A 
BRANCH  20  23
ATOM     23  C   UNL     1      11.055  13.621  19.736  0.00  0.00    +0.000 C 
ATOM     24  O   UNL     1      12.253  13.761  19.536  0.00  0.00    +0.000 OA
BRANCH  23  25
ATOM     25  O   UNL     1      10.234  14.533  20.319  0.00  0.00    +0.000 OA
BRANCH  25  26
ATOM     26  C   UNL     1      10.477  15.948  20.062  0.00  0.00    +0.000 C 
ATOM     27  C   UNL     1      10.558  16.235  18.557  0.00  0.00    +0.000 C 
ATOM     28  C   UNL     1       9.261  16.704  20.622  0.00  0.00    +0.000 C 
ATOM     29  C   UNL     1      11.722  16.445  20.812  0.00  0.00    +0.000 C 
ENDBRANCH  25  26
ENDBRANCH  23  25
ENDBRANCH  20  23
ENDBRANCH  16  17
ENDBRANCH  15  16
ENDBRANCH  14  15
ENDBRANCH  12  13
BRANCH  11  30
ATOM     30  O   UNL     1       3.719   6.418  19.344  0.00  0.00    +0.000 OA
BRANCH  30  31
ATOM     31  C   UNL     1       2.834   7.432  19.059  0.00  0.00    +0.000 A 
ATOM     32  C   UNL     1       2.740   8.061  17.813  0.00  0.00    +0.000 A 
ATOM     33  C   UNL     1       1.844   9.111  17.623  0.00  0.00    +0.000 A 
ATOM     34  C   UNL     1       0.998   9.500  18.661  0.00  0.00    +0.000 A 
ATOM     35  C   UNL     1       1.054   8.842  19.890  0.00  0.00    +0.000 A 
ATOM     36  C   UNL     1       1.973   7.812  20.090  0.00  0.00    +0.000 A 
ENDBRANCH  30  31
ENDBRANCH  11  30
TORSDOF 9
ENDMDL
