MODEL 1
REMARK VINA RESULT:      -8.2      0.000      0.000
REMARK  Name = 
REMARK  7 active torsions:
REMARK  status: ('A' for Active; 'I' for Inactive)
REMARK    1  A    between atoms: N_3  and  O_4
REMARK    2  A    between atoms: N_5  and  C_6
REMARK    3  A    between atoms: C_9  and  C_10
REMARK    4  A    between atoms: C_10  and  C_11
REMARK    5  A    between atoms: C_11  and  C_12
REMARK    6  A    between atoms: C_15  and  N_16
REMARK    7  A    between atoms: N_19  and  O_20
REMARK                            x       y       z     vdW  Elec       q    Type
REMARK                         _______ _______ _______ _____ _____    ______ ____
ROOT
ATOM      1  C   UNL     1       8.331   9.170  17.745  0.00  0.00    +0.000 C 
ENDROOT
BRANCH   1   5
ATOM      2  C   UNL     1       6.541   5.258  18.247  0.00  0.00    +0.000 A 
ATOM      3  C   UNL     1       7.651   5.642  19.011  0.00  0.00    +0.000 A 
ATOM      4  C   UNL     1       8.221   6.911  18.868  0.00  0.00    +0.000 A 
ATOM      5  C   UNL     1       7.693   7.824  17.950  0.00  0.00    +0.000 A 
ATOM      6  C   UNL     1       6.589   7.449  17.182  0.00  0.00    +0.000 A 
ATOM      7  C   UNL     1       6.024   6.181  17.331  0.00  0.00    +0.000 A 
BRANCH   2  11
ATOM      8  N   UNL     1       4.558   2.309  18.847  0.00  0.00    +0.000 N 
ATOM      9  C   UNL     1       4.820   3.639  19.002  0.00  0.00    +0.000 C 
ATOM     10  N   UNL     1       4.026   4.440  19.647  0.00  0.00    +0.000 NA
ATOM     11  N   UNL     1       6.005   3.968  18.403  0.00  0.00    +0.000 N 
ATOM     12  H   UNL     1       3.614   2.143  19.190  0.00  0.00    +0.000 HD
ATOM     13  H   UNL     1       4.632   2.016  17.880  0.00  0.00    +0.000 HD
ATOM     14  H   UNL     1       6.679   3.218  18.381  0.00  0.00    +0.000 HD
BRANCH  10  15
ATOM     15  O   UNL     1       2.890   3.770  20.123  0.00  0.00    +0.000 OA
ATOM     16  H   UNL     1       3.137   2.838  19.971  0.00  0.00    +0.000 HD
ENDBRANCH  10  15
ENDBRANCH   2  11
ENDBRANCH   1   5
BRANCH   1  17
ATOM     17  C   UNL     1       9.022   9.650  19.023  0.00  0.00    +0.000 C 
BRANCH  17  18
ATOM     18  C   UNL     1       9.635  11.010  18.819  0.00  0.00    +0.000 A 
ATOM     19  C   UNL     1      10.399  11.288  17.683  0.00  0.00    +0.000 A 
ATOM     20  C   UNL     1      10.988  12.546  17.522  0.00  0.00    +0.000 A 
ATOM     21  C   UNL     1      10.838  13.552  18.490  0.00  0.00    +0.000 A 
ATOM     22  C   UNL     1      10.089  13.250  19.632  0.00  0.00    +0.000 A 
ATOM     23  C   UNL     1       9.492  11.998  19.797  0.00  0.00    +0.000 A 
BRANCH  21  24
ATOM     24  N   UNL     1      11.361  14.825  18.217  0.00  0.00    +0.000 N 
ATOM     25  C   UNL     1      10.827  15.920  17.609  0.00  0.00    +0.000 C 
ATOM     26  N   UNL     1       9.630  15.780  16.978  0.00  0.00    +0.000 N 
ATOM     27  N   UNL     1      11.498  17.041  17.591  0.00  0.00    +0.000 NA
ATOM     28  H   UNL     1      12.289  14.990  18.588  0.00  0.00    +0.000 HD
ATOM     29  H   UNL     1       9.596  14.947  16.403  0.00  0.00    +0.000 HD
ATOM     30  H   UNL     1       9.451  16.618  16.434  0.00  0.00    +0.000 HD
BRANCH  27  31
ATOM     31  O   UNL     1      10.812  18.014  16.840  0.00  0.00    +0.000 OA
ATOM     32  H   UNL     1      11.435  18.766  16.870  0.00  0.00    +0.000 HD
ENDBRANCH  27  31
ENDBRANCH  21  24
ENDBRANCH  17  18
ENDBRANCH   1  17
TORSDOF 7
ENDMDL
MODEL 2
REMARK VINA RESULT:      -8.1      8.137     10.464
REMARK  Name = 
REMARK  7 active torsions:
REMARK  status: ('A' for Active; 'I' for Inactive)
REMARK    1  A    between atoms: N_3  and  O_4
REMARK    2  A    between atoms: N_5  and  C_6
REMARK    3  A    between atoms: C_9  and  C_10
REMARK    4  A    between atoms: C_10  and  C_11
REMARK    5  A    between atoms: C_11  and  C_12
REMARK    6  A    between atoms: C_15  and  N_16
REMARK    7  A    between atoms: N_19  and  O_20
REMARK                            x       y       z     vdW  Elec       q    Type
REMARK                         _______ _______ _______ _____ _____    ______ ____
ROOT
ATOM      1  C   UNL     1       1.707   9.232  17.978  0.00  0.00    +0.000 C 
ENDROOT
BRANCH   1   5
ATOM      2  C   UNL     1       3.729   5.580  19.136  0.00  0.00    +0.000 A 
ATOM      3  C   UNL     1       4.080   6.252  17.957  0.00  0.00    +0.000 A 
ATOM      4  C   UNL     1       3.445   7.442  17.588  0.00  0.00    +0.000 A 
ATOM      5  C   UNL     1       2.438   7.985  18.392  0.00  0.00    +0.000 A 
ATOM      6  C   UNL     1       2.079   7.322  19.567  0.00  0.00    +0.000 A 
ATOM      7  C   UNL     1       2.717   6.135  19.930  0.00  0.00    +0.000 A 
BRANCH   2  11
ATOM      8  N   UNL     1       4.922   2.199  19.496  0.00  0.00    +0.000 N 
ATOM      9  C   UNL     1       3.980   3.113  19.122  0.00  0.00    +0.000 C 
ATOM     10  N   UNL     1       2.873   2.777  18.531  0.00  0.00    +0.000 NA
ATOM     11  N   UNL     1       4.374   4.377  19.467  0.00  0.00    +0.000 N 
ATOM     12  H   UNL     1       4.646   1.301  19.104  0.00  0.00    +0.000 HD
ATOM     13  H   UNL     1       5.848   2.450  19.171  0.00  0.00    +0.000 HD
ATOM     14  H   UNL     1       4.965   4.417  20.283  0.00  0.00    +0.000 HD
BRANCH  10  15
ATOM     15  O   UNL     1       2.798   1.393  18.320  0.00  0.00    +0.000 OA
ATOM     16  H   UNL     1       1.987   1.165  18.811  0.00  0.00    +0.000 HD
ENDBRANCH  10  15
ENDBRANCH   2  11
ENDBRANCH   1   5
BRANCH   1  17
ATOM     17  C   UNL     1       0.856   9.777  19.127  0.00  0.00    +0.000 C 
BRANCH  17  18
ATOM     18  C   UNL     1      -0.439  10.343  18.607  0.00  0.00    +0.000 A 
ATOM     19  C   UNL     1      -1.064  11.411  19.255  0.00  0.00    +0.000 A 
ATOM     20  C   UNL     1      -2.282  11.905  18.780  0.00  0.00    +0.000 A 
ATOM     21  C   UNL     1      -2.910  11.345  17.656  0.00  0.00    +0.000 A 
ATOM     22  C   UNL     1      -2.282  10.262  17.033  0.00  0.00    +0.000 A 
ATOM     23  C   UNL     1      -1.061   9.766  17.497  0.00  0.00    +0.000 A 
BRANCH  21  24
ATOM     24  N   UNL     1      -4.074  11.958  17.165  0.00  0.00    +0.000 N 
ATOM     25  C   UNL     1      -5.345  12.023  17.649  0.00  0.00    +0.000 C 
ATOM     26  N   UNL     1      -5.663  11.236  18.712  0.00  0.00    +0.000 N 
ATOM     27  N   UNL     1      -6.228  12.775  17.048  0.00  0.00    +0.000 NA
ATOM     28  H   UNL     1      -3.940  12.507  16.325  0.00  0.00    +0.000 HD
ATOM     29  H   UNL     1      -5.325  10.288  18.601  0.00  0.00    +0.000 HD
ATOM     30  H   UNL     1      -6.670  11.261  18.843  0.00  0.00    +0.000 HD
BRANCH  27  31
ATOM     31  O   UNL     1      -7.492  12.628  17.650  0.00  0.00    +0.000 OA
ATOM     32  H   UNL     1      -7.624  11.661  17.603  0.00  0.00    +0.000 HD
ENDBRANCH  27  31
ENDBRANCH  21  24
ENDBRANCH  17  18
ENDBRANCH   1  17
TORSDOF 7
ENDMDL
MODEL 3
REMARK VINA RESULT:      -8.1      1.280      1.645
REMARK  Name = 
REMARK  7 active torsions:
REMARK  status: ('A' for Active; 'I' for Inactive)
REMARK    1  A    between atoms: N_3  and  O_4
REMARK    2  A    between atoms: N_5  and  C_6
REMARK    3  A    between atoms: C_9  and  C_10
REMARK    4  A    between atoms: C_10  and  C_11
REMARK    5  A    between atoms: C_11  and  C_12
REMARK    6  A    between atoms: C_15  and  N_16
REMARK    7  A    between atoms: N_19  and  O_20
REMARK                            x       y       z     vdW  Elec       q    Type
REMARK                         _______ _______ _______ _____ _____    ______ ____
ROOT
ATOM      1  C   UNL     1       7.982   8.614  17.506  0.00  0.00    +0.000 C 
ENDROOT
BRANCH   1   5
ATOM      2  C   UNL     1       6.102   4.770  18.177  0.00  0.00    +0.000 A 
ATOM      3  C   UNL     1       5.636   5.631  17.175  0.00  0.00    +0.000 A 
ATOM      4  C   UNL     1       6.251   6.865  16.939  0.00  0.00    +0.000 A 
ATOM      5  C   UNL     1       7.347   7.266  17.710  0.00  0.00    +0.000 A 
ATOM      6  C   UNL     1       7.817   6.416  18.712  0.00  0.00    +0.000 A 
ATOM      7  C   UNL     1       7.199   5.186  18.941  0.00  0.00    +0.000 A 
BRANCH   2  11
ATOM      8  N   UNL     1       3.933   1.893  18.267  0.00  0.00    +0.000 N 
ATOM      9  C   UNL     1       4.182   3.209  18.003  0.00  0.00    +0.000 C 
ATOM     10  N   UNL     1       3.303   3.994  17.458  0.00  0.00    +0.000 NA
ATOM     11  N   UNL     1       5.448   3.545  18.398  0.00  0.00    +0.000 N 
ATOM     12  H   UNL     1       3.038   1.662  17.839  0.00  0.00    +0.000 HD
ATOM     13  H   UNL     1       4.659   1.287  17.904  0.00  0.00    +0.000 HD
ATOM     14  H   UNL     1       5.793   3.010  19.180  0.00  0.00    +0.000 HD
BRANCH  10  15
ATOM     15  O   UNL     1       2.110   3.314  17.170  0.00  0.00    +0.000 OA
ATOM     16  H   UNL     1       2.275   2.448  17.589  0.00  0.00    +0.000 HD
ENDBRANCH  10  15
ENDBRANCH   2  11
ENDBRANCH   1   5
BRANCH   1  17
ATOM     17  C   UNL     1       8.814   9.019  18.725  0.00  0.00    +0.000 C 
BRANCH  17  18
ATOM     18  C   UNL     1       9.137  10.489  18.684  0.00  0.00    +0.000 A 
ATOM     19  C   UNL     1       8.437  11.352  17.838  0.00  0.00    +0.000 A 
ATOM     20  C   UNL     1       8.770  12.709  17.788  0.00  0.00    +0.000 A 
ATOM     21  C   UNL     1       9.811  13.237  18.569  0.00  0.00    +0.000 A 
ATOM     22  C   UNL     1      10.516  12.353  19.393  0.00  0.00    +0.000 A 
ATOM     23  C   UNL     1      10.186  10.998  19.454  0.00  0.00    +0.000 A 
BRANCH  21  24
ATOM     24  N   UNL     1      10.021  14.624  18.554  0.00  0.00    +0.000 N 
ATOM     25  C   UNL     1      10.489  15.466  17.591  0.00  0.00    +0.000 C 
ATOM     26  N   UNL     1      11.027  14.916  16.470  0.00  0.00    +0.000 N 
ATOM     27  N   UNL     1      10.471  16.756  17.797  0.00  0.00    +0.000 NA
ATOM     28  H   UNL     1       9.716  15.107  19.390  0.00  0.00    +0.000 HD
ATOM     29  H   UNL     1      11.664  14.158  16.683  0.00  0.00    +0.000 HD
ATOM     30  H   UNL     1      11.483  15.650  15.936  0.00  0.00    +0.000 HD
BRANCH  27  31
ATOM     31  O   UNL     1      11.079  17.434  16.723  0.00  0.00    +0.000 OA
ATOM     32  H   UNL     1      11.279  16.700  16.111  0.00  0.00    +0.000 HD
ENDBRANCH  27  31
ENDBRANCH  21  24
ENDBRANCH  17  18
ENDBRANCH   1  17
TORSDOF 7
ENDMDL
MODEL 4
REMARK VINA RESULT:      -8.0      0.893      1.396
REMARK  Name = 
REMARK  7 active torsions:
REMARK  status: ('A' for Active; 'I' for Inactive)
REMARK    1  A    between atoms: N_3  and  O_4
REMARK    2  A    between atoms: N_5  and  C_6
REMARK    3  A    between atoms: C_9  and  C_10
REMARK    4  A    between atoms: C_10  and  C_11
REMARK    5  A    between atoms: C_11  and  C_12
REMARK    6  A    between atoms: C_15  and  N_16
REMARK    7  A    between atoms: N_19  and  O_20
REMARK                            x       y       z     vdW  Elec       q    Type
REMARK                         _______ _______ _______ _____ _____    ______ ____
ROOT
ATOM      1  C   UNL     1       7.942   9.010  17.437  0.00  0.00    +0.000 C 
ENDROOT
BRANCH   1   5
ATOM      2  C   UNL     1       6.505   5.061  18.488  0.00  0.00    +0.000 A 
ATOM      3  C   UNL     1       5.865   5.817  17.497  0.00  0.00    +0.000 A 
ATOM      4  C   UNL     1       6.336   7.085  17.139  0.00  0.00    +0.000 A 
ATOM      5  C   UNL     1       7.459   7.625  17.771  0.00  0.00    +0.000 A 
ATOM      6  C   UNL     1       8.102   6.881  18.762  0.00  0.00    +0.000 A 
ATOM      7  C   UNL     1       7.627   5.617  19.114  0.00  0.00    +0.000 A 
BRANCH   2  11
ATOM      8  N   UNL     1       4.550   2.178  19.410  0.00  0.00    +0.000 N 
ATOM      9  C   UNL     1       4.742   3.526  19.316  0.00  0.00    +0.000 C 
ATOM     10  N   UNL     1       3.833   4.389  19.656  0.00  0.00    +0.000 NA
ATOM     11  N   UNL     1       5.993   3.799  18.836  0.00  0.00    +0.000 N 
ATOM     12  H   UNL     1       3.570   2.026  19.643  0.00  0.00    +0.000 HD
ATOM     13  H   UNL     1       4.780   1.698  18.549  0.00  0.00    +0.000 HD
ATOM     14  H   UNL     1       6.686   3.105  19.070  0.00  0.00    +0.000 HD
BRANCH  10  15
ATOM     15  O   UNL     1       2.660   3.759  20.097  0.00  0.00    +0.000 OA
ATOM     16  H   UNL     1       2.303   3.407  19.260  0.00  0.00    +0.000 HD
ENDBRANCH  10  15
ENDBRANCH   2  11
ENDBRANCH   1   5
BRANCH   1  17
ATOM     17  C   UNL     1       8.849   9.557  18.541  0.00  0.00    +0.000 C 
BRANCH  17  18
ATOM     18  C   UNL     1       9.359  10.927  18.181  0.00  0.00    +0.000 A 
ATOM     19  C   UNL     1      10.720  11.228  18.259  0.00  0.00    +0.000 A 
ATOM     20  C   UNL     1      11.175  12.514  17.952  0.00  0.00    +0.000 A 
ATOM     21  C   UNL     1      10.287  13.532  17.570  0.00  0.00    +0.000 A 
ATOM     22  C   UNL     1       8.924  13.220  17.519  0.00  0.00    +0.000 A 
ATOM     23  C   UNL     1       8.462  11.936  17.817  0.00  0.00    +0.000 A 
BRANCH  21  24
ATOM     24  N   UNL     1      10.818  14.767  17.169  0.00  0.00    +0.000 N 
ATOM     25  C   UNL     1      10.996  15.942  17.833  0.00  0.00    +0.000 C 
ATOM     26  N   UNL     1      10.429  16.073  19.062  0.00  0.00    +0.000 N 
ATOM     27  N   UNL     1      11.639  16.921  17.253  0.00  0.00    +0.000 NA
ATOM     28  H   UNL     1      11.197  14.780  16.230  0.00  0.00    +0.000 HD
ATOM     29  H   UNL     1       9.471  15.745  19.079  0.00  0.00    +0.000 HD
ATOM     30  H   UNL     1      10.498  17.044  19.349  0.00  0.00    +0.000 HD
BRANCH  27  31
ATOM     31  O   UNL     1      11.631  18.067  18.070  0.00  0.00    +0.000 OA
ATOM     32  H   UNL     1      11.289  17.711  18.912  0.00  0.00    +0.000 HD
ENDBRANCH  27  31
ENDBRANCH  21  24
ENDBRANCH  17  18
ENDBRANCH   1  17
TORSDOF 7
ENDMDL
MODEL 5
REMARK VINA RESULT:      -8.0      8.257     11.828
REMARK  Name = 
REMARK  7 active torsions:
REMARK  status: ('A' for Active; 'I' for Inactive)
REMARK    1  A    between atoms: N_3  and  O_4
REMARK    2  A    between atoms: N_5  and  C_6
REMARK    3  A    between atoms: C_9  and  C_10
REMARK    4  A    between atoms: C_10  and  C_11
REMARK    5  A    between atoms: C_11  and  C_12
REMARK    6  A    between atoms: C_15  and  N_16
REMARK    7  A    between atoms: N_19  and  O_20
REMARK                            x       y       z     vdW  Elec       q    Type
REMARK                         _______ _______ _______ _____ _____    ______ ____
ROOT
ATOM      1  C   UNL     1       0.722  10.068  19.341  0.00  0.00    +0.000 C 
ENDROOT
BRANCH   1   5
ATOM      2  C   UNL     1      -3.065  11.453  17.759  0.00  0.00    +0.000 A 
ATOM      3  C   UNL     1      -2.309  10.494  17.073  0.00  0.00    +0.000 A 
ATOM      4  C   UNL     1      -1.095  10.028  17.588  0.00  0.00    +0.000 A 
ATOM      5  C   UNL     1      -0.609  10.518  18.804  0.00  0.00    +0.000 A 
ATOM      6  C   UNL     1      -1.354  11.476  19.494  0.00  0.00    +0.000 A 
ATOM      7  C   UNL     1      -2.564  11.936  18.974  0.00  0.00    +0.000 A 
BRANCH   2  11
ATOM      8  N   UNL     1      -6.463  12.305  16.915  0.00  0.00    +0.000 N 
ATOM      9  C   UNL     1      -5.537  11.556  17.580  0.00  0.00    +0.000 C 
ATOM     10  N   UNL     1      -5.863  10.637  18.438  0.00  0.00    +0.000 NA
ATOM     11  N   UNL     1      -4.271  11.913  17.203  0.00  0.00    +0.000 N 
ATOM     12  H   UNL     1      -7.373  12.097  17.323  0.00  0.00    +0.000 HD
ATOM     13  H   UNL     1      -6.272  13.298  16.983  0.00  0.00    +0.000 HD
ATOM     14  H   UNL     1      -4.204  12.259  16.258  0.00  0.00    +0.000 HD
BRANCH  10  15
ATOM     15  O   UNL     1      -7.254  10.544  18.593  0.00  0.00    +0.000 OA
ATOM     16  H   UNL     1      -7.549  11.384  18.195  0.00  0.00    +0.000 HD
ENDBRANCH  10  15
ENDBRANCH   2  11
ENDBRANCH   1   5
BRANCH   1  17
ATOM     17  C   UNL     1       1.663   9.661  18.205  0.00  0.00    +0.000 C 
BRANCH  17  18
ATOM     18  C   UNL     1       2.235   8.290  18.452  0.00  0.00    +0.000 A 
ATOM     19  C   UNL     1       1.911   7.578  19.609  0.00  0.00    +0.000 A 
ATOM     20  C   UNL     1       2.475   6.320  19.841  0.00  0.00    +0.000 A 
ATOM     21  C   UNL     1       3.380   5.746  18.933  0.00  0.00    +0.000 A 
ATOM     22  C   UNL     1       3.711   6.483  17.792  0.00  0.00    +0.000 A 
ATOM     23  C   UNL     1       3.147   7.738  17.549  0.00  0.00    +0.000 A 
BRANCH  21  24
ATOM     24  N   UNL     1       3.824   4.436  19.171  0.00  0.00    +0.000 N 
ATOM     25  C   UNL     1       3.417   3.232  18.682  0.00  0.00    +0.000 C 
ATOM     26  N   UNL     1       2.268   3.194  17.955  0.00  0.00    +0.000 N 
ATOM     27  N   UNL     1       4.091   2.153  18.978  0.00  0.00    +0.000 NA
ATOM     28  H   UNL     1       4.637   4.367  19.770  0.00  0.00    +0.000 HD
ATOM     29  H   UNL     1       1.522   3.723  18.390  0.00  0.00    +0.000 HD
ATOM     30  H   UNL     1       2.006   2.224  17.813  0.00  0.00    +0.000 HD
BRANCH  27  31
ATOM     31  O   UNL     1       3.453   1.014  18.452  0.00  0.00    +0.000 OA
ATOM     32  H   UNL     1       3.916   0.901  17.600  0.00  0.00    +0.000 HD
ENDBRANCH  27  31
ENDBRANCH  21  24
ENDBRANCH  17  18
ENDBRANCH   1  17
TORSDOF 7
ENDMDL
MODEL 6
REMARK VINA RESULT:      -7.9      1.255      1.428
REMARK  Name = 
REMARK  7 active torsions:
REMARK  status: ('A' for Active; 'I' for Inactive)
REMARK    1  A    between atoms: N_3  and  O_4
REMARK    2  A    between atoms: N_5  and  C_6
REMARK    3  A    between atoms: C_9  and  C_10
REMARK    4  A    between atoms: C_10  and  C_11
REMARK    5  A    between atoms: C_11  and  C_12
REMARK    6  A    between atoms: C_15  and  N_16
REMARK    7  A    between atoms: N_19  and  O_20
REMARK                            x       y       z     vdW  Elec       q    Type
REMARK                         _______ _______ _______ _____ _____    ______ ____
ROOT
ATOM      1  C   UNL     1       8.030   8.689  17.545  0.00  0.00    +0.000 C 
ENDROOT
BRANCH   1   5
ATOM      2  C   UNL     1       6.072   4.883  18.210  0.00  0.00    +0.000 A 
ATOM      3  C   UNL     1       7.220   5.235  18.933  0.00  0.00    +0.000 A 
ATOM      4  C   UNL     1       7.845   6.471  18.737  0.00  0.00    +0.000 A 
ATOM      5  C   UNL     1       7.335   7.381  17.806  0.00  0.00    +0.000 A 
ATOM      6  C   UNL     1       6.193   7.039  17.080  0.00  0.00    +0.000 A 
ATOM      7  C   UNL     1       5.574   5.804  17.281  0.00  0.00    +0.000 A 
BRANCH   2  11
ATOM      8  N   UNL     1       4.052   1.899  18.267  0.00  0.00    +0.000 N 
ATOM      9  C   UNL     1       4.236   3.227  18.013  0.00  0.00    +0.000 C 
ATOM     10  N   UNL     1       3.321   3.970  17.467  0.00  0.00    +0.000 NA
ATOM     11  N   UNL     1       5.480   3.625  18.419  0.00  0.00    +0.000 N 
ATOM     12  H   UNL     1       3.174   1.625  17.831  0.00  0.00    +0.000 HD
ATOM     13  H   UNL     1       4.810   1.333  17.905  0.00  0.00    +0.000 HD
ATOM     14  H   UNL     1       5.847   3.103  19.199  0.00  0.00    +0.000 HD
BRANCH  10  15
ATOM     15  O   UNL     1       2.167   3.232  17.166  0.00  0.00    +0.000 OA
ATOM     16  H   UNL     1       2.545   2.460  16.706  0.00  0.00    +0.000 HD
ENDBRANCH  10  15
ENDBRANCH   2  11
ENDBRANCH   1   5
BRANCH   1  17
ATOM     17  C   UNL     1       8.882   9.108  18.745  0.00  0.00    +0.000 C 
BRANCH  17  18
ATOM     18  C   UNL     1       9.152  10.589  18.715  0.00  0.00    +0.000 A 
ATOM     19  C   UNL     1      10.038  11.173  19.623  0.00  0.00    +0.000 A 
ATOM     20  C   UNL     1      10.254  12.554  19.604  0.00  0.00    +0.000 A 
ATOM     21  C   UNL     1       9.588  13.386  18.690  0.00  0.00    +0.000 A 
ATOM     22  C   UNL     1       8.687  12.787  17.804  0.00  0.00    +0.000 A 
ATOM     23  C   UNL     1       8.470  11.407  17.811  0.00  0.00    +0.000 A 
BRANCH  21  24
ATOM     24  N   UNL     1       9.932  14.746  18.650  0.00  0.00    +0.000 N 
ATOM     25  C   UNL     1      10.470  15.523  17.670  0.00  0.00    +0.000 C 
ATOM     26  N   UNL     1      10.942  14.906  16.554  0.00  0.00    +0.000 N 
ATOM     27  N   UNL     1      10.580  16.812  17.855  0.00  0.00    +0.000 NA
ATOM     28  H   UNL     1       9.682  15.270  19.481  0.00  0.00    +0.000 HD
ATOM     29  H   UNL     1      11.505  14.093  16.775  0.00  0.00    +0.000 HD
ATOM     30  H   UNL     1      11.463  15.584  16.005  0.00  0.00    +0.000 HD
BRANCH  27  31
ATOM     31  O   UNL     1      11.241  17.411  16.766  0.00  0.00    +0.000 OA
ATOM     32  H   UNL     1      12.175  17.203  16.961  0.00  0.00    +0.000 HD
ENDBRANCH  27  31
ENDBRANCH  21  24
ENDBRANCH  17  18
ENDBRANCH   1  17
TORSDOF 7
ENDMDL
MODEL 7
REMARK VINA RESULT:      -7.9      8.261     11.600
REMARK  Name = 
REMARK  7 active torsions:
REMARK  status: ('A' for Active; 'I' for Inactive)
REMARK    1  A    between atoms: N_3  and  O_4
REMARK    2  A    between atoms: N_5  and  C_6
REMARK    3  A    between atoms: C_9  and  C_10
REMARK    4  A    between atoms: C_10  and  C_11
REMARK    5  A    between atoms: C_11  and  C_12
REMARK    6  A    between atoms: C_15  and  N_16
REMARK    7  A    between atoms: N_19  and  O_20
REMARK                            x       y       z     vdW  Elec       q    Type
REMARK                         _______ _______ _______ _____ _____    ______ ____
ROOT
ATOM      1  C   UNL     1       1.156  10.072  19.125  0.00  0.00    +0.000 C 
ENDROOT
BRANCH   1   5
ATOM      2  C   UNL     1      -2.608  11.407  17.448  0.00  0.00    +0.000 A 
ATOM      3  C   UNL     1      -1.865  12.240  18.295  0.00  0.00    +0.000 A 
ATOM      4  C   UNL     1      -0.639  11.823  18.824  0.00  0.00    +0.000 A 
ATOM      5  C   UNL     1      -0.132  10.556  18.518  0.00  0.00    +0.000 A 
ATOM      6  C   UNL     1      -0.867   9.718  17.677  0.00  0.00    +0.000 A 
ATOM      7  C   UNL     1      -2.089  10.141  17.153  0.00  0.00    +0.000 A 
BRANCH   2  11
ATOM      8  N   UNL     1      -6.051  12.228  16.773  0.00  0.00    +0.000 N 
ATOM      9  C   UNL     1      -5.087  11.495  17.400  0.00  0.00    +0.000 C 
ATOM     10  N   UNL     1      -5.361  10.588  18.289  0.00  0.00    +0.000 NA
ATOM     11  N   UNL     1      -3.845  11.852  16.949  0.00  0.00    +0.000 N 
ATOM     12  H   UNL     1      -6.937  12.022  17.232  0.00  0.00    +0.000 HD
ATOM     13  H   UNL     1      -5.863  13.222  16.814  0.00  0.00    +0.000 HD
ATOM     14  H   UNL     1      -3.830  12.181  15.997  0.00  0.00    +0.000 HD
BRANCH  10  15
ATOM     15  O   UNL     1      -6.741  10.491  18.519  0.00  0.00    +0.000 OA
ATOM     16  H   UNL     1      -7.044  10.059  17.699  0.00  0.00    +0.000 HD
ENDBRANCH  10  15
ENDBRANCH   2  11
ENDBRANCH   1   5
BRANCH   1  17
ATOM     17  C   UNL     1       2.052   9.425  18.068  0.00  0.00    +0.000 C 
BRANCH  17  18
ATOM     18  C   UNL     1       2.341   7.990  18.421  0.00  0.00    +0.000 A 
ATOM     19  C   UNL     1       2.026   7.487  19.685  0.00  0.00    +0.000 A 
ATOM     20  C   UNL     1       2.329   6.161  20.010  0.00  0.00    +0.000 A 
ATOM     21  C   UNL     1       2.961   5.309  19.090  0.00  0.00    +0.000 A 
ATOM     22  C   UNL     1       3.291   5.836  17.837  0.00  0.00    +0.000 A 
ATOM     23  C   UNL     1       2.985   7.158  17.502  0.00  0.00    +0.000 A 
BRANCH  21  24
ATOM     24  N   UNL     1       3.137   3.962  19.439  0.00  0.00    +0.000 N 
ATOM     25  C   UNL     1       4.254   3.201  19.607  0.00  0.00    +0.000 C 
ATOM     26  N   UNL     1       5.448   3.727  19.223  0.00  0.00    +0.000 N 
ATOM     27  N   UNL     1       4.143   1.981  20.061  0.00  0.00    +0.000 NA
ATOM     28  H   UNL     1       2.283   3.469  19.668  0.00  0.00    +0.000 HD
ATOM     29  H   UNL     1       5.397   4.168  18.312  0.00  0.00    +0.000 HD
ATOM     30  H   UNL     1       6.148   2.992  19.244  0.00  0.00    +0.000 HD
BRANCH  27  31
ATOM     31  O   UNL     1       5.398   1.343  20.072  0.00  0.00    +0.000 OA
ATOM     32  H   UNL     1       5.144   0.404  20.148  0.00  0.00    +0.000 HD
ENDBRANCH  27  31
ENDBRANCH  21  24
ENDBRANCH  17  18
ENDBRANCH   1  17
TORSDOF 7
ENDMDL
MODEL 8
REMARK VINA RESULT:      -7.9      1.317      1.704
REMARK  Name = 
REMARK  7 active torsions:
REMARK  status: ('A' for Active; 'I' for Inactive)
REMARK    1  A    between atoms: N_3  and  O_4
REMARK    2  A    between atoms: N_5  and  C_6
REMARK    3  A    between atoms: C_9  and  C_10
REMARK    4  A    between atoms: C_10  and  C_11
REMARK    5  A    between atoms: C_11  and  C_12
REMARK    6  A    between atoms: C_15  and  N_16
REMARK    7  A    between atoms: N_19  and  O_20
REMARK                            x       y       z     vdW  Elec       q    Type
REMARK                         _______ _______ _______ _____ _____    ______ ____
ROOT
ATOM      1  C   UNL     1       7.689   8.090  17.244  0.00  0.00    +0.000 C 
ENDROOT
BRANCH   1   5
ATOM      2  C   UNL     1       5.430   4.410  17.594  0.00  0.00    +0.000 A 
ATOM      3  C   UNL     1       6.764   4.476  18.018  0.00  0.00    +0.000 A 
ATOM      4  C   UNL     1       7.493   5.667  17.927  0.00  0.00    +0.000 A 
ATOM      5  C   UNL     1       6.900   6.819  17.402  0.00  0.00    +0.000 A 
ATOM      6  C   UNL     1       5.572   6.763  16.974  0.00  0.00    +0.000 A 
ATOM      7  C   UNL     1       4.851   5.572  17.069  0.00  0.00    +0.000 A 
BRANCH   2  11
ATOM      8  N   UNL     1       3.305   1.611  18.389  0.00  0.00    +0.000 N 
ATOM      9  C   UNL     1       3.922   2.786  18.707  0.00  0.00    +0.000 C 
ATOM     10  N   UNL     1       3.738   3.391  19.842  0.00  0.00    +0.000 NA
ATOM     11  N   UNL     1       4.733   3.193  17.683  0.00  0.00    +0.000 N 
ATOM     12  H   UNL     1       2.619   1.421  19.118  0.00  0.00    +0.000 HD
ATOM     13  H   UNL     1       2.848   1.651  17.486  0.00  0.00    +0.000 HD
ATOM     14  H   UNL     1       5.116   2.439  17.134  0.00  0.00    +0.000 HD
BRANCH  10  15
ATOM     15  O   UNL     1       2.828   2.699  20.655  0.00  0.00    +0.000 OA
ATOM     16  H   UNL     1       1.979   2.928  20.233  0.00  0.00    +0.000 HD
ENDBRANCH  10  15
ENDBRANCH   2  11
ENDBRANCH   1   5
BRANCH   1  17
ATOM     17  C   UNL     1       8.366   8.482  18.560  0.00  0.00    +0.000 C 
BRANCH  17  18
ATOM     18  C   UNL     1       8.813   9.920  18.520  0.00  0.00    +0.000 A 
ATOM     19  C   UNL     1       9.818  10.380  19.373  0.00  0.00    +0.000 A 
ATOM     20  C   UNL     1      10.201  11.724  19.346  0.00  0.00    +0.000 A 
ATOM     21  C   UNL     1       9.587  12.643  18.479  0.00  0.00    +0.000 A 
ATOM     22  C   UNL     1       8.566  12.170  17.649  0.00  0.00    +0.000 A 
ATOM     23  C   UNL     1       8.182  10.826  17.664  0.00  0.00    +0.000 A 
BRANCH  21  24
ATOM     24  N   UNL     1      10.092  13.951  18.425  0.00  0.00    +0.000 N 
ATOM     25  C   UNL     1      10.702  14.653  17.430  0.00  0.00    +0.000 C 
ATOM     26  N   UNL     1      11.074  13.979  16.309  0.00  0.00    +0.000 N 
ATOM     27  N   UNL     1      10.970  15.920  17.604  0.00  0.00    +0.000 NA
ATOM     28  H   UNL     1       9.924  14.505  19.256  0.00  0.00    +0.000 HD
ATOM     29  H   UNL     1      11.538  13.104  16.525  0.00  0.00    +0.000 HD
ATOM     30  H   UNL     1      11.662  14.585  15.746  0.00  0.00    +0.000 HD
BRANCH  27  31
ATOM     31  O   UNL     1      11.678  16.429  16.499  0.00  0.00    +0.000 OA
ATOM     32  H   UNL     1      12.545  16.638  16.896  0.00  0.00    +0.000 HD
ENDBRANCH  27  31
ENDBRANCH  21  24
ENDBRANCH  17  18
ENDBRANCH   1  17
TORSDOF 7
ENDMDL
MODEL 9
REMARK VINA RESULT:      -7.9      1.069      1.644
REMARK  Name = 
REMARK  7 active torsions:
REMARK  status: ('A' for Active; 'I' for Inactive)
REMARK    1  A    between atoms: N_3  and  O_4
REMARK    2  A    between atoms: N_5  and  C_6
REMARK    3  A    between atoms: C_9  and  C_10
REMARK    4  A    between atoms: C_10  and  C_11
REMARK    5  A    between atoms: C_11  and  C_12
REMARK    6  A    between atoms: C_15  and  N_16
REMARK    7  A    between atoms: N_19  and  O_20
REMARK                            x       y       z     vdW  Elec       q    Type
REMARK                         _______ _______ _______ _____ _____    ______ ____
ROOT
ATOM      1  C   UNL     1       7.877   8.463  17.424  0.00  0.00    +0.000 C 
ENDROOT
BRANCH   1   5
ATOM      2  C   UNL     1       5.903   4.659  18.053  0.00  0.00    +0.000 A 
ATOM      3  C   UNL     1       5.410   5.577  17.116  0.00  0.00    +0.000 A 
ATOM      4  C   UNL     1       6.054   6.799  16.894  0.00  0.00    +0.000 A 
ATOM      5  C   UNL     1       7.208   7.130  17.611  0.00  0.00    +0.000 A 
ATOM      6  C   UNL     1       7.706   6.223  18.548  0.00  0.00    +0.000 A 
ATOM      7  C   UNL     1       7.058   5.005  18.764  0.00  0.00    +0.000 A 
BRANCH   2  11
ATOM      8  N   UNL     1       3.654   1.982  18.925  0.00  0.00    +0.000 N 
ATOM      9  C   UNL     1       4.138   3.249  19.076  0.00  0.00    +0.000 C 
ATOM     10  N   UNL     1       3.613   4.108  19.898  0.00  0.00    +0.000 NA
ATOM     11  N   UNL     1       5.220   3.449  18.264  0.00  0.00    +0.000 N 
ATOM     12  H   UNL     1       2.781   1.927  19.446  0.00  0.00    +0.000 HD
ATOM     13  H   UNL     1       3.495   1.748  17.953  0.00  0.00    +0.000 HD
ATOM     14  H   UNL     1       5.756   2.616  18.077  0.00  0.00    +0.000 HD
BRANCH  10  15
ATOM     15  O   UNL     1       2.504   3.571  20.568  0.00  0.00    +0.000 OA
ATOM     16  H   UNL     1       1.789   3.745  19.927  0.00  0.00    +0.000 HD
ENDBRANCH  10  15
ENDBRANCH   2  11
ENDBRANCH   1   5
BRANCH   1  17
ATOM     17  C   UNL     1       8.682   8.853  18.666  0.00  0.00    +0.000 C 
BRANCH  17  18
ATOM     18  C   UNL     1       9.026  10.319  18.640  0.00  0.00    +0.000 A 
ATOM     19  C   UNL     1       9.956  10.852  19.535  0.00  0.00    +0.000 A 
ATOM     20  C   UNL     1      10.241  12.220  19.519  0.00  0.00    +0.000 A 
ATOM     21  C   UNL     1       9.603  13.090  18.621  0.00  0.00    +0.000 A 
ATOM     22  C   UNL     1       8.657  12.543  17.747  0.00  0.00    +0.000 A 
ATOM     23  C   UNL     1       8.371  11.176  17.752  0.00  0.00    +0.000 A 
BRANCH  21  24
ATOM     24  N   UNL     1      10.014  14.431  18.582  0.00  0.00    +0.000 N 
ATOM     25  C   UNL     1      10.583  15.184  17.600  0.00  0.00    +0.000 C 
ATOM     26  N   UNL     1      11.014  14.547  16.478  0.00  0.00    +0.000 N 
ATOM     27  N   UNL     1      10.759  16.465  17.787  0.00  0.00    +0.000 NA
ATOM     28  H   UNL     1       9.798  14.964  19.416  0.00  0.00    +0.000 HD
ATOM     29  H   UNL     1      11.537  13.706  16.692  0.00  0.00    +0.000 HD
ATOM     30  H   UNL     1      11.564  15.199  15.927  0.00  0.00    +0.000 HD
BRANCH  27  31
ATOM     31  O   UNL     1      11.441  17.033  16.695  0.00  0.00    +0.000 OA
ATOM     32  H   UNL     1      10.739  17.066  16.016  0.00  0.00    +0.000 HD
ENDBRANCH  27  31
ENDBRANCH  21  24
ENDBRANCH  17  18
ENDBRANCH   1  17
TORSDOF 7
ENDMDL
