MODEL 1
REMARK VINA RESULT:      -7.0      0.000      0.000
REMARK  Name = 
REMARK  5 active torsions:
REMARK  status: ('A' for Active; 'I' for Inactive)
REMARK    1  A    between atoms: C_1  and  C_2
REMARK    2  A    between atoms: C_8  and  C_9
REMARK    3  A    between atoms: C_19  and  N_20
REMARK    4  A    between atoms: N_20  and  S_21
REMARK    5  A    between atoms: S_21  and  C_22
REMARK                            x       y       z     vdW  Elec       q    Type
REMARK                         _______ _______ _______ _____ _____    ______ ____
ROOT
ATOM      1  C   UNL     1      -1.205  12.047  20.692  0.00  0.00    +0.000 C 
ATOM      2  O   UNL     1      -0.297  11.379  21.221  0.00  0.00    +0.000 OA
ATOM      3  N   UNL     1      -1.680  13.154  21.376  0.00  0.00    +0.000 N 
ATOM      4  C   UNL     1      -1.247  13.168  22.770  0.00  0.00    +0.000 C 
ATOM      5  C   UNL     1      -2.416  13.362  23.714  0.00  0.00    +0.000 C 
ATOM      6  C   UNL     1      -3.547  14.177  23.112  0.00  0.00    +0.000 A 
ATOM      7  C   UNL     1      -3.110  15.077  22.134  0.00  0.00    +0.000 A 
ATOM      8  C   UNL     1      -3.333  16.426  22.440  0.00  0.00    +0.000 A 
ATOM      9  C   UNL     1      -4.103  16.777  23.581  0.00  0.00    +0.000 A 
ATOM     10  C   UNL     1      -4.807  15.803  24.303  0.00  0.00    +0.000 A 
ATOM     11  C   UNL     1      -4.575  14.479  24.001  0.00  0.00    +0.000 A 
ATOM     12  C   UNL     1      -2.315  14.456  20.964  0.00  0.00    +0.000 C 
ENDROOT
BRANCH   1  20
ATOM     13  C   UNL     1      -5.329  12.082  16.852  0.00  0.00    +0.000 C 
ATOM     14  C   UNL     1      -4.158  11.213  16.610  0.00  0.00    +0.000 A 
ATOM     15  N   UNL     1      -3.972  10.492  15.517  0.00  0.00    +0.000 NA
ATOM     16  C   UNL     1      -2.754   9.895  15.669  0.00  0.00    +0.000 A 
ATOM     17  C   UNL     1      -2.192  10.251  16.870  0.00  0.00    +0.000 A 
ATOM     18  C   UNL     1      -0.975   9.981  17.531  0.00  0.00    +0.000 A 
ATOM     19  C   UNL     1      -0.774  10.513  18.747  0.00  0.00    +0.000 A 
ATOM     20  C   UNL     1      -1.749  11.403  19.439  0.00  0.00    +0.000 A 
ATOM     21  C   UNL     1      -2.897  11.658  18.781  0.00  0.00    +0.000 A 
ATOM     22  N   UNL     1      -3.108  11.084  17.507  0.00  0.00    +0.000 N 
ENDBRANCH   1  20
BRANCH  11  23
ATOM     23  N   UNL     1      -5.371  13.405  24.545  0.00  0.00    +0.000 N 
ATOM     24  H   UNL     1      -4.837  12.532  24.633  0.00  0.00    +0.000 HD
BRANCH  23  25
ATOM     25  S   UNL     1      -6.755  12.987  23.626  0.00  0.00    +0.000 S 
ATOM     26  C   UNL     1      -7.913  14.161  24.298  0.00  0.00    +0.000 C 
ATOM     27  O   UNL     1      -6.530  13.282  22.231  0.00  0.00    +0.000 OA
ATOM     28  O   UNL     1      -7.136  11.667  24.091  0.00  0.00    +0.000 OA
ENDBRANCH  23  25
ENDBRANCH  11  23
TORSDOF 3
ENDMDL
MODEL 2
REMARK VINA RESULT:      -6.9      5.583      8.033
REMARK  Name = 
REMARK  5 active torsions:
REMARK  status: ('A' for Active; 'I' for Inactive)
REMARK    1  A    between atoms: C_1  and  C_2
REMARK    2  A    between atoms: C_8  and  C_9
REMARK    3  A    between atoms: C_19  and  N_20
REMARK    4  A    between atoms: N_20  and  S_21
REMARK    5  A    between atoms: S_21  and  C_22
REMARK                            x       y       z     vdW  Elec       q    Type
REMARK                         _______ _______ _______ _____ _____    ______ ____
ROOT
ATOM      1  C   UNL     1       3.193   7.754  17.597  0.00  0.00    +0.000 C 
ATOM      2  O   UNL     1       4.312   8.229  17.330  0.00  0.00    +0.000 OA
ATOM      3  N   UNL     1       2.119   8.626  17.677  0.00  0.00    +0.000 N 
ATOM      4  C   UNL     1       2.546  10.020  17.747  0.00  0.00    +0.000 C 
ATOM      5  C   UNL     1       1.902  10.742  18.913  0.00  0.00    +0.000 C 
ATOM      6  C   UNL     1       0.530  10.199  19.273  0.00  0.00    +0.000 A 
ATOM      7  C   UNL     1      -0.132   9.624  18.183  0.00  0.00    +0.000 A 
ATOM      8  C   UNL     1      -1.328  10.258  17.823  0.00  0.00    +0.000 A 
ATOM      9  C   UNL     1      -1.861  11.286  18.647  0.00  0.00    +0.000 A 
ATOM     10  C   UNL     1      -1.319  11.550  19.912  0.00  0.00    +0.000 A 
ATOM     11  C   UNL     1      -0.138  10.928  20.254  0.00  0.00    +0.000 A 
ATOM     12  C   UNL     1       0.635   8.496  17.458  0.00  0.00    +0.000 C 
ENDROOT
BRANCH   1  20
ATOM     13  C   UNL     1       0.729   3.560  20.443  0.00  0.00    +0.000 C 
ATOM     14  C   UNL     1       1.844   3.224  19.533  0.00  0.00    +0.000 A 
ATOM     15  N   UNL     1       2.264   1.995  19.281  0.00  0.00    +0.000 NA
ATOM     16  C   UNL     1       3.256   2.124  18.353  0.00  0.00    +0.000 A 
ATOM     17  C   UNL     1       3.448   3.446  18.038  0.00  0.00    +0.000 A 
ATOM     18  C   UNL     1       4.282   4.159  17.149  0.00  0.00    +0.000 A 
ATOM     19  C   UNL     1       4.198   5.498  17.125  0.00  0.00    +0.000 A 
ATOM     20  C   UNL     1       3.252   6.289  17.962  0.00  0.00    +0.000 A 
ATOM     21  C   UNL     1       2.455   5.586  18.791  0.00  0.00    +0.000 A 
ATOM     22  N   UNL     1       2.558   4.177  18.820  0.00  0.00    +0.000 N 
ENDBRANCH   1  20
BRANCH  11  23
ATOM     23  N   UNL     1       0.412  10.978  21.586  0.00  0.00    +0.000 N 
ATOM     24  H   UNL     1       1.420  10.782  21.599  0.00  0.00    +0.000 HD
BRANCH  23  25
ATOM     25  S   UNL     1      -0.268   9.867  22.698  0.00  0.00    +0.000 S 
ATOM     26  C   UNL     1      -1.614  10.860  23.312  0.00  0.00    +0.000 C 
ATOM     27  O   UNL     1      -0.799   8.725  21.993  0.00  0.00    +0.000 OA
ATOM     28  O   UNL     1       0.713   9.740  23.759  0.00  0.00    +0.000 OA
ENDBRANCH  23  25
ENDBRANCH  11  23
TORSDOF 3
ENDMDL
MODEL 3
REMARK VINA RESULT:      -6.8      4.131      5.964
REMARK  Name = 
REMARK  5 active torsions:
REMARK  status: ('A' for Active; 'I' for Inactive)
REMARK    1  A    between atoms: C_1  and  C_2
REMARK    2  A    between atoms: C_8  and  C_9
REMARK    3  A    between atoms: C_19  and  N_20
REMARK    4  A    between atoms: N_20  and  S_21
REMARK    5  A    between atoms: S_21  and  C_22
REMARK                            x       y       z     vdW  Elec       q    Type
REMARK                         _______ _______ _______ _____ _____    ______ ____
ROOT
ATOM      1  C   UNL     1       1.312  10.618  18.378  0.00  0.00    +0.000 C 
ATOM      2  O   UNL     1       2.269  11.390  18.182  0.00  0.00    +0.000 OA
ATOM      3  N   UNL     1       0.052  11.172  18.536  0.00  0.00    +0.000 N 
ATOM      4  C   UNL     1       0.108  12.612  18.764  0.00  0.00    +0.000 C 
ATOM      5  C   UNL     1      -0.685  13.013  19.991  0.00  0.00    +0.000 C 
ATOM      6  C   UNL     1      -1.867  12.101  20.268  0.00  0.00    +0.000 A 
ATOM      7  C   UNL     1      -2.373  11.497  19.112  0.00  0.00    +0.000 A 
ATOM      8  C   UNL     1      -3.696  11.839  18.805  0.00  0.00    +0.000 A 
ATOM      9  C   UNL     1      -4.464  12.600  19.727  0.00  0.00    +0.000 A 
ATOM     10  C   UNL     1      -3.992  12.854  21.022  0.00  0.00    +0.000 A 
ATOM     11  C   UNL     1      -2.687  12.522  21.312  0.00  0.00    +0.000 A 
ATOM     12  C   UNL     1      -1.351  10.690  18.280  0.00  0.00    +0.000 C 
ENDROOT
BRANCH   1  20
ATOM     13  C   UNL     1       4.661   6.469  16.555  0.00  0.00    +0.000 C 
ATOM     14  C   UNL     1       3.926   6.266  17.820  0.00  0.00    +0.000 A 
ATOM     15  N   UNL     1       4.050   5.204  18.600  0.00  0.00    +0.000 NA
ATOM     16  C   UNL     1       3.255   5.441  19.682  0.00  0.00    +0.000 A 
ATOM     17  C   UNL     1       2.632   6.659  19.561  0.00  0.00    +0.000 A 
ATOM     18  C   UNL     1       1.753   7.424  20.358  0.00  0.00    +0.000 A 
ATOM     19  C   UNL     1       1.328   8.608  19.889  0.00  0.00    +0.000 A 
ATOM     20  C   UNL     1       1.750   9.187  18.582  0.00  0.00    +0.000 A 
ATOM     21  C   UNL     1       2.602   8.445  17.846  0.00  0.00    +0.000 A 
ATOM     22  N   UNL     1       3.035   7.194  18.341  0.00  0.00    +0.000 N 
ENDBRANCH   1  20
BRANCH  11  23
ATOM     23  N   UNL     1      -2.151  12.566  22.651  0.00  0.00    +0.000 N 
ATOM     24  H   UNL     1      -2.732  12.047  23.320  0.00  0.00    +0.000 HD
BRANCH  23  25
ATOM     25  S   UNL     1      -1.996  14.134  23.322  0.00  0.00    +0.000 S 
ATOM     26  C   UNL     1      -3.385  14.108  24.438  0.00  0.00    +0.000 C 
ATOM     27  O   UNL     1      -0.773  14.228  24.083  0.00  0.00    +0.000 OA
ATOM     28  O   UNL     1      -2.311  15.045  22.238  0.00  0.00    +0.000 OA
ENDBRANCH  23  25
ENDBRANCH  11  23
TORSDOF 3
ENDMDL
MODEL 4
REMARK VINA RESULT:      -6.8      7.735     12.105
REMARK  Name = 
REMARK  5 active torsions:
REMARK  status: ('A' for Active; 'I' for Inactive)
REMARK    1  A    between atoms: C_1  and  C_2
REMARK    2  A    between atoms: C_8  and  C_9
REMARK    3  A    between atoms: C_19  and  N_20
REMARK    4  A    between atoms: N_20  and  S_21
REMARK    5  A    between atoms: S_21  and  C_22
REMARK                            x       y       z     vdW  Elec       q    Type
REMARK                         _______ _______ _______ _____ _____    ______ ____
ROOT
ATOM      1  C   UNL     1       2.214   5.636  20.140  0.00  0.00    +0.000 C 
ATOM      2  O   UNL     1       2.131   5.064  21.243  0.00  0.00    +0.000 OA
ATOM      3  N   UNL     1       2.948   5.018  19.141  0.00  0.00    +0.000 N 
ATOM      4  C   UNL     1       3.778   3.934  19.657  0.00  0.00    +0.000 C 
ATOM      5  C   UNL     1       5.219   4.075  19.212  0.00  0.00    +0.000 C 
ATOM      6  C   UNL     1       5.369   4.765  17.868  0.00  0.00    +0.000 A 
ATOM      7  C   UNL     1       4.257   4.589  17.038  0.00  0.00    +0.000 A 
ATOM      8  C   UNL     1       4.519   3.901  15.846  0.00  0.00    +0.000 A 
ATOM      9  C   UNL     1       5.857   3.590  15.487  0.00  0.00    +0.000 A 
ATOM     10  C   UNL     1       6.939   4.123  16.202  0.00  0.00    +0.000 A 
ATOM     11  C   UNL     1       6.672   4.791  17.376  0.00  0.00    +0.000 A 
ATOM     12  C   UNL     1       2.903   5.033  17.636  0.00  0.00    +0.000 C 
ENDROOT
BRANCH   1  20
ATOM     13  C   UNL     1      -0.212   9.623  23.297  0.00  0.00    +0.000 C 
ATOM     14  C   UNL     1       0.172   9.969  21.913  0.00  0.00    +0.000 A 
ATOM     15  N   UNL     1       0.053  11.173  21.378  0.00  0.00    +0.000 NA
ATOM     16  C   UNL     1       0.574  11.075  20.121  0.00  0.00    +0.000 A 
ATOM     17  C   UNL     1       1.012   9.796  19.882  0.00  0.00    +0.000 A 
ATOM     18  C   UNL     1       1.648   9.133  18.811  0.00  0.00    +0.000 A 
ATOM     19  C   UNL     1       1.920   7.824  18.936  0.00  0.00    +0.000 A 
ATOM     20  C   UNL     1       1.618   7.024  20.157  0.00  0.00    +0.000 A 
ATOM     21  C   UNL     1       1.024   7.682  21.172  0.00  0.00    +0.000 A 
ATOM     22  N   UNL     1       0.729   9.057  21.027  0.00  0.00    +0.000 N 
ENDBRANCH   1  20
BRANCH  11  23
ATOM     23  N   UNL     1       7.678   5.535  18.096  0.00  0.00    +0.000 N 
ATOM     24  H   UNL     1       7.530   5.508  19.111  0.00  0.00    +0.000 HD
BRANCH  23  25
ATOM     25  S   UNL     1       7.769   7.201  17.706  0.00  0.00    +0.000 S 
ATOM     26  C   UNL     1       6.039   7.615  17.806  0.00  0.00    +0.000 C 
ATOM     27  O   UNL     1       8.491   7.910  18.735  0.00  0.00    +0.000 OA
ATOM     28  O   UNL     1       8.159   7.245  16.310  0.00  0.00    +0.000 OA
ENDBRANCH  23  25
ENDBRANCH  11  23
TORSDOF 3
ENDMDL
MODEL 5
REMARK VINA RESULT:      -6.8      3.920      5.764
REMARK  Name = 
REMARK  5 active torsions:
REMARK  status: ('A' for Active; 'I' for Inactive)
REMARK    1  A    between atoms: C_1  and  C_2
REMARK    2  A    between atoms: C_8  and  C_9
REMARK    3  A    between atoms: C_19  and  N_20
REMARK    4  A    between atoms: N_20  and  S_21
REMARK    5  A    between atoms: S_21  and  C_22
REMARK                            x       y       z     vdW  Elec       q    Type
REMARK                         _______ _______ _______ _____ _____    ______ ____
ROOT
ATOM      1  C   UNL     1       1.000  10.805  18.438  0.00  0.00    +0.000 C 
ATOM      2  O   UNL     1       1.940  11.613  18.321  0.00  0.00    +0.000 OA
ATOM      3  N   UNL     1      -0.289  11.310  18.480  0.00  0.00    +0.000 N 
ATOM      4  C   UNL     1      -0.309  12.753  18.701  0.00  0.00    +0.000 C 
ATOM      5  C   UNL     1      -1.223  13.129  19.850  0.00  0.00    +0.000 C 
ATOM      6  C   UNL     1      -2.389  12.172  20.029  0.00  0.00    +0.000 A 
ATOM      7  C   UNL     1      -2.767  11.544  18.838  0.00  0.00    +0.000 A 
ATOM      8  C   UNL     1      -4.069  11.832  18.412  0.00  0.00    +0.000 A 
ATOM      9  C   UNL     1      -4.945  12.567  19.257  0.00  0.00    +0.000 A 
ATOM     10  C   UNL     1      -4.599  12.845  20.586  0.00  0.00    +0.000 A 
ATOM     11  C   UNL     1      -3.313  12.566  20.993  0.00  0.00    +0.000 A 
ATOM     12  C   UNL     1      -1.645  10.773  18.106  0.00  0.00    +0.000 C 
ENDROOT
BRANCH   1  20
ATOM     13  C   UNL     1       4.423   6.665  16.735  0.00  0.00    +0.000 C 
ATOM     14  C   UNL     1       3.706   6.495  18.017  0.00  0.00    +0.000 A 
ATOM     15  N   UNL     1       3.864   5.467  18.835  0.00  0.00    +0.000 NA
ATOM     16  C   UNL     1       3.075   5.728  19.916  0.00  0.00    +0.000 A 
ATOM     17  C   UNL     1       2.423   6.926  19.757  0.00  0.00    +0.000 A 
ATOM     18  C   UNL     1       1.536   7.701  20.534  0.00  0.00    +0.000 A 
ATOM     19  C   UNL     1       1.078   8.856  20.025  0.00  0.00    +0.000 A 
ATOM     20  C   UNL     1       1.473   9.393  18.692  0.00  0.00    +0.000 A 
ATOM     21  C   UNL     1       2.333   8.643  17.975  0.00  0.00    +0.000 A 
ATOM     22  N   UNL     1       2.801   7.422  18.512  0.00  0.00    +0.000 N 
ENDBRANCH   1  20
BRANCH  11  23
ATOM     23  N   UNL     1      -2.899  12.637  22.374  0.00  0.00    +0.000 N 
ATOM     24  H   UNL     1      -3.487  12.060  22.986  0.00  0.00    +0.000 HD
BRANCH  23  25
ATOM     25  S   UNL     1      -2.942  14.203  23.067  0.00  0.00    +0.000 S 
ATOM     26  C   UNL     1      -1.332  14.224  23.830  0.00  0.00    +0.000 C 
ATOM     27  O   UNL     1      -2.991  15.203  22.027  0.00  0.00    +0.000 OA
ATOM     28  O   UNL     1      -3.935  14.126  24.121  0.00  0.00    +0.000 OA
ENDBRANCH  23  25
ENDBRANCH  11  23
TORSDOF 3
ENDMDL
MODEL 6
REMARK VINA RESULT:      -6.8      5.530      8.054
REMARK  Name = 
REMARK  5 active torsions:
REMARK  status: ('A' for Active; 'I' for Inactive)
REMARK    1  A    between atoms: C_1  and  C_2
REMARK    2  A    between atoms: C_8  and  C_9
REMARK    3  A    between atoms: C_19  and  N_20
REMARK    4  A    between atoms: N_20  and  S_21
REMARK    5  A    between atoms: S_21  and  C_22
REMARK                            x       y       z     vdW  Elec       q    Type
REMARK                         _______ _______ _______ _____ _____    ______ ____
ROOT
ATOM      1  C   UNL     1       3.077   7.982  17.667  0.00  0.00    +0.000 C 
ATOM      2  O   UNL     1       4.180   8.503  17.417  0.00  0.00    +0.000 OA
ATOM      3  N   UNL     1       1.969   8.811  17.744  0.00  0.00    +0.000 N 
ATOM      4  C   UNL     1       2.341  10.220  17.832  0.00  0.00    +0.000 C 
ATOM      5  C   UNL     1       1.656  10.905  18.997  0.00  0.00    +0.000 C 
ATOM      6  C   UNL     1       0.302  10.305  19.337  0.00  0.00    +0.000 A 
ATOM      7  C   UNL     1      -0.325   9.716  18.234  0.00  0.00    +0.000 A 
ATOM      8  C   UNL     1      -1.540  10.306  17.867  0.00  0.00    +0.000 A 
ATOM      9  C   UNL     1      -2.122  11.304  18.694  0.00  0.00    +0.000 A 
ATOM     10  C   UNL     1      -1.604  11.577  19.968  0.00  0.00    +0.000 A 
ATOM     11  C   UNL     1      -0.404  10.998  20.317  0.00  0.00    +0.000 A 
ATOM     12  C   UNL     1       0.494   8.626  17.507  0.00  0.00    +0.000 C 
ENDROOT
BRANCH   1  20
ATOM     13  C   UNL     1       0.783   3.683  20.498  0.00  0.00    +0.000 C 
ATOM     14  C   UNL     1       1.901   3.393  19.575  0.00  0.00    +0.000 A 
ATOM     15  N   UNL     1       2.360   2.181  19.309  0.00  0.00    +0.000 NA
ATOM     16  C   UNL     1       3.338   2.352  18.374  0.00  0.00    +0.000 A 
ATOM     17  C   UNL     1       3.483   3.683  18.069  0.00  0.00    +0.000 A 
ATOM     18  C   UNL     1       4.284   4.430  17.179  0.00  0.00    +0.000 A 
ATOM     19  C   UNL     1       4.155   5.766  17.167  0.00  0.00    +0.000 A 
ATOM     20  C   UNL     1       3.189   6.517  18.019  0.00  0.00    +0.000 A 
ATOM     21  C   UNL     1       2.424   5.781  18.849  0.00  0.00    +0.000 A 
ATOM     22  N   UNL     1       2.576   4.375  18.865  0.00  0.00    +0.000 N 
ENDBRANCH   1  20
BRANCH  11  23
ATOM     23  N   UNL     1       0.130  11.056  21.656  0.00  0.00    +0.000 N 
ATOM     24  H   UNL     1       1.112  11.354  21.671  0.00  0.00    +0.000 HD
BRANCH  23  25
ATOM     25  S   UNL     1       0.104   9.575  22.516  0.00  0.00    +0.000 S 
ATOM     26  C   UNL     1       1.752   9.003  22.154  0.00  0.00    +0.000 C 
ATOM     27  O   UNL     1      -0.014   9.828  23.932  0.00  0.00    +0.000 OA
ATOM     28  O   UNL     1      -0.831   8.732  21.795  0.00  0.00    +0.000 OA
ENDBRANCH  23  25
ENDBRANCH  11  23
TORSDOF 3
ENDMDL
MODEL 7
REMARK VINA RESULT:      -6.6      3.256      4.406
REMARK  Name = 
REMARK  5 active torsions:
REMARK  status: ('A' for Active; 'I' for Inactive)
REMARK    1  A    between atoms: C_1  and  C_2
REMARK    2  A    between atoms: C_8  and  C_9
REMARK    3  A    between atoms: C_19  and  N_20
REMARK    4  A    between atoms: N_20  and  S_21
REMARK    5  A    between atoms: S_21  and  C_22
REMARK                            x       y       z     vdW  Elec       q    Type
REMARK                         _______ _______ _______ _____ _____    ______ ____
ROOT
ATOM      1  C   UNL     1      -0.040  10.703  22.255  0.00  0.00    +0.000 C 
ATOM      2  O   UNL     1      -0.095  10.084  23.333  0.00  0.00    +0.000 OA
ATOM      3  N   UNL     1      -0.791  11.861  22.131  0.00  0.00    +0.000 N 
ATOM      4  C   UNL     1      -1.782  11.991  23.194  0.00  0.00    +0.000 C 
ATOM      5  C   UNL     1      -3.165  12.257  22.635  0.00  0.00    +0.000 C 
ATOM      6  C   UNL     1      -3.148  13.015  21.319  0.00  0.00    +0.000 A 
ATOM      7  C   UNL     1      -2.023  13.834  21.177  0.00  0.00    +0.000 A 
ATOM      8  C   UNL     1      -2.304  15.202  21.075  0.00  0.00    +0.000 A 
ATOM      9  C   UNL     1      -3.649  15.643  20.954  0.00  0.00    +0.000 A 
ATOM     10  C   UNL     1      -4.690  14.729  20.741  0.00  0.00    +0.000 A 
ATOM     11  C   UNL     1      -4.406  13.386  20.852  0.00  0.00    +0.000 A 
ATOM     12  C   UNL     1      -0.659  13.122  21.318  0.00  0.00    +0.000 C 
ENDROOT
BRANCH   1  20
ATOM     13  C   UNL     1       2.105   5.734  20.687  0.00  0.00    +0.000 C 
ATOM     14  C   UNL     1       2.122   6.841  19.707  0.00  0.00    +0.000 A 
ATOM     15  N   UNL     1       2.541   6.731  18.457  0.00  0.00    +0.000 NA
ATOM     16  C   UNL     1       2.331   7.952  17.886  0.00  0.00    +0.000 A 
ATOM     17  C   UNL     1       1.783   8.820  18.798  0.00  0.00    +0.000 A 
ATOM     18  C   UNL     1       1.334  10.158  18.772  0.00  0.00    +0.000 A 
ATOM     19  C   UNL     1       0.852  10.696  19.903  0.00  0.00    +0.000 A 
ATOM     20  C   UNL     1       0.731   9.956  21.192  0.00  0.00    +0.000 A 
ATOM     21  C   UNL     1       1.150   8.675  21.188  0.00  0.00    +0.000 A 
ATOM     22  N   UNL     1       1.669   8.120  19.996  0.00  0.00    +0.000 N 
ENDBRANCH   1  20
BRANCH  11  23
ATOM     23  N   UNL     1      -5.345  12.357  20.476  0.00  0.00    +0.000 N 
ATOM     24  H   UNL     1      -5.612  12.415  19.486  0.00  0.00    +0.000 HD
BRANCH  23  25
ATOM     25  S   UNL     1      -6.828  12.375  21.335  0.00  0.00    +0.000 S 
ATOM     26  C   UNL     1      -7.505  10.826  20.773  0.00  0.00    +0.000 C 
ATOM     27  O   UNL     1      -6.577  12.299  22.755  0.00  0.00    +0.000 OA
ATOM     28  O   UNL     1      -7.602  13.445  20.737  0.00  0.00    +0.000 OA
ENDBRANCH  23  25
ENDBRANCH  11  23
TORSDOF 3
ENDMDL
MODEL 8
REMARK VINA RESULT:      -6.6      7.095     11.291
REMARK  Name = 
REMARK  5 active torsions:
REMARK  status: ('A' for Active; 'I' for Inactive)
REMARK    1  A    between atoms: C_1  and  C_2
REMARK    2  A    between atoms: C_8  and  C_9
REMARK    3  A    between atoms: C_19  and  N_20
REMARK    4  A    between atoms: N_20  and  S_21
REMARK    5  A    between atoms: S_21  and  C_22
REMARK                            x       y       z     vdW  Elec       q    Type
REMARK                         _______ _______ _______ _____ _____    ______ ____
ROOT
ATOM      1  C   UNL     1       1.307   7.757  20.378  0.00  0.00    +0.000 C 
ATOM      2  O   UNL     1       1.124   7.738  21.610  0.00  0.00    +0.000 OA
ATOM      3  N   UNL     1       1.650   6.569  19.754  0.00  0.00    +0.000 N 
ATOM      4  C   UNL     1       2.055   5.542  20.708  0.00  0.00    +0.000 C 
ATOM      5  C   UNL     1       3.391   4.931  20.337  0.00  0.00    +0.000 C 
ATOM      6  C   UNL     1       3.657   4.929  18.842  0.00  0.00    +0.000 A 
ATOM      7  C   UNL     1       2.484   4.889  18.080  0.00  0.00    +0.000 A 
ATOM      8  C   UNL     1       2.347   3.750  17.277  0.00  0.00    +0.000 A 
ATOM      9  C   UNL     1       3.426   2.833  17.156  0.00  0.00    +0.000 A 
ATOM     10  C   UNL     1       4.694   3.140  17.669  0.00  0.00    +0.000 A 
ATOM     11  C   UNL     1       4.817   4.258  18.464  0.00  0.00    +0.000 A 
ATOM     12  C   UNL     1       1.465   6.015  18.366  0.00  0.00    +0.000 C 
ENDROOT
BRANCH   1  20
ATOM     13  C   UNL     1       0.353  13.208  21.445  0.00  0.00    +0.000 C 
ATOM     14  C   UNL     1       0.942  12.845  20.138  0.00  0.00    +0.000 A 
ATOM     15  N   UNL     1       1.331  13.717  19.222  0.00  0.00    +0.000 NA
ATOM     16  C   UNL     1       1.868  12.977  18.209  0.00  0.00    +0.000 A 
ATOM     17  C   UNL     1       1.802  11.638  18.506  0.00  0.00    +0.000 A 
ATOM     18  C   UNL     1       2.216  10.445  17.876  0.00  0.00    +0.000 A 
ATOM     19  C   UNL     1       1.959   9.276  18.484  0.00  0.00    +0.000 A 
ATOM     20  C   UNL     1       1.284   9.155  19.807  0.00  0.00    +0.000 A 
ATOM     21  C   UNL     1       0.912  10.309  20.397  0.00  0.00    +0.000 A 
ATOM     22  N   UNL     1       1.174  11.535  19.745  0.00  0.00    +0.000 N 
ENDBRANCH   1  20
BRANCH  11  23
ATOM     23  N   UNL     1       6.095   4.772  18.893  0.00  0.00    +0.000 N 
ATOM     24  H   UNL     1       5.999   5.544  19.563  0.00  0.00    +0.000 HD
BRANCH  23  25
ATOM     25  S   UNL     1       7.088   5.393  17.643  0.00  0.00    +0.000 S 
ATOM     26  C   UNL     1       7.958   6.647  18.561  0.00  0.00    +0.000 C 
ATOM     27  O   UNL     1       8.023   4.383  17.207  0.00  0.00    +0.000 OA
ATOM     28  O   UNL     1       6.178   6.058  16.729  0.00  0.00    +0.000 OA
ENDBRANCH  23  25
ENDBRANCH  11  23
TORSDOF 3
ENDMDL
MODEL 9
REMARK VINA RESULT:      -6.6      5.334      7.468
REMARK  Name = 
REMARK  5 active torsions:
REMARK  status: ('A' for Active; 'I' for Inactive)
REMARK    1  A    between atoms: C_1  and  C_2
REMARK    2  A    between atoms: C_8  and  C_9
REMARK    3  A    between atoms: C_19  and  N_20
REMARK    4  A    between atoms: N_20  and  S_21
REMARK    5  A    between atoms: S_21  and  C_22
REMARK                            x       y       z     vdW  Elec       q    Type
REMARK                         _______ _______ _______ _____ _____    ______ ____
ROOT
ATOM      1  C   UNL     1       1.708   7.541  20.316  0.00  0.00    +0.000 C 
ATOM      2  O   UNL     1       1.429   7.098  21.446  0.00  0.00    +0.000 OA
ATOM      3  N   UNL     1       1.352   8.848  20.025  0.00  0.00    +0.000 N 
ATOM      4  C   UNL     1       0.413   9.394  21.000  0.00  0.00    +0.000 C 
ATOM      5  C   UNL     1      -0.803   9.996  20.326  0.00  0.00    +0.000 C 
ATOM      6  C   UNL     1      -0.510  10.554  18.944  0.00  0.00    +0.000 A 
ATOM      7  C   UNL     1       0.816  10.974  18.796  0.00  0.00    +0.000 A 
ATOM      8  C   UNL     1       0.971  12.342  18.537  0.00  0.00    +0.000 A 
ATOM      9  C   UNL     1      -0.170  13.149  18.281  0.00  0.00    +0.000 A 
ATOM     10  C   UNL     1      -1.434  12.572  18.092  0.00  0.00    +0.000 A 
ATOM     11  C   UNL     1      -1.578  11.228  18.357  0.00  0.00    +0.000 A 
ATOM     12  C   UNL     1       1.891   9.907  19.100  0.00  0.00    +0.000 C 
ENDROOT
BRANCH   1  20
ATOM     13  C   UNL     1       5.183   6.436  16.020  0.00  0.00    +0.000 C 
ATOM     14  C   UNL     1       4.548   5.296  16.714  0.00  0.00    +0.000 A 
ATOM     15  N   UNL     1       4.791   4.024  16.446  0.00  0.00    +0.000 NA
ATOM     16  C   UNL     1       4.055   3.307  17.344  0.00  0.00    +0.000 A 
ATOM     17  C   UNL     1       3.351   4.151  18.167  0.00  0.00    +0.000 A 
ATOM     18  C   UNL     1       2.480   3.989  19.266  0.00  0.00    +0.000 A 
ATOM     19  C   UNL     1       1.950   5.086  19.832  0.00  0.00    +0.000 A 
ATOM     20  C   UNL     1       2.248   6.478  19.389  0.00  0.00    +0.000 A 
ATOM     21  C   UNL     1       3.094   6.607  18.348  0.00  0.00    +0.000 A 
ATOM     22  N   UNL     1       3.637   5.447  17.750  0.00  0.00    +0.000 N 
ENDBRANCH   1  20
BRANCH  11  23
ATOM     23  N   UNL     1      -2.774  10.492  18.025  0.00  0.00    +0.000 N 
ATOM     24  H   UNL     1      -2.740  10.103  17.076  0.00  0.00    +0.000 HD
BRANCH  23  25
ATOM     25  S   UNL     1      -4.226  11.399  18.080  0.00  0.00    +0.000 S 
ATOM     26  C   UNL     1      -5.384  10.074  18.359  0.00  0.00    +0.000 C 
ATOM     27  O   UNL     1      -4.218  12.276  19.226  0.00  0.00    +0.000 OA
ATOM     28  O   UNL     1      -4.422  11.887  16.728  0.00  0.00    +0.000 OA
ENDBRANCH  23  25
ENDBRANCH  11  23
TORSDOF 3
ENDMDL
