MODEL 1
REMARK VINA RESULT:     -10.0      0.000      0.000
REMARK  Name = 
REMARK  6 active torsions:
REMARK  status: ('A' for Active; 'I' for Inactive)
REMARK    1  A    between atoms: C_2  and  C_10
REMARK    2  A    between atoms: N_3  and  C_4
REMARK    3  A    between atoms: C_4  and  C_5
REMARK    4  A    between atoms: C_10  and  C_22
REMARK    5  A    between atoms: C_11  and  C_12
REMARK    6  A    between atoms: C_16  and  C_17
REMARK                            x       y       z     vdW  Elec       q    Type
REMARK                         _______ _______ _______ _____ _____    ______ ____
ROOT
ATOM      1  C   UNL     1       3.113   7.503  17.916  0.00  0.00    +0.000 C 
ATOM      2  C   UNL     1       4.274   7.663  17.253  0.00  0.00    +0.000 C 
ENDROOT
BRANCH   1   3
ATOM      3  C   UNL     1       2.743   6.261  18.506  0.00  0.00    +0.000 A 
ATOM      4  N   UNL     1       2.060   5.245  18.018  0.00  0.00    +0.000 NA
ATOM      5  C   UNL     1       1.845   4.396  19.080  0.00  0.00    +0.000 A 
ATOM      6  C   UNL     1       1.082   3.220  19.152  0.00  0.00    +0.000 A 
ATOM      7  C   UNL     1       0.969   2.561  20.382  0.00  0.00    +0.000 A 
ATOM      8  C   UNL     1       1.628   3.046  21.516  0.00  0.00    +0.000 A 
ATOM      9  C   UNL     1       2.411   4.203  21.459  0.00  0.00    +0.000 A 
ATOM     10  C   UNL     1       2.481   4.859  20.226  0.00  0.00    +0.000 A 
ATOM     11  N   UNL     1       3.079   6.029  19.824  0.00  0.00    +0.000 N 
ATOM     12  H   UNL     1       3.599   6.657  20.417  0.00  0.00    +0.000 HD
ENDBRANCH   1   3
BRANCH   2  13
ATOM     13  C   UNL     1       5.258   6.617  16.978  0.00  0.00    +0.000 A 
ATOM     14  C   UNL     1       6.203   6.268  17.944  0.00  0.00    +0.000 A 
ATOM     15  C   UNL     1       7.145   5.276  17.670  0.00  0.00    +0.000 A 
ATOM     16  C   UNL     1       7.142   4.632  16.431  0.00  0.00    +0.000 A 
ATOM     17  C   UNL     1       6.198   4.972  15.451  0.00  0.00    +0.000 A 
ATOM     18  C   UNL     1       5.262   5.979  15.732  0.00  0.00    +0.000 A 
BRANCH  17  19
ATOM     19  C   UNL     1       6.165   4.279  14.114  0.00  0.00    +0.000 C 
ATOM     20  F   UNL     1       7.057   4.788  13.216  0.00  0.00    +0.000 F 
ATOM     21  F   UNL     1       6.444   2.949  14.200  0.00  0.00    +0.000 F 
ATOM     22  F   UNL     1       4.946   4.366  13.512  0.00  0.00    +0.000 F 
ENDBRANCH  17  19
ENDBRANCH   2  13
BRANCH   1  24
ATOM     23  O   UNL     1       2.084   9.548  17.254  0.00  0.00    +0.000 OA
ATOM     24  C   UNL     1       2.188   8.673  18.106  0.00  0.00    +0.000 C 
ATOM     25  N   UNL     1       1.489   8.688  19.292  0.00  0.00    +0.000 N 
ATOM     26  H   UNL     1       1.767   8.074  20.044  0.00  0.00    +0.000 HD
BRANCH  25  27
ATOM     27  C   UNL     1       0.623   9.784  19.657  0.00  0.00    +0.000 C 
BRANCH  27  28
ATOM     28  C   UNL     1       0.359   9.714  21.113  0.00  0.00    +0.000 A 
ATOM     29  C   UNL     1       0.932   8.992  22.140  0.00  0.00    +0.000 A 
ATOM     30  C   UNL     1       0.247   9.366  23.320  0.00  0.00    +0.000 A 
ATOM     31  C   UNL     1      -0.706  10.282  22.936  0.00  0.00    +0.000 A 
ATOM     32  O   UNL     1      -0.648  10.498  21.596  0.00  0.00    +0.000 OA
ENDBRANCH  27  28
ENDBRANCH  25  27
ENDBRANCH   1  24
TORSDOF 6
ENDMDL
MODEL 2
REMARK VINA RESULT:      -9.9      0.461      1.136
REMARK  Name = 
REMARK  6 active torsions:
REMARK  status: ('A' for Active; 'I' for Inactive)
REMARK    1  A    between atoms: C_2  and  C_10
REMARK    2  A    between atoms: N_3  and  C_4
REMARK    3  A    between atoms: C_4  and  C_5
REMARK    4  A    between atoms: C_10  and  C_22
REMARK    5  A    between atoms: C_11  and  C_12
REMARK    6  A    between atoms: C_16  and  C_17
REMARK                            x       y       z     vdW  Elec       q    Type
REMARK                         _______ _______ _______ _____ _____    ______ ____
ROOT
ATOM      1  C   UNL     1       2.938   7.542  18.048  0.00  0.00    +0.000 C 
ATOM      2  C   UNL     1       4.101   7.602  17.372  0.00  0.00    +0.000 C 
ENDROOT
BRANCH   1   3
ATOM      3  C   UNL     1       2.495   6.352  18.691  0.00  0.00    +0.000 A 
ATOM      4  N   UNL     1       2.474   6.017  19.966  0.00  0.00    +0.000 NA
ATOM      5  C   UNL     1       2.119   4.688  19.997  0.00  0.00    +0.000 A 
ATOM      6  C   UNL     1       2.052   3.800  21.082  0.00  0.00    +0.000 A 
ATOM      7  C   UNL     1       1.718   2.462  20.840  0.00  0.00    +0.000 A 
ATOM      8  C   UNL     1       1.426   2.020  19.546  0.00  0.00    +0.000 A 
ATOM      9  C   UNL     1       1.466   2.895  18.456  0.00  0.00    +0.000 A 
ATOM     10  C   UNL     1       1.833   4.218  18.721  0.00  0.00    +0.000 A 
ATOM     11  N   UNL     1       2.042   5.308  17.911  0.00  0.00    +0.000 N 
ATOM     12  H   UNL     1       1.966   5.316  16.906  0.00  0.00    +0.000 HD
ENDBRANCH   1   3
BRANCH   2  13
ATOM     13  C   UNL     1       5.014   6.485  17.133  0.00  0.00    +0.000 A 
ATOM     14  C   UNL     1       5.764   5.952  18.183  0.00  0.00    +0.000 A 
ATOM     15  C   UNL     1       6.640   4.894  17.945  0.00  0.00    +0.000 A 
ATOM     16  C   UNL     1       6.766   4.366  16.659  0.00  0.00    +0.000 A 
ATOM     17  C   UNL     1       6.018   4.890  15.595  0.00  0.00    +0.000 A 
ATOM     18  C   UNL     1       5.148   5.963  15.842  0.00  0.00    +0.000 A 
BRANCH  17  19
ATOM     19  C   UNL     1       6.126   4.325  14.202  0.00  0.00    +0.000 C 
ATOM     20  F   UNL     1       7.056   4.956  13.430  0.00  0.00    +0.000 F 
ATOM     21  F   UNL     1       6.465   3.007  14.190  0.00  0.00    +0.000 F 
ATOM     22  F   UNL     1       4.953   4.414  13.513  0.00  0.00    +0.000 F 
ENDBRANCH  17  19
ENDBRANCH   2  13
BRANCH   1  24
ATOM     23  O   UNL     1       2.087   9.652  17.340  0.00  0.00    +0.000 OA
ATOM     24  C   UNL     1       2.091   8.776  18.197  0.00  0.00    +0.000 C 
ATOM     25  N   UNL     1       1.343   8.845  19.350  0.00  0.00    +0.000 N 
ATOM     26  H   UNL     1       1.544   8.217  20.115  0.00  0.00    +0.000 HD
BRANCH  25  27
ATOM     27  C   UNL     1       0.542  10.002  19.677  0.00  0.00    +0.000 C 
BRANCH  27  28
ATOM     28  C   UNL     1       0.187   9.942  21.114  0.00  0.00    +0.000 A 
ATOM     29  C   UNL     1       0.554   9.096  22.139  0.00  0.00    +0.000 A 
ATOM     30  C   UNL     1      -0.115   9.559  23.296  0.00  0.00    +0.000 A 
ATOM     31  C   UNL     1      -0.857  10.649  22.900  0.00  0.00    +0.000 A 
ATOM     32  O   UNL     1      -0.682  10.887  21.574  0.00  0.00    +0.000 OA
ENDBRANCH  27  28
ENDBRANCH  25  27
ENDBRANCH   1  24
TORSDOF 6
ENDMDL
MODEL 3
REMARK VINA RESULT:      -9.5      0.672      1.507
REMARK  Name = 
REMARK  6 active torsions:
REMARK  status: ('A' for Active; 'I' for Inactive)
REMARK    1  A    between atoms: C_2  and  C_10
REMARK    2  A    between atoms: N_3  and  C_4
REMARK    3  A    between atoms: C_4  and  C_5
REMARK    4  A    between atoms: C_10  and  C_22
REMARK    5  A    between atoms: C_11  and  C_12
REMARK    6  A    between atoms: C_16  and  C_17
REMARK                            x       y       z     vdW  Elec       q    Type
REMARK                         _______ _______ _______ _____ _____    ______ ____
ROOT
ATOM      1  C   UNL     1       2.810   7.634  18.016  0.00  0.00    +0.000 C 
ATOM      2  C   UNL     1       3.986   7.676  17.362  0.00  0.00    +0.000 C 
ENDROOT
BRANCH   1   3
ATOM      3  C   UNL     1       2.342   6.453  18.658  0.00  0.00    +0.000 A 
ATOM      4  N   UNL     1       2.233   6.152  19.936  0.00  0.00    +0.000 NA
ATOM      5  C   UNL     1       1.901   4.818  19.979  0.00  0.00    +0.000 A 
ATOM      6  C   UNL     1       1.769   3.958  21.081  0.00  0.00    +0.000 A 
ATOM      7  C   UNL     1       1.478   2.607  20.854  0.00  0.00    +0.000 A 
ATOM      8  C   UNL     1       1.292   2.125  19.555  0.00  0.00    +0.000 A 
ATOM      9  C   UNL     1       1.397   2.970  18.446  0.00  0.00    +0.000 A 
ATOM     10  C   UNL     1       1.719   4.307  18.699  0.00  0.00    +0.000 A 
ATOM     11  N   UNL     1       1.968   5.379  17.876  0.00  0.00    +0.000 N 
ATOM     12  H   UNL     1       1.966   5.358  16.869  0.00  0.00    +0.000 HD
ENDBRANCH   1   3
BRANCH   2  13
ATOM     13  C   UNL     1       4.891   6.549  17.147  0.00  0.00    +0.000 A 
ATOM     14  C   UNL     1       5.584   5.987  18.223  0.00  0.00    +0.000 A 
ATOM     15  C   UNL     1       6.453   4.919  18.008  0.00  0.00    +0.000 A 
ATOM     16  C   UNL     1       6.630   4.408  16.721  0.00  0.00    +0.000 A 
ATOM     17  C   UNL     1       5.941   4.960  15.632  0.00  0.00    +0.000 A 
ATOM     18  C   UNL     1       5.077   6.043  15.856  0.00  0.00    +0.000 A 
BRANCH  17  19
ATOM     19  C   UNL     1       6.103   4.415  14.237  0.00  0.00    +0.000 C 
ATOM     20  F   UNL     1       4.929   4.320  13.550  0.00  0.00    +0.000 F 
ATOM     21  F   UNL     1       6.926   5.175  13.463  0.00  0.00    +0.000 F 
ATOM     22  F   UNL     1       6.637   3.161  14.227  0.00  0.00    +0.000 F 
ENDBRANCH  17  19
ENDBRANCH   2  13
BRANCH   1  24
ATOM     23  O   UNL     1       2.136   9.832  17.389  0.00  0.00    +0.000 OA
ATOM     24  C   UNL     1       1.973   8.877  18.140  0.00  0.00    +0.000 C 
ATOM     25  N   UNL     1       1.037   8.862  19.149  0.00  0.00    +0.000 N 
ATOM     26  H   UNL     1       1.089   8.156  19.869  0.00  0.00    +0.000 HD
BRANCH  25  27
ATOM     27  C   UNL     1       0.213  10.010  19.447  0.00  0.00    +0.000 C 
BRANCH  27  28
ATOM     28  C   UNL     1      -0.055  10.035  20.904  0.00  0.00    +0.000 A 
ATOM     29  C   UNL     1      -0.578  10.992  21.748  0.00  0.00    +0.000 A 
ATOM     30  C   UNL     1      -0.594  10.416  23.040  0.00  0.00    +0.000 A 
ATOM     31  C   UNL     1      -0.069   9.151  22.904  0.00  0.00    +0.000 A 
ATOM     32  O   UNL     1       0.265   8.911  21.609  0.00  0.00    +0.000 OA
ENDBRANCH  27  28
ENDBRANCH  25  27
ENDBRANCH   1  24
TORSDOF 6
ENDMDL
MODEL 4
REMARK VINA RESULT:      -9.3      1.376      2.268
REMARK  Name = 
REMARK  6 active torsions:
REMARK  status: ('A' for Active; 'I' for Inactive)
REMARK    1  A    between atoms: C_2  and  C_10
REMARK    2  A    between atoms: N_3  and  C_4
REMARK    3  A    between atoms: C_4  and  C_5
REMARK    4  A    between atoms: C_10  and  C_22
REMARK    5  A    between atoms: C_11  and  C_12
REMARK    6  A    between atoms: C_16  and  C_17
REMARK                            x       y       z     vdW  Elec       q    Type
REMARK                         _______ _______ _______ _____ _____    ______ ____
ROOT
ATOM      1  C   UNL     1       2.982   7.739  17.986  0.00  0.00    +0.000 C 
ATOM      2  C   UNL     1       4.160   7.726  17.335  0.00  0.00    +0.000 C 
ENDROOT
BRANCH   1   3
ATOM      3  C   UNL     1       2.456   6.580  18.624  0.00  0.00    +0.000 A 
ATOM      4  N   UNL     1       2.331   6.281  19.901  0.00  0.00    +0.000 NA
ATOM      5  C   UNL     1       1.933   4.965  19.939  0.00  0.00    +0.000 A 
ATOM      6  C   UNL     1       1.758   4.109  21.038  0.00  0.00    +0.000 A 
ATOM      7  C   UNL     1       1.400   2.775  20.805  0.00  0.00    +0.000 A 
ATOM      8  C   UNL     1       1.190   2.307  19.505  0.00  0.00    +0.000 A 
ATOM      9  C   UNL     1       1.338   3.150  18.399  0.00  0.00    +0.000 A 
ATOM     10  C   UNL     1       1.726   4.468  18.657  0.00  0.00    +0.000 A 
ATOM     11  N   UNL     1       2.028   5.529  17.838  0.00  0.00    +0.000 N 
ATOM     12  H   UNL     1       2.026   5.513  16.831  0.00  0.00    +0.000 HD
ENDBRANCH   1   3
BRANCH   2  13
ATOM     13  C   UNL     1       5.010   6.556  17.120  0.00  0.00    +0.000 A 
ATOM     14  C   UNL     1       5.681   5.966  18.193  0.00  0.00    +0.000 A 
ATOM     15  C   UNL     1       6.498   4.857  17.978  0.00  0.00    +0.000 A 
ATOM     16  C   UNL     1       6.644   4.334  16.691  0.00  0.00    +0.000 A 
ATOM     17  C   UNL     1       5.975   4.915  15.604  0.00  0.00    +0.000 A 
ATOM     18  C   UNL     1       5.165   6.039  15.829  0.00  0.00    +0.000 A 
BRANCH  17  19
ATOM     19  C   UNL     1       6.104   4.359  14.210  0.00  0.00    +0.000 C 
ATOM     20  F   UNL     1       7.071   4.971  13.468  0.00  0.00    +0.000 F 
ATOM     21  F   UNL     1       6.410   3.032  14.196  0.00  0.00    +0.000 F 
ATOM     22  F   UNL     1       4.953   4.484  13.491  0.00  0.00    +0.000 F 
ENDBRANCH  17  19
ENDBRANCH   2  13
BRANCH   1  24
ATOM     23  O   UNL     1       2.410   9.965  17.357  0.00  0.00    +0.000 OA
ATOM     24  C   UNL     1       2.207   9.022  18.112  0.00  0.00    +0.000 C 
ATOM     25  N   UNL     1       1.276   9.054  19.126  0.00  0.00    +0.000 N 
ATOM     26  H   UNL     1       1.299   8.348  19.848  0.00  0.00    +0.000 HD
BRANCH  25  27
ATOM     27  C   UNL     1       0.511  10.241  19.426  0.00  0.00    +0.000 C 
BRANCH  27  28
ATOM     28  C   UNL     1      -0.720  10.231  18.602  0.00  0.00    +0.000 A 
ATOM     29  C   UNL     1      -1.065   9.584  17.433  0.00  0.00    +0.000 A 
ATOM     30  C   UNL     1      -2.394   9.973  17.141  0.00  0.00    +0.000 A 
ATOM     31  C   UNL     1      -2.769  10.840  18.141  0.00  0.00    +0.000 A 
ATOM     32  O   UNL     1      -1.757  11.007  19.032  0.00  0.00    +0.000 OA
ENDBRANCH  27  28
ENDBRANCH  25  27
ENDBRANCH   1  24
TORSDOF 6
ENDMDL
MODEL 5
REMARK VINA RESULT:      -9.1      1.933      2.421
REMARK  Name = 
REMARK  6 active torsions:
REMARK  status: ('A' for Active; 'I' for Inactive)
REMARK    1  A    between atoms: C_2  and  C_10
REMARK    2  A    between atoms: N_3  and  C_4
REMARK    3  A    between atoms: C_4  and  C_5
REMARK    4  A    between atoms: C_10  and  C_22
REMARK    5  A    between atoms: C_11  and  C_12
REMARK    6  A    between atoms: C_16  and  C_17
REMARK                            x       y       z     vdW  Elec       q    Type
REMARK                         _______ _______ _______ _____ _____    ______ ____
ROOT
ATOM      1  C   UNL     1       2.662   7.604  17.947  0.00  0.00    +0.000 C 
ATOM      2  C   UNL     1       3.790   7.894  17.272  0.00  0.00    +0.000 C 
ENDROOT
BRANCH   1   3
ATOM      3  C   UNL     1       2.440   6.329  18.540  0.00  0.00    +0.000 A 
ATOM      4  N   UNL     1       1.899   5.232  18.049  0.00  0.00    +0.000 NA
ATOM      5  C   UNL     1       1.773   4.369  19.113  0.00  0.00    +0.000 A 
ATOM      6  C   UNL     1       1.163   3.107  19.181  0.00  0.00    +0.000 A 
ATOM      7  C   UNL     1       1.111   2.446  20.414  0.00  0.00    +0.000 A 
ATOM      8  C   UNL     1       1.684   3.016  21.555  0.00  0.00    +0.000 A 
ATOM      9  C   UNL     1       2.316   4.262  21.503  0.00  0.00    +0.000 A 
ATOM     10  C   UNL     1       2.325   4.915  20.267  0.00  0.00    +0.000 A 
ATOM     11  N   UNL     1       2.779   6.148  19.866  0.00  0.00    +0.000 N 
ATOM     12  H   UNL     1       3.205   6.840  20.462  0.00  0.00    +0.000 HD
ENDBRANCH   1   3
BRANCH   2  13
ATOM     13  C   UNL     1       4.882   6.965  16.985  0.00  0.00    +0.000 A 
ATOM     14  C   UNL     1       4.982   6.362  15.729  0.00  0.00    +0.000 A 
ATOM     15  C   UNL     1       6.020   5.470  15.466  0.00  0.00    +0.000 A 
ATOM     16  C   UNL     1       6.961   5.180  16.456  0.00  0.00    +0.000 A 
ATOM     17  C   UNL     1       6.875   5.778  17.721  0.00  0.00    +0.000 A 
ATOM     18  C   UNL     1       5.819   6.666  17.981  0.00  0.00    +0.000 A 
BRANCH  17  19
ATOM     19  C   UNL     1       7.889   5.493  18.799  0.00  0.00    +0.000 C 
ATOM     20  F   UNL     1       8.686   4.421  18.526  0.00  0.00    +0.000 F 
ATOM     21  F   UNL     1       8.734   6.537  19.021  0.00  0.00    +0.000 F 
ATOM     22  F   UNL     1       7.307   5.223  20.002  0.00  0.00    +0.000 F 
ENDBRANCH  17  19
ENDBRANCH   2  13
BRANCH   1  24
ATOM     23  O   UNL     1       1.040   9.180  17.197  0.00  0.00    +0.000 OA
ATOM     24  C   UNL     1       1.613   8.663  18.148  0.00  0.00    +0.000 C 
ATOM     25  N   UNL     1       1.361   9.004  19.458  0.00  0.00    +0.000 N 
ATOM     26  H   UNL     1       2.003   8.717  20.182  0.00  0.00    +0.000 HD
BRANCH  25  27
ATOM     27  C   UNL     1       0.442  10.061  19.811  0.00  0.00    +0.000 C 
BRANCH  27  28
ATOM     28  C   UNL     1       0.117   9.944  21.252  0.00  0.00    +0.000 A 
ATOM     29  C   UNL     1       0.558   9.101  22.250  0.00  0.00    +0.000 A 
ATOM     30  C   UNL     1      -0.119   9.492  23.429  0.00  0.00    +0.000 A 
ATOM     31  C   UNL     1      -0.938  10.539  23.072  0.00  0.00    +0.000 A 
ATOM     32  O   UNL     1      -0.804  10.819  21.749  0.00  0.00    +0.000 OA
ENDBRANCH  27  28
ENDBRANCH  25  27
ENDBRANCH   1  24
TORSDOF 6
ENDMDL
MODEL 6
REMARK VINA RESULT:      -9.0      4.035      7.479
REMARK  Name = 
REMARK  6 active torsions:
REMARK  status: ('A' for Active; 'I' for Inactive)
REMARK    1  A    between atoms: C_2  and  C_10
REMARK    2  A    between atoms: N_3  and  C_4
REMARK    3  A    between atoms: C_4  and  C_5
REMARK    4  A    between atoms: C_10  and  C_22
REMARK    5  A    between atoms: C_11  and  C_12
REMARK    6  A    between atoms: C_16  and  C_17
REMARK                            x       y       z     vdW  Elec       q    Type
REMARK                         _______ _______ _______ _____ _____    ______ ____
ROOT
ATOM      1  C   UNL     1       3.654   7.145  17.950  0.00  0.00    +0.000 C 
ATOM      2  C   UNL     1       3.123   8.370  17.781  0.00  0.00    +0.000 C 
ENDROOT
BRANCH   1   3
ATOM      3  C   UNL     1       2.985   6.123  18.681  0.00  0.00    +0.000 A 
ATOM      4  N   UNL     1       3.040   5.800  19.957  0.00  0.00    +0.000 NA
ATOM      5  C   UNL     1       2.333   4.625  20.075  0.00  0.00    +0.000 A 
ATOM      6  C   UNL     1       2.163   3.785  21.186  0.00  0.00    +0.000 A 
ATOM      7  C   UNL     1       1.438   2.596  21.032  0.00  0.00    +0.000 A 
ATOM      8  C   UNL     1       0.866   2.264  19.800  0.00  0.00    +0.000 A 
ATOM      9  C   UNL     1       1.005   3.099  18.687  0.00  0.00    +0.000 A 
ATOM     10  C   UNL     1       1.760   4.263  18.861  0.00  0.00    +0.000 A 
ATOM     11  N   UNL     1       2.158   5.255  17.998  0.00  0.00    +0.000 N 
ATOM     12  H   UNL     1       1.955   5.291  17.012  0.00  0.00    +0.000 HD
ENDBRANCH   1   3
BRANCH   2  13
ATOM     13  C   UNL     1       1.870   8.852  18.361  0.00  0.00    +0.000 A 
ATOM     14  C   UNL     1       0.869   9.375  17.539  0.00  0.00    +0.000 A 
ATOM     15  C   UNL     1      -0.319   9.842  18.101  0.00  0.00    +0.000 A 
ATOM     16  C   UNL     1      -0.509   9.783  19.483  0.00  0.00    +0.000 A 
ATOM     17  C   UNL     1       0.486   9.259  20.320  0.00  0.00    +0.000 A 
ATOM     18  C   UNL     1       1.683   8.803  19.747  0.00  0.00    +0.000 A 
BRANCH  17  19
ATOM     19  C   UNL     1       0.295   9.170  21.813  0.00  0.00    +0.000 C 
ATOM     20  F   UNL     1       0.078  10.379  22.405  0.00  0.00    +0.000 F 
ATOM     21  F   UNL     1      -0.762   8.388  22.166  0.00  0.00    +0.000 F 
ATOM     22  F   UNL     1       1.379   8.639  22.445  0.00  0.00    +0.000 F 
ENDBRANCH  17  19
ENDBRANCH   2  13
BRANCH   1  24
ATOM     23  O   UNL     1       5.350   7.376  16.292  0.00  0.00    +0.000 OA
ATOM     24  C   UNL     1       4.967   6.799  17.303  0.00  0.00    +0.000 C 
ATOM     25  N   UNL     1       5.685   5.799  17.920  0.00  0.00    +0.000 N 
ATOM     26  H   UNL     1       5.236   5.212  18.608  0.00  0.00    +0.000 HD
BRANCH  25  27
ATOM     27  C   UNL     1       6.925   5.298  17.374  0.00  0.00    +0.000 C 
BRANCH  27  28
ATOM     28  C   UNL     1       6.673   4.802  16.002  0.00  0.00    +0.000 A 
ATOM     29  C   UNL     1       5.790   3.878  15.482  0.00  0.00    +0.000 A 
ATOM     30  C   UNL     1       6.023   3.845  14.088  0.00  0.00    +0.000 A 
ATOM     31  C   UNL     1       7.040   4.741  13.847  0.00  0.00    +0.000 A 
ATOM     32  O   UNL     1       7.444   5.325  15.005  0.00  0.00    +0.000 OA
ENDBRANCH  27  28
ENDBRANCH  25  27
ENDBRANCH   1  24
TORSDOF 6
ENDMDL
MODEL 7
REMARK VINA RESULT:      -9.0      1.961      2.661
REMARK  Name = 
REMARK  6 active torsions:
REMARK  status: ('A' for Active; 'I' for Inactive)
REMARK    1  A    between atoms: C_2  and  C_10
REMARK    2  A    between atoms: N_3  and  C_4
REMARK    3  A    between atoms: C_4  and  C_5
REMARK    4  A    between atoms: C_10  and  C_22
REMARK    5  A    between atoms: C_11  and  C_12
REMARK    6  A    between atoms: C_16  and  C_17
REMARK                            x       y       z     vdW  Elec       q    Type
REMARK                         _______ _______ _______ _____ _____    ______ ____
ROOT
ATOM      1  C   UNL     1       2.714   7.868  18.005  0.00  0.00    +0.000 C 
ATOM      2  C   UNL     1       3.837   7.993  17.273  0.00  0.00    +0.000 C 
ENDROOT
BRANCH   1   3
ATOM      3  C   UNL     1       2.397   6.672  18.708  0.00  0.00    +0.000 A 
ATOM      4  N   UNL     1       2.468   6.382  19.992  0.00  0.00    +0.000 NA
ATOM      5  C   UNL     1       2.217   5.033  20.084  0.00  0.00    +0.000 A 
ATOM      6  C   UNL     1       2.273   4.181  21.199  0.00  0.00    +0.000 A 
ATOM      7  C   UNL     1       2.030   2.814  21.018  0.00  0.00    +0.000 A 
ATOM      8  C   UNL     1       1.706   2.306  19.757  0.00  0.00    +0.000 A 
ATOM      9  C   UNL     1       1.623   3.142  18.639  0.00  0.00    +0.000 A 
ATOM     10  C   UNL     1       1.901   4.497  18.841  0.00  0.00    +0.000 A 
ATOM     11  N   UNL     1       1.985   5.570  17.987  0.00  0.00    +0.000 N 
ATOM     12  H   UNL     1       1.856   5.537  16.988  0.00  0.00    +0.000 HD
ENDBRANCH   1   3
BRANCH   2  13
ATOM     13  C   UNL     1       4.824   6.942  17.028  0.00  0.00    +0.000 A 
ATOM     14  C   UNL     1       4.781   6.197  15.848  0.00  0.00    +0.000 A 
ATOM     15  C   UNL     1       5.720   5.190  15.626  0.00  0.00    +0.000 A 
ATOM     16  C   UNL     1       6.704   4.928  16.581  0.00  0.00    +0.000 A 
ATOM     17  C   UNL     1       6.761   5.670  17.770  0.00  0.00    +0.000 A 
ATOM     18  C   UNL     1       5.804   6.673  17.990  0.00  0.00    +0.000 A 
BRANCH  17  19
ATOM     19  C   UNL     1       7.824   5.416  18.808  0.00  0.00    +0.000 C 
ATOM     20  F   UNL     1       7.321   5.119  20.040  0.00  0.00    +0.000 F 
ATOM     21  F   UNL     1       8.645   4.380  18.482  0.00  0.00    +0.000 F 
ATOM     22  F   UNL     1       8.638   6.493  18.991  0.00  0.00    +0.000 F 
ENDBRANCH  17  19
ENDBRANCH   2  13
BRANCH   1  24
ATOM     23  O   UNL     1       1.816   9.983  17.374  0.00  0.00    +0.000 OA
ATOM     24  C   UNL     1       1.779   9.037  18.152  0.00  0.00    +0.000 C 
ATOM     25  N   UNL     1       0.904   8.964  19.212  0.00  0.00    +0.000 N 
ATOM     26  H   UNL     1       1.057   8.283  19.941  0.00  0.00    +0.000 HD
BRANCH  25  27
ATOM     27  C   UNL     1      -0.001  10.043  19.534  0.00  0.00    +0.000 C 
BRANCH  27  28
ATOM     28  C   UNL     1      -0.241  10.039  20.996  0.00  0.00    +0.000 A 
ATOM     29  C   UNL     1      -0.032   9.097  21.981  0.00  0.00    +0.000 A 
ATOM     30  C   UNL     1      -0.456   9.689  23.194  0.00  0.00    +0.000 A 
ATOM     31  C   UNL     1      -0.908  10.947  22.869  0.00  0.00    +0.000 A 
ATOM     32  O   UNL     1      -0.785  11.168  21.534  0.00  0.00    +0.000 OA
ENDBRANCH  27  28
ENDBRANCH  25  27
ENDBRANCH   1  24
TORSDOF 6
ENDMDL
MODEL 8
REMARK VINA RESULT:      -8.9      3.785      7.264
REMARK  Name = 
REMARK  6 active torsions:
REMARK  status: ('A' for Active; 'I' for Inactive)
REMARK    1  A    between atoms: C_2  and  C_10
REMARK    2  A    between atoms: N_3  and  C_4
REMARK    3  A    between atoms: C_4  and  C_5
REMARK    4  A    between atoms: C_10  and  C_22
REMARK    5  A    between atoms: C_11  and  C_12
REMARK    6  A    between atoms: C_16  and  C_17
REMARK                            x       y       z     vdW  Elec       q    Type
REMARK                         _______ _______ _______ _____ _____    ______ ____
ROOT
ATOM      1  C   UNL     1       3.445   7.321  17.860  0.00  0.00    +0.000 C 
ATOM      2  C   UNL     1       2.902   8.547  17.740  0.00  0.00    +0.000 C 
ENDROOT
BRANCH   1   3
ATOM      3  C   UNL     1       2.813   6.282  18.599  0.00  0.00    +0.000 A 
ATOM      4  N   UNL     1       2.815   6.017  19.890  0.00  0.00    +0.000 NA
ATOM      5  C   UNL     1       2.194   4.796  20.022  0.00  0.00    +0.000 A 
ATOM      6  C   UNL     1       2.022   3.993  21.160  0.00  0.00    +0.000 A 
ATOM      7  C   UNL     1       1.400   2.746  21.020  0.00  0.00    +0.000 A 
ATOM      8  C   UNL     1       0.930   2.318  19.775  0.00  0.00    +0.000 A 
ATOM      9  C   UNL     1       1.072   3.114  18.634  0.00  0.00    +0.000 A 
ATOM     10  C   UNL     1       1.724   4.340  18.796  0.00  0.00    +0.000 A 
ATOM     11  N   UNL     1       2.097   5.323  17.912  0.00  0.00    +0.000 N 
ATOM     12  H   UNL     1       1.951   5.302  16.915  0.00  0.00    +0.000 HD
ENDBRANCH   1   3
BRANCH   2  13
ATOM     13  C   UNL     1       1.674   9.010  18.384  0.00  0.00    +0.000 A 
ATOM     14  C   UNL     1       1.610   9.132  19.773  0.00  0.00    +0.000 A 
ATOM     15  C   UNL     1       0.432   9.564  20.381  0.00  0.00    +0.000 A 
ATOM     16  C   UNL     1      -0.683   9.878  19.601  0.00  0.00    +0.000 A 
ATOM     17  C   UNL     1      -0.633   9.762  18.204  0.00  0.00    +0.000 A 
ATOM     18  C   UNL     1       0.553   9.314  17.603  0.00  0.00    +0.000 A 
BRANCH  17  19
ATOM     19  C   UNL     1      -1.819  10.111  17.342  0.00  0.00    +0.000 C 
ATOM     20  F   UNL     1      -1.819   9.474  16.136  0.00  0.00    +0.000 F 
ATOM     21  F   UNL     1      -3.008   9.800  17.926  0.00  0.00    +0.000 F 
ATOM     22  F   UNL     1      -1.880  11.442  17.056  0.00  0.00    +0.000 F 
ENDBRANCH  17  19
ENDBRANCH   2  13
BRANCH   1  24
ATOM     23  O   UNL     1       4.933   7.364  15.999  0.00  0.00    +0.000 OA
ATOM     24  C   UNL     1       4.730   6.995  17.150  0.00  0.00    +0.000 C 
ATOM     25  N   UNL     1       5.637   6.256  17.876  0.00  0.00    +0.000 N 
ATOM     26  H   UNL     1       5.341   5.795  18.724  0.00  0.00    +0.000 HD
BRANCH  25  27
ATOM     27  C   UNL     1       6.881   5.795  17.307  0.00  0.00    +0.000 C 
BRANCH  27  28
ATOM     28  C   UNL     1       6.584   5.047  16.063  0.00  0.00    +0.000 A 
ATOM     29  C   UNL     1       5.716   4.016  15.769  0.00  0.00    +0.000 A 
ATOM     30  C   UNL     1       5.883   3.735  14.393  0.00  0.00    +0.000 A 
ATOM     31  C   UNL     1       6.850   4.603  13.938  0.00  0.00    +0.000 A 
ATOM     32  O   UNL     1       7.285   5.402  14.947  0.00  0.00    +0.000 OA
ENDBRANCH  27  28
ENDBRANCH  25  27
ENDBRANCH   1  24
TORSDOF 6
ENDMDL
MODEL 9
REMARK VINA RESULT:      -8.8      1.316      1.917
REMARK  Name = 
REMARK  6 active torsions:
REMARK  status: ('A' for Active; 'I' for Inactive)
REMARK    1  A    between atoms: C_2  and  C_10
REMARK    2  A    between atoms: N_3  and  C_4
REMARK    3  A    between atoms: C_4  and  C_5
REMARK    4  A    between atoms: C_10  and  C_22
REMARK    5  A    between atoms: C_11  and  C_12
REMARK    6  A    between atoms: C_16  and  C_17
REMARK                            x       y       z     vdW  Elec       q    Type
REMARK                         _______ _______ _______ _____ _____    ______ ____
ROOT
ATOM      1  C   UNL     1       2.806   7.524  18.008  0.00  0.00    +0.000 C 
ATOM      2  C   UNL     1       3.958   7.823  17.378  0.00  0.00    +0.000 C 
ENDROOT
BRANCH   1   3
ATOM      3  C   UNL     1       2.569   6.245  18.586  0.00  0.00    +0.000 A 
ATOM      4  N   UNL     1       2.023   5.158  18.078  0.00  0.00    +0.000 NA
ATOM      5  C   UNL     1       1.881   4.285  19.132  0.00  0.00    +0.000 A 
ATOM      6  C   UNL     1       1.259   3.027  19.181  0.00  0.00    +0.000 A 
ATOM      7  C   UNL     1       1.192   2.353  20.407  0.00  0.00    +0.000 A 
ATOM      8  C   UNL     1       1.760   2.906  21.558  0.00  0.00    +0.000 A 
ATOM      9  C   UNL     1       2.403   4.147  21.525  0.00  0.00    +0.000 A 
ATOM     10  C   UNL     1       2.428   4.813  20.296  0.00  0.00    +0.000 A 
ATOM     11  N   UNL     1       2.895   6.047  19.912  0.00  0.00    +0.000 N 
ATOM     12  H   UNL     1       3.322   6.728  20.519  0.00  0.00    +0.000 HD
ENDBRANCH   1   3
BRANCH   2  13
ATOM     13  C   UNL     1       5.066   6.901  17.128  0.00  0.00    +0.000 A 
ATOM     14  C   UNL     1       6.104   6.780  18.054  0.00  0.00    +0.000 A 
ATOM     15  C   UNL     1       7.161   5.906  17.803  0.00  0.00    +0.000 A 
ATOM     16  C   UNL     1       7.182   5.152  16.629  0.00  0.00    +0.000 A 
ATOM     17  C   UNL     1       6.146   5.262  15.690  0.00  0.00    +0.000 A 
ATOM     18  C   UNL     1       5.092   6.153  15.945  0.00  0.00    +0.000 A 
BRANCH  17  19
ATOM     19  C   UNL     1       6.138   4.446  14.423  0.00  0.00    +0.000 C 
ATOM     20  F   UNL     1       4.958   4.508  13.743  0.00  0.00    +0.000 F 
ATOM     21  F   UNL     1       7.098   4.833  13.539  0.00  0.00    +0.000 F 
ATOM     22  F   UNL     1       6.359   3.121  14.657  0.00  0.00    +0.000 F 
ENDBRANCH  17  19
ENDBRANCH   2  13
BRANCH   1  24
ATOM     23  O   UNL     1       1.139   9.028  17.210  0.00  0.00    +0.000 OA
ATOM     24  C   UNL     1       1.746   8.577  18.175  0.00  0.00    +0.000 C 
ATOM     25  N   UNL     1       1.522   8.991  19.468  0.00  0.00    +0.000 N 
ATOM     26  H   UNL     1       2.187   8.756  20.191  0.00  0.00    +0.000 HD
BRANCH  25  27
ATOM     27  C   UNL     1       0.594  10.052  19.784  0.00  0.00    +0.000 C 
BRANCH  27  28
ATOM     28  C   UNL     1       1.318  11.343  19.737  0.00  0.00    +0.000 A 
ATOM     29  C   UNL     1       1.884  12.068  18.709  0.00  0.00    +0.000 A 
ATOM     30  C   UNL     1       2.426  13.235  19.296  0.00  0.00    +0.000 A 
ATOM     31  C   UNL     1       2.167  13.142  20.645  0.00  0.00    +0.000 A 
ATOM     32  O   UNL     1       1.497  11.993  20.923  0.00  0.00    +0.000 OA
ENDBRANCH  27  28
ENDBRANCH  25  27
ENDBRANCH   1  24
TORSDOF 6
ENDMDL
