MODEL 1
REMARK VINA RESULT:      -6.4      0.000      0.000
REMARK  Name = 
REMARK  6 active torsions:
REMARK  status: ('A' for Active; 'I' for Inactive)
REMARK    1  A    between atoms: C_1  and  C_2
REMARK    2  A    between atoms: C_5  and  N_6
REMARK    3  A    between atoms: N_6  and  N_7
REMARK    4  A    between atoms: N_7  and  C_8
REMARK    5  A    between atoms: N_7  and  C_9
REMARK    6  A    between atoms: N_12  and  C_13
REMARK                            x       y       z     vdW  Elec       q    Type
REMARK                         _______ _______ _______ _____ _____    ______ ____
ROOT
ATOM      1  C   UNL     1       1.946   7.893  19.241  0.00  0.00    +0.000 C 
ATOM      2  C   UNL     1       2.942   7.150  18.382  0.00  0.00    +0.000 C 
ATOM      3  O   UNL     1       3.619   7.789  17.574  0.00  0.00    +0.000 OA
ATOM      4  N   UNL     1       3.013   5.761  18.568  0.00  0.00    +0.000 N 
ATOM      5  C   UNL     1       2.013   4.988  19.325  0.00  0.00    +0.000 C 
ATOM      6  C   UNL     1       1.466   3.970  18.342  0.00  0.00    +0.000 C 
ATOM      7  C   UNL     1       2.561   3.796  17.315  0.00  0.00    +0.000 C 
ATOM      8  N   UNL     1       3.397   5.000  17.405  0.00  0.00    +0.000 N 
ENDROOT
BRANCH   8   9
ATOM      9  C   UNL     1       4.778   4.803  17.130  0.00  0.00    +0.000 A 
ATOM     10  C   UNL     1       5.219   4.666  15.797  0.00  0.00    +0.000 A 
ATOM     11  C   UNL     1       6.567   4.489  15.466  0.00  0.00    +0.000 A 
ATOM     12  C   UNL     1       7.527   4.486  16.467  0.00  0.00    +0.000 A 
ATOM     13  C   UNL     1       7.135   4.661  17.790  0.00  0.00    +0.000 A 
ATOM     14  C   UNL     1       5.776   4.813  18.117  0.00  0.00    +0.000 A 
ENDBRANCH   8   9
BRANCH   5  15
ATOM     15  N   UNL     1       2.668   4.421  20.510  0.00  0.00    +0.000 NA
ATOM     16  H   UNL     1       2.296   4.885  21.339  0.00  0.00    +0.000 HD
BRANCH  15  17
ATOM     17  N   UNL     1       2.547   2.952  20.581  0.00  0.00    +0.000 NA
ATOM     18  C   UNL     1       3.905   2.385  20.564  0.00  0.00    +0.000 C 
ATOM     19  C   UNL     1       1.851   2.504  21.795  0.00  0.00    +0.000 C 
ENDBRANCH  15  17
ENDBRANCH   5  15
TORSDOF 3
ENDMDL
MODEL 2
REMARK VINA RESULT:      -6.4      0.125      1.133
REMARK  Name = 
REMARK  6 active torsions:
REMARK  status: ('A' for Active; 'I' for Inactive)
REMARK    1  A    between atoms: C_1  and  C_2
REMARK    2  A    between atoms: C_5  and  N_6
REMARK    3  A    between atoms: N_6  and  N_7
REMARK    4  A    between atoms: N_7  and  C_8
REMARK    5  A    between atoms: N_7  and  C_9
REMARK    6  A    between atoms: N_12  and  C_13
REMARK                            x       y       z     vdW  Elec       q    Type
REMARK                         _______ _______ _______ _____ _____    ______ ____
ROOT
ATOM      1  C   UNL     1       1.860   7.923  19.245  0.00  0.00    +0.000 C 
ATOM      2  C   UNL     1       2.879   7.206  18.389  0.00  0.00    +0.000 C 
ATOM      3  O   UNL     1       3.550   7.866  17.593  0.00  0.00    +0.000 OA
ATOM      4  N   UNL     1       2.977   5.818  18.566  0.00  0.00    +0.000 N 
ATOM      5  C   UNL     1       1.986   5.019  19.309  0.00  0.00    +0.000 C 
ATOM      6  C   UNL     1       1.469   3.997  18.313  0.00  0.00    +0.000 C 
ATOM      7  C   UNL     1       2.576   3.853  17.295  0.00  0.00    +0.000 C 
ATOM      8  N   UNL     1       3.387   5.073  17.402  0.00  0.00    +0.000 N 
ENDROOT
BRANCH   8   9
ATOM      9  C   UNL     1       4.774   4.907  17.138  0.00  0.00    +0.000 A 
ATOM     10  C   UNL     1       5.703   4.937  18.200  0.00  0.00    +0.000 A 
ATOM     11  C   UNL     1       7.077   4.761  18.001  0.00  0.00    +0.000 A 
ATOM     12  C   UNL     1       7.561   4.506  16.726  0.00  0.00    +0.000 A 
ATOM     13  C   UNL     1       6.671   4.426  15.660  0.00  0.00    +0.000 A 
ATOM     14  C   UNL     1       5.295   4.630  15.864  0.00  0.00    +0.000 A 
ENDBRANCH   8   9
BRANCH   5  15
ATOM     15  N   UNL     1       2.641   4.457  20.495  0.00  0.00    +0.000 NA
ATOM     16  H   UNL     1       2.265   4.921  21.323  0.00  0.00    +0.000 HD
BRANCH  15  17
ATOM     17  N   UNL     1       2.527   2.987  20.568  0.00  0.00    +0.000 NA
ATOM     18  C   UNL     1       3.887   2.426  20.530  0.00  0.00    +0.000 C 
ATOM     19  C   UNL     1       1.852   2.537  21.793  0.00  0.00    +0.000 C 
ENDBRANCH  15  17
ENDBRANCH   5  15
TORSDOF 3
ENDMDL
MODEL 3
REMARK VINA RESULT:      -6.3      2.063      5.224
REMARK  Name = 
REMARK  6 active torsions:
REMARK  status: ('A' for Active; 'I' for Inactive)
REMARK    1  A    between atoms: C_1  and  C_2
REMARK    2  A    between atoms: C_5  and  N_6
REMARK    3  A    between atoms: N_6  and  N_7
REMARK    4  A    between atoms: N_7  and  C_8
REMARK    5  A    between atoms: N_7  and  C_9
REMARK    6  A    between atoms: N_12  and  C_13
REMARK                            x       y       z     vdW  Elec       q    Type
REMARK                         _______ _______ _______ _____ _____    ______ ____
ROOT
ATOM      1  C   UNL     1       5.249   4.172  15.605  0.00  0.00    +0.000 C 
ATOM      2  C   UNL     1       4.139   4.039  16.622  0.00  0.00    +0.000 C 
ATOM      3  O   UNL     1       3.376   3.074  16.542  0.00  0.00    +0.000 OA
ATOM      4  N   UNL     1       4.057   5.050  17.592  0.00  0.00    +0.000 N 
ATOM      5  C   UNL     1       4.792   6.324  17.505  0.00  0.00    +0.000 C 
ATOM      6  C   UNL     1       3.725   7.403  17.520  0.00  0.00    +0.000 C 
ATOM      7  C   UNL     1       2.542   6.768  18.214  0.00  0.00    +0.000 C 
ATOM      8  N   UNL     1       2.734   5.316  18.098  0.00  0.00    +0.000 N 
ENDROOT
BRANCH   8   9
ATOM      9  C   UNL     1       2.240   4.548  19.186  0.00  0.00    +0.000 A 
ATOM     10  C   UNL     1       1.238   3.578  18.968  0.00  0.00    +0.000 A 
ATOM     11  C   UNL     1       0.728   2.780  19.999  0.00  0.00    +0.000 A 
ATOM     12  C   UNL     1       1.239   2.903  21.282  0.00  0.00    +0.000 A 
ATOM     13  C   UNL     1       2.256   3.819  21.528  0.00  0.00    +0.000 A 
ATOM     14  C   UNL     1       2.746   4.635  20.493  0.00  0.00    +0.000 A 
ENDBRANCH   8   9
BRANCH   5  15
ATOM     15  N   UNL     1       5.751   6.381  18.614  0.00  0.00    +0.000 NA
ATOM     16  H   UNL     1       5.467   5.702  19.322  0.00  0.00    +0.000 HD
BRANCH  15  17
ATOM     17  N   UNL     1       7.147   6.189  18.173  0.00  0.00    +0.000 NA
ATOM     18  C   UNL     1       7.622   7.463  17.610  0.00  0.00    +0.000 C 
ATOM     19  C   UNL     1       8.033   5.785  19.274  0.00  0.00    +0.000 C 
ENDBRANCH  15  17
ENDBRANCH   5  15
TORSDOF 3
ENDMDL
MODEL 4
REMARK VINA RESULT:      -6.2      2.008      5.318
REMARK  Name = 
REMARK  6 active torsions:
REMARK  status: ('A' for Active; 'I' for Inactive)
REMARK    1  A    between atoms: C_1  and  C_2
REMARK    2  A    between atoms: C_5  and  N_6
REMARK    3  A    between atoms: N_6  and  N_7
REMARK    4  A    between atoms: N_7  and  C_8
REMARK    5  A    between atoms: N_7  and  C_9
REMARK    6  A    between atoms: N_12  and  C_13
REMARK                            x       y       z     vdW  Elec       q    Type
REMARK                         _______ _______ _______ _____ _____    ______ ____
ROOT
ATOM      1  C   UNL     1       5.319   4.180  15.612  0.00  0.00    +0.000 C 
ATOM      2  C   UNL     1       4.187   4.019  16.601  0.00  0.00    +0.000 C 
ATOM      3  O   UNL     1       3.389   3.093  16.441  0.00  0.00    +0.000 OA
ATOM      4  N   UNL     1       4.128   4.961  17.639  0.00  0.00    +0.000 N 
ATOM      5  C   UNL     1       4.912   6.208  17.653  0.00  0.00    +0.000 C 
ATOM      6  C   UNL     1       3.887   7.324  17.730  0.00  0.00    +0.000 C 
ATOM      7  C   UNL     1       2.669   6.690  18.360  0.00  0.00    +0.000 C 
ATOM      8  N   UNL     1       2.807   5.243  18.143  0.00  0.00    +0.000 N 
ENDROOT
BRANCH   8   9
ATOM      9  C   UNL     1       2.264   4.420  19.167  0.00  0.00    +0.000 A 
ATOM     10  C   UNL     1       2.735   4.539  20.492  0.00  0.00    +0.000 A 
ATOM     11  C   UNL     1       2.224   3.768  21.542  0.00  0.00    +0.000 A 
ATOM     12  C   UNL     1       1.190   2.876  21.302  0.00  0.00    +0.000 A 
ATOM     13  C   UNL     1       0.671   2.761  20.017  0.00  0.00    +0.000 A 
ATOM     14  C   UNL     1       1.206   3.521  18.961  0.00  0.00    +0.000 A 
ENDBRANCH   8   9
BRANCH   5  15
ATOM     15  N   UNL     1       5.853   6.149  18.778  0.00  0.00    +0.000 NA
ATOM     16  H   UNL     1       5.652   5.310  19.325  0.00  0.00    +0.000 HD
BRANCH  15  17
ATOM     17  N   UNL     1       7.263   6.218  18.347  0.00  0.00    +0.000 NA
ATOM     18  C   UNL     1       7.711   4.850  18.042  0.00  0.00    +0.000 C 
ATOM     19  C   UNL     1       7.446   7.064  17.159  0.00  0.00    +0.000 C 
ENDBRANCH  15  17
ENDBRANCH   5  15
TORSDOF 3
ENDMDL
MODEL 5
REMARK VINA RESULT:      -6.1      2.486      4.031
REMARK  Name = 
REMARK  6 active torsions:
REMARK  status: ('A' for Active; 'I' for Inactive)
REMARK    1  A    between atoms: C_1  and  C_2
REMARK    2  A    between atoms: C_5  and  N_6
REMARK    3  A    between atoms: N_6  and  N_7
REMARK    4  A    between atoms: N_7  and  C_8
REMARK    5  A    between atoms: N_7  and  C_9
REMARK    6  A    between atoms: N_12  and  C_13
REMARK                            x       y       z     vdW  Elec       q    Type
REMARK                         _______ _______ _______ _____ _____    ______ ____
ROOT
ATOM      1  C   UNL     1       6.954   4.535  19.114  0.00  0.00    +0.000 C 
ATOM      2  C   UNL     1       7.058   4.643  17.610  0.00  0.00    +0.000 C 
ATOM      3  O   UNL     1       8.154   4.455  17.078  0.00  0.00    +0.000 OA
ATOM      4  N   UNL     1       5.877   4.965  16.925  0.00  0.00    +0.000 N 
ATOM      5  C   UNL     1       4.657   5.456  17.589  0.00  0.00    +0.000 C 
ATOM      6  C   UNL     1       4.379   6.811  16.965  0.00  0.00    +0.000 C 
ATOM      7  C   UNL     1       5.042   6.756  15.609  0.00  0.00    +0.000 C 
ATOM      8  N   UNL     1       6.054   5.695  15.694  0.00  0.00    +0.000 N 
ENDROOT
BRANCH   8   9
ATOM      9  C   UNL     1       6.288   4.978  14.489  0.00  0.00    +0.000 A 
ATOM     10  C   UNL     1       5.336   4.043  14.029  0.00  0.00    +0.000 A 
ATOM     11  C   UNL     1       5.505   3.322  12.841  0.00  0.00    +0.000 A 
ATOM     12  C   UNL     1       6.621   3.549  12.051  0.00  0.00    +0.000 A 
ATOM     13  C   UNL     1       7.561   4.494  12.450  0.00  0.00    +0.000 A 
ATOM     14  C   UNL     1       7.397   5.195  13.658  0.00  0.00    +0.000 A 
ENDBRANCH   8   9
BRANCH   5  15
ATOM     15  N   UNL     1       3.597   4.457  17.407  0.00  0.00    +0.000 NA
ATOM     16  H   UNL     1       3.617   4.138  16.437  0.00  0.00    +0.000 HD
BRANCH  15  17
ATOM     17  N   UNL     1       3.690   3.343  18.371  0.00  0.00    +0.000 NA
ATOM     18  C   UNL     1       3.057   3.778  19.626  0.00  0.00    +0.000 C 
ATOM     19  C   UNL     1       3.022   2.126  17.889  0.00  0.00    +0.000 C 
ENDBRANCH  15  17
ENDBRANCH   5  15
TORSDOF 3
ENDMDL
MODEL 6
REMARK VINA RESULT:      -6.1      1.997      2.738
REMARK  Name = 
REMARK  6 active torsions:
REMARK  status: ('A' for Active; 'I' for Inactive)
REMARK    1  A    between atoms: C_1  and  C_2
REMARK    2  A    between atoms: C_5  and  N_6
REMARK    3  A    between atoms: N_6  and  N_7
REMARK    4  A    between atoms: N_7  and  C_8
REMARK    5  A    between atoms: N_7  and  C_9
REMARK    6  A    between atoms: N_12  and  C_13
REMARK                            x       y       z     vdW  Elec       q    Type
REMARK                         _______ _______ _______ _____ _____    ______ ____
ROOT
ATOM      1  C   UNL     1       1.770   5.412  18.299  0.00  0.00    +0.000 C 
ATOM      2  C   UNL     1       3.154   5.966  18.046  0.00  0.00    +0.000 C 
ATOM      3  O   UNL     1       3.314   7.188  18.068  0.00  0.00    +0.000 OA
ATOM      4  N   UNL     1       4.165   5.027  17.791  0.00  0.00    +0.000 N 
ATOM      5  C   UNL     1       3.903   3.607  17.494  0.00  0.00    +0.000 C 
ATOM      6  C   UNL     1       4.513   3.366  16.126  0.00  0.00    +0.000 C 
ATOM      7  C   UNL     1       5.586   4.422  15.988  0.00  0.00    +0.000 C 
ATOM      8  N   UNL     1       5.234   5.484  16.939  0.00  0.00    +0.000 N 
ENDROOT
BRANCH   8   9
ATOM      9  C   UNL     1       6.335   6.173  17.517  0.00  0.00    +0.000 A 
ATOM     10  C   UNL     1       6.670   7.469  17.071  0.00  0.00    +0.000 A 
ATOM     11  C   UNL     1       7.731   8.201  17.616  0.00  0.00    +0.000 A 
ATOM     12  C   UNL     1       8.469   7.667  18.662  0.00  0.00    +0.000 A 
ATOM     13  C   UNL     1       8.143   6.409  19.157  0.00  0.00    +0.000 A 
ATOM     14  C   UNL     1       7.091   5.670  18.587  0.00  0.00    +0.000 A 
ENDBRANCH   8   9
BRANCH   5  15
ATOM     15  N   UNL     1       4.466   2.797  18.579  0.00  0.00    +0.000 NA
ATOM     16  H   UNL     1       5.023   3.405  19.182  0.00  0.00    +0.000 HD
BRANCH  15  17
ATOM     17  N   UNL     1       3.438   2.047  19.326  0.00  0.00    +0.000 NA
ATOM     18  C   UNL     1       3.171   2.772  20.579  0.00  0.00    +0.000 C 
ATOM     19  C   UNL     1       2.184   1.910  18.571  0.00  0.00    +0.000 C 
ENDBRANCH  15  17
ENDBRANCH   5  15
TORSDOF 3
ENDMDL
MODEL 7
REMARK VINA RESULT:      -6.1      1.907      5.291
REMARK  Name = 
REMARK  6 active torsions:
REMARK  status: ('A' for Active; 'I' for Inactive)
REMARK    1  A    between atoms: C_1  and  C_2
REMARK    2  A    between atoms: C_5  and  N_6
REMARK    3  A    between atoms: N_6  and  N_7
REMARK    4  A    between atoms: N_7  and  C_8
REMARK    5  A    between atoms: N_7  and  C_9
REMARK    6  A    between atoms: N_12  and  C_13
REMARK                            x       y       z     vdW  Elec       q    Type
REMARK                         _______ _______ _______ _____ _____    ______ ____
ROOT
ATOM      1  C   UNL     1       4.826   7.231  15.930  0.00  0.00    +0.000 C 
ATOM      2  C   UNL     1       4.124   6.511  17.059  0.00  0.00    +0.000 C 
ATOM      3  O   UNL     1       3.131   7.034  17.566  0.00  0.00    +0.000 OA
ATOM      4  N   UNL     1       4.676   5.283  17.454  0.00  0.00    +0.000 N 
ATOM      5  C   UNL     1       6.008   4.815  17.032  0.00  0.00    +0.000 C 
ATOM      6  C   UNL     1       6.785   4.606  18.318  0.00  0.00    +0.000 C 
ATOM      7  C   UNL     1       5.730   4.367  19.374  0.00  0.00    +0.000 C 
ATOM      8  N   UNL     1       4.486   4.936  18.840  0.00  0.00    +0.000 N 
ENDROOT
BRANCH   8   9
ATOM      9  C   UNL     1       3.294   4.266  19.230  0.00  0.00    +0.000 A 
ATOM     10  C   UNL     1       2.451   4.837  20.206  0.00  0.00    +0.000 A 
ATOM     11  C   UNL     1       1.257   4.230  20.615  0.00  0.00    +0.000 A 
ATOM     12  C   UNL     1       0.849   3.045  20.022  0.00  0.00    +0.000 A 
ATOM     13  C   UNL     1       1.633   2.474  19.026  0.00  0.00    +0.000 A 
ATOM     14  C   UNL     1       2.843   3.075  18.638  0.00  0.00    +0.000 A 
ENDBRANCH   8   9
BRANCH   5  15
ATOM     15  N   UNL     1       5.836   3.613  16.207  0.00  0.00    +0.000 NA
ATOM     16  H   UNL     1       4.847   3.357  16.211  0.00  0.00    +0.000 HD
BRANCH  15  17
ATOM     17  N   UNL     1       6.374   3.774  14.842  0.00  0.00    +0.000 NA
ATOM     18  C   UNL     1       5.241   4.019  13.936  0.00  0.00    +0.000 C 
ATOM     19  C   UNL     1       7.324   4.891  14.742  0.00  0.00    +0.000 C 
ENDBRANCH  15  17
ENDBRANCH   5  15
TORSDOF 3
ENDMDL
MODEL 8
REMARK VINA RESULT:      -6.0      1.896      5.193
REMARK  Name = 
REMARK  6 active torsions:
REMARK  status: ('A' for Active; 'I' for Inactive)
REMARK    1  A    between atoms: C_1  and  C_2
REMARK    2  A    between atoms: C_5  and  N_6
REMARK    3  A    between atoms: N_6  and  N_7
REMARK    4  A    between atoms: N_7  and  C_8
REMARK    5  A    between atoms: N_7  and  C_9
REMARK    6  A    between atoms: N_12  and  C_13
REMARK                            x       y       z     vdW  Elec       q    Type
REMARK                         _______ _______ _______ _____ _____    ______ ____
ROOT
ATOM      1  C   UNL     1       4.830   7.280  15.949  0.00  0.00    +0.000 C 
ATOM      2  C   UNL     1       4.111   6.579  17.080  0.00  0.00    +0.000 C 
ATOM      3  O   UNL     1       3.132   7.129  17.588  0.00  0.00    +0.000 OA
ATOM      4  N   UNL     1       4.631   5.337  17.475  0.00  0.00    +0.000 N 
ATOM      5  C   UNL     1       5.949   4.834  17.051  0.00  0.00    +0.000 C 
ATOM      6  C   UNL     1       6.722   4.606  18.337  0.00  0.00    +0.000 C 
ATOM      7  C   UNL     1       5.663   4.396  19.394  0.00  0.00    +0.000 C 
ATOM      8  N   UNL     1       4.433   4.996  18.861  0.00  0.00    +0.000 N 
ENDROOT
BRANCH   8   9
ATOM      9  C   UNL     1       3.225   4.358  19.253  0.00  0.00    +0.000 A 
ATOM     10  C   UNL     1       2.862   3.121  18.681  0.00  0.00    +0.000 A 
ATOM     11  C   UNL     1       1.694   2.439  19.042  0.00  0.00    +0.000 A 
ATOM     12  C   UNL     1       0.869   2.961  20.027  0.00  0.00    +0.000 A 
ATOM     13  C   UNL     1       1.215   4.158  20.645  0.00  0.00    +0.000 A 
ATOM     14  C   UNL     1       2.377   4.850  20.258  0.00  0.00    +0.000 A 
ENDBRANCH   8   9
BRANCH   5  15
ATOM     15  N   UNL     1       5.744   3.636  16.228  0.00  0.00    +0.000 NA
ATOM     16  H   UNL     1       4.744   3.431  16.199  0.00  0.00    +0.000 HD
BRANCH  15  17
ATOM     17  N   UNL     1       6.335   3.760  14.881  0.00  0.00    +0.000 NA
ATOM     18  C   UNL     1       5.240   3.992  13.926  0.00  0.00    +0.000 C 
ATOM     19  C   UNL     1       7.298   4.867  14.791  0.00  0.00    +0.000 C 
ENDBRANCH  15  17
ENDBRANCH   5  15
TORSDOF 3
ENDMDL
MODEL 9
REMARK VINA RESULT:      -6.0      2.268      3.202
REMARK  Name = 
REMARK  6 active torsions:
REMARK  status: ('A' for Active; 'I' for Inactive)
REMARK    1  A    between atoms: C_1  and  C_2
REMARK    2  A    between atoms: C_5  and  N_6
REMARK    3  A    between atoms: N_6  and  N_7
REMARK    4  A    between atoms: N_7  and  C_8
REMARK    5  A    between atoms: N_7  and  C_9
REMARK    6  A    between atoms: N_12  and  C_13
REMARK                            x       y       z     vdW  Elec       q    Type
REMARK                         _______ _______ _______ _____ _____    ______ ____
ROOT
ATOM      1  C   UNL     1       2.098   5.377  18.111  0.00  0.00    +0.000 C 
ATOM      2  C   UNL     1       3.423   6.069  17.888  0.00  0.00    +0.000 C 
ATOM      3  O   UNL     1       3.441   7.299  17.812  0.00  0.00    +0.000 OA
ATOM      4  N   UNL     1       4.549   5.240  17.773  0.00  0.00    +0.000 N 
ATOM      5  C   UNL     1       4.470   3.780  17.588  0.00  0.00    +0.000 C 
ATOM      6  C   UNL     1       5.193   3.504  16.282  0.00  0.00    +0.000 C 
ATOM      7  C   UNL     1       6.145   4.665  16.112  0.00  0.00    +0.000 C 
ATOM      8  N   UNL     1       5.612   5.752  16.945  0.00  0.00    +0.000 N 
ENDROOT
BRANCH   8   9
ATOM      9  C   UNL     1       6.587   6.611  17.521  0.00  0.00    +0.000 A 
ATOM     10  C   UNL     1       7.440   6.130  18.537  0.00  0.00    +0.000 A 
ATOM     11  C   UNL     1       8.429   6.926  19.126  0.00  0.00    +0.000 A 
ATOM     12  C   UNL     1       8.623   8.225  18.682  0.00  0.00    +0.000 A 
ATOM     13  C   UNL     1       7.830   8.721  17.652  0.00  0.00    +0.000 A 
ATOM     14  C   UNL     1       6.821   7.924  17.083  0.00  0.00    +0.000 A 
ENDBRANCH   8   9
BRANCH   5  15
ATOM     15  N   UNL     1       5.051   3.133  18.770  0.00  0.00    +0.000 NA
ATOM     16  H   UNL     1       5.379   3.859  19.408  0.00  0.00    +0.000 HD
BRANCH  15  17
ATOM     17  N   UNL     1       4.120   2.188  19.418  0.00  0.00    +0.000 NA
ATOM     18  C   UNL     1       3.362   2.929  20.439  0.00  0.00    +0.000 C 
ATOM     19  C   UNL     1       3.182   1.580  18.464  0.00  0.00    +0.000 C 
ENDBRANCH  15  17
ENDBRANCH   5  15
TORSDOF 3
ENDMDL
