MODEL 1
REMARK VINA RESULT:      -9.2      0.000      0.000
REMARK  Name = 
REMARK  7 active torsions:
REMARK  status: ('A' for Active; 'I' for Inactive)
REMARK    1  A    between atoms: C_2  and  C_12
REMARK    2  A    between atoms: N_3  and  C_4
REMARK    3  A    between atoms: C_4  and  C_5
REMARK    4  A    between atoms: C_5  and  C_6
REMARK    5  A    between atoms: C_17  and  S_18
REMARK    6  A    between atoms: S_18  and  C_19
REMARK    7  A    between atoms: C_19  and  C_20
REMARK                            x       y       z     vdW  Elec       q    Type
REMARK                         _______ _______ _______ _____ _____    ______ ____
ROOT
ATOM      1  C   UNL     1       6.699   5.738  16.968  0.00  0.00    +0.000 A 
ATOM      2  C   UNL     1       7.336   5.472  15.736  0.00  0.00    +0.000 A 
ATOM      3  C   UNL     1       6.705   4.740  14.735  0.00  0.00    +0.000 A 
ATOM      4  C   UNL     1       5.424   4.257  14.948  0.00  0.00    +0.000 A 
ATOM      5  C   UNL     1       4.771   4.514  16.157  0.00  0.00    +0.000 A 
ATOM      6  C   UNL     1       5.393   5.247  17.193  0.00  0.00    +0.000 A 
ENDROOT
BRANCH   1   8
ATOM      7  O   UNL     1       8.006   5.997  18.914  0.00  0.00    +0.000 OA
ATOM      8  C   UNL     1       7.531   6.535  17.919  0.00  0.00    +0.000 C 
ATOM      9  N   UNL     1       7.774   7.854  17.618  0.00  0.00    +0.000 N 
ATOM     10  H   UNL     1       7.298   8.275  16.825  0.00  0.00    +0.000 HD
BRANCH   9  11
ATOM     11  C   UNL     1       8.574   8.699  18.481  0.00  0.00    +0.000 C 
BRANCH  11  12
ATOM     12  C   UNL     1       8.466  10.184  18.119  0.00  0.00    +0.000 C 
BRANCH  12  13
ATOM     13  C   UNL     1       9.630  10.966  18.681  0.00  0.00    +0.000 A 
ATOM     14  C   UNL     1      10.678  11.383  17.848  0.00  0.00    +0.000 A 
ATOM     15  C   UNL     1      11.783  12.049  18.382  0.00  0.00    +0.000 A 
ATOM     16  C   UNL     1      11.853  12.301  19.750  0.00  0.00    +0.000 A 
ATOM     17  C   UNL     1      10.813  11.897  20.585  0.00  0.00    +0.000 A 
ATOM     18  C   UNL     1       9.706  11.234  20.054  0.00  0.00    +0.000 A 
ENDBRANCH  12  13
ENDBRANCH  11  12
ENDBRANCH   9  11
ENDBRANCH   1   8
BRANCH   6  19
ATOM     19  S   UNL     1       4.422   5.577  18.677  0.00  0.00    +0.000 S 
BRANCH  19  20
ATOM     20  C   UNL     1       2.732   5.756  17.996  0.00  0.00    +0.000 C 
BRANCH  20  21
ATOM     21  C   UNL     1       1.880   4.502  18.187  0.00  0.00    +0.000 C 
ATOM     22  O   UNL     1       1.432   3.823  17.259  0.00  0.00    +0.000 OA
ATOM     23  N   UNL     1       1.668   4.117  19.505  0.00  0.00    +0.000 N 
ATOM     24  C   UNL     1       2.045   4.831  20.712  0.00  0.00    +0.000 C 
ATOM     25  C   UNL     1       2.285   3.714  21.712  0.00  0.00    +0.000 C 
ATOM     26  C   UNL     1       1.216   2.688  21.349  0.00  0.00    +0.000 C 
ATOM     27  C   UNL     1       1.016   2.858  19.842  0.00  0.00    +0.000 C 
ENDBRANCH  20  21
ENDBRANCH  19  20
ENDBRANCH   6  19
TORSDOF 7
ENDMDL
MODEL 2
REMARK VINA RESULT:      -9.1      1.291      1.464
REMARK  Name = 
REMARK  7 active torsions:
REMARK  status: ('A' for Active; 'I' for Inactive)
REMARK    1  A    between atoms: C_2  and  C_12
REMARK    2  A    between atoms: N_3  and  C_4
REMARK    3  A    between atoms: C_4  and  C_5
REMARK    4  A    between atoms: C_5  and  C_6
REMARK    5  A    between atoms: C_17  and  S_18
REMARK    6  A    between atoms: S_18  and  C_19
REMARK    7  A    between atoms: C_19  and  C_20
REMARK                            x       y       z     vdW  Elec       q    Type
REMARK                         _______ _______ _______ _____ _____    ______ ____
ROOT
ATOM      1  C   UNL     1       6.608   5.832  16.767  0.00  0.00    +0.000 A 
ATOM      2  C   UNL     1       7.414   5.143  15.833  0.00  0.00    +0.000 A 
ATOM      3  C   UNL     1       6.855   4.353  14.833  0.00  0.00    +0.000 A 
ATOM      4  C   UNL     1       5.477   4.235  14.749  0.00  0.00    +0.000 A 
ATOM      5  C   UNL     1       4.659   4.913  15.657  0.00  0.00    +0.000 A 
ATOM      6  C   UNL     1       5.202   5.714  16.687  0.00  0.00    +0.000 A 
ENDROOT
BRANCH   1   8
ATOM      7  O   UNL     1       7.732   6.106  18.821  0.00  0.00    +0.000 OA
ATOM      8  C   UNL     1       7.384   6.626  17.766  0.00  0.00    +0.000 C 
ATOM      9  N   UNL     1       7.722   7.919  17.444  0.00  0.00    +0.000 N 
ATOM     10  H   UNL     1       7.348   8.329  16.593  0.00  0.00    +0.000 HD
BRANCH   9  11
ATOM     11  C   UNL     1       8.478   8.758  18.350  0.00  0.00    +0.000 C 
BRANCH  11  12
ATOM     12  C   UNL     1       8.476  10.232  17.932  0.00  0.00    +0.000 C 
BRANCH  12  13
ATOM     13  C   UNL     1       9.616  10.983  18.579  0.00  0.00    +0.000 A 
ATOM     14  C   UNL     1      10.689  11.453  17.808  0.00  0.00    +0.000 A 
ATOM     15  C   UNL     1      11.772  12.088  18.417  0.00  0.00    +0.000 A 
ATOM     16  C   UNL     1      11.796  12.257  19.800  0.00  0.00    +0.000 A 
ATOM     17  C   UNL     1      10.731  11.800  20.574  0.00  0.00    +0.000 A 
ATOM     18  C   UNL     1       9.646  11.167  19.967  0.00  0.00    +0.000 A 
ENDBRANCH  12  13
ENDBRANCH  11  12
ENDBRANCH   9  11
ENDBRANCH   1   8
BRANCH   6  19
ATOM     19  S   UNL     1       4.044   6.597  17.751  0.00  0.00    +0.000 S 
BRANCH  19  20
ATOM     20  C   UNL     1       4.280   5.753  19.358  0.00  0.00    +0.000 C 
BRANCH  20  21
ATOM     21  C   UNL     1       4.314   4.231  19.230  0.00  0.00    +0.000 C 
ATOM     22  O   UNL     1       5.349   3.559  19.247  0.00  0.00    +0.000 OA
ATOM     23  N   UNL     1       3.074   3.611  19.140  0.00  0.00    +0.000 N 
ATOM     24  C   UNL     1       1.771   4.240  19.023  0.00  0.00    +0.000 C 
ATOM     25  C   UNL     1       0.848   3.250  19.711  0.00  0.00    +0.000 C 
ATOM     26  C   UNL     1       1.438   1.898  19.322  0.00  0.00    +0.000 C 
ATOM     27  C   UNL     1       2.937   2.161  19.175  0.00  0.00    +0.000 C 
ENDBRANCH  20  21
ENDBRANCH  19  20
ENDBRANCH   6  19
TORSDOF 7
ENDMDL
MODEL 3
REMARK VINA RESULT:      -8.8      1.526      2.011
REMARK  Name = 
REMARK  7 active torsions:
REMARK  status: ('A' for Active; 'I' for Inactive)
REMARK    1  A    between atoms: C_2  and  C_12
REMARK    2  A    between atoms: N_3  and  C_4
REMARK    3  A    between atoms: C_4  and  C_5
REMARK    4  A    between atoms: C_5  and  C_6
REMARK    5  A    between atoms: C_17  and  S_18
REMARK    6  A    between atoms: S_18  and  C_19
REMARK    7  A    between atoms: C_19  and  C_20
REMARK                            x       y       z     vdW  Elec       q    Type
REMARK                         _______ _______ _______ _____ _____    ______ ____
ROOT
ATOM      1  C   UNL     1       6.662   5.296  15.853  0.00  0.00    +0.000 A 
ATOM      2  C   UNL     1       7.470   5.224  14.697  0.00  0.00    +0.000 A 
ATOM      3  C   UNL     1       7.017   4.615  13.531  0.00  0.00    +0.000 A 
ATOM      4  C   UNL     1       5.746   4.063  13.499  0.00  0.00    +0.000 A 
ATOM      5  C   UNL     1       4.926   4.129  14.629  0.00  0.00    +0.000 A 
ATOM      6  C   UNL     1       5.365   4.735  15.828  0.00  0.00    +0.000 A 
ENDROOT
BRANCH   1   8
ATOM      7  O   UNL     1       7.686   5.331  17.977  0.00  0.00    +0.000 OA
ATOM      8  C   UNL     1       7.317   5.984  17.007  0.00  0.00    +0.000 C 
ATOM      9  N   UNL     1       7.524   7.340  16.919  0.00  0.00    +0.000 N 
ATOM     10  H   UNL     1       7.134   7.849  16.131  0.00  0.00    +0.000 HD
BRANCH   9  11
ATOM     11  C   UNL     1       8.157   8.086  17.988  0.00  0.00    +0.000 C 
BRANCH  11  12
ATOM     12  C   UNL     1       8.006   9.601  17.821  0.00  0.00    +0.000 C 
BRANCH  12  13
ATOM     13  C   UNL     1       9.157  10.336  18.466  0.00  0.00    +0.000 A 
ATOM     14  C   UNL     1       9.278  10.387  19.862  0.00  0.00    +0.000 A 
ATOM     15  C   UNL     1      10.306  11.122  20.456  0.00  0.00    +0.000 A 
ATOM     16  C   UNL     1      11.219  11.814  19.663  0.00  0.00    +0.000 A 
ATOM     17  C   UNL     1      11.112  11.763  18.274  0.00  0.00    +0.000 A 
ATOM     18  C   UNL     1      10.087  11.027  17.678  0.00  0.00    +0.000 A 
ENDBRANCH  12  13
ENDBRANCH  11  12
ENDBRANCH   9  11
ENDBRANCH   1   8
BRANCH   6  19
ATOM     19  S   UNL     1       4.190   4.824  17.193  0.00  0.00    +0.000 S 
BRANCH  19  20
ATOM     20  C   UNL     1       4.042   3.067  17.686  0.00  0.00    +0.000 C 
BRANCH  20  21
ATOM     21  C   UNL     1       4.130   2.866  19.198  0.00  0.00    +0.000 C 
ATOM     22  O   UNL     1       5.190   2.803  19.827  0.00  0.00    +0.000 OA
ATOM     23  N   UNL     1       2.912   2.806  19.866  0.00  0.00    +0.000 N 
ATOM     24  C   UNL     1       1.581   2.779  19.287  0.00  0.00    +0.000 C 
ATOM     25  C   UNL     1       0.733   3.463  20.344  0.00  0.00    +0.000 C 
ATOM     26  C   UNL     1       1.356   2.984  21.653  0.00  0.00    +0.000 C 
ATOM     27  C   UNL     1       2.835   2.780  21.321  0.00  0.00    +0.000 C 
ENDBRANCH  20  21
ENDBRANCH  19  20
ENDBRANCH   6  19
TORSDOF 7
ENDMDL
MODEL 4
REMARK VINA RESULT:      -8.8      1.243      1.795
REMARK  Name = 
REMARK  7 active torsions:
REMARK  status: ('A' for Active; 'I' for Inactive)
REMARK    1  A    between atoms: C_2  and  C_12
REMARK    2  A    between atoms: N_3  and  C_4
REMARK    3  A    between atoms: C_4  and  C_5
REMARK    4  A    between atoms: C_5  and  C_6
REMARK    5  A    between atoms: C_17  and  S_18
REMARK    6  A    between atoms: S_18  and  C_19
REMARK    7  A    between atoms: C_19  and  C_20
REMARK                            x       y       z     vdW  Elec       q    Type
REMARK                         _______ _______ _______ _____ _____    ______ ____
ROOT
ATOM      1  C   UNL     1       6.564   5.842  16.779  0.00  0.00    +0.000 A 
ATOM      2  C   UNL     1       7.394   5.139  15.876  0.00  0.00    +0.000 A 
ATOM      3  C   UNL     1       6.860   4.311  14.893  0.00  0.00    +0.000 A 
ATOM      4  C   UNL     1       5.486   4.168  14.795  0.00  0.00    +0.000 A 
ATOM      5  C   UNL     1       4.645   4.859  15.672  0.00  0.00    +0.000 A 
ATOM      6  C   UNL     1       5.161   5.699  16.685  0.00  0.00    +0.000 A 
ENDROOT
BRANCH   1   8
ATOM      7  O   UNL     1       7.637   6.202  18.847  0.00  0.00    +0.000 OA
ATOM      8  C   UNL     1       7.315   6.677  17.764  0.00  0.00    +0.000 C 
ATOM      9  N   UNL     1       7.659   7.957  17.398  0.00  0.00    +0.000 N 
ATOM     10  H   UNL     1       7.305   8.332  16.522  0.00  0.00    +0.000 HD
BRANCH   9  11
ATOM     11  C   UNL     1       8.391   8.834  18.288  0.00  0.00    +0.000 C 
BRANCH  11  12
ATOM     12  C   UNL     1       8.640  10.219  17.680  0.00  0.00    +0.000 C 
BRANCH  12  13
ATOM     13  C   UNL     1       9.619  11.011  18.515  0.00  0.00    +0.000 A 
ATOM     14  C   UNL     1       9.576  10.949  19.915  0.00  0.00    +0.000 A 
ATOM     15  C   UNL     1      10.439  11.732  20.684  0.00  0.00    +0.000 A 
ATOM     16  C   UNL     1      11.349  12.585  20.063  0.00  0.00    +0.000 A 
ATOM     17  C   UNL     1      11.405  12.648  18.672  0.00  0.00    +0.000 A 
ATOM     18  C   UNL     1      10.545  11.864  17.901  0.00  0.00    +0.000 A 
ENDBRANCH  12  13
ENDBRANCH  11  12
ENDBRANCH   9  11
ENDBRANCH   1   8
BRANCH   6  19
ATOM     19  S   UNL     1       3.976   6.594  17.707  0.00  0.00    +0.000 S 
BRANCH  19  20
ATOM     20  C   UNL     1       4.115   5.720  19.310  0.00  0.00    +0.000 C 
BRANCH  20  21
ATOM     21  C   UNL     1       2.765   5.243  19.845  0.00  0.00    +0.000 C 
ATOM     22  O   UNL     1       2.021   5.927  20.553  0.00  0.00    +0.000 OA
ATOM     23  N   UNL     1       2.376   3.972  19.439  0.00  0.00    +0.000 N 
ATOM     24  C   UNL     1       3.150   3.003  18.683  0.00  0.00    +0.000 C 
ATOM     25  C   UNL     1       2.088   2.239  17.914  0.00  0.00    +0.000 C 
ATOM     26  C   UNL     1       0.928   2.166  18.903  0.00  0.00    +0.000 C 
ATOM     27  C   UNL     1       1.049   3.446  19.732  0.00  0.00    +0.000 C 
ENDBRANCH  20  21
ENDBRANCH  19  20
ENDBRANCH   6  19
TORSDOF 7
ENDMDL
MODEL 5
REMARK VINA RESULT:      -8.6      0.897      1.309
REMARK  Name = 
REMARK  7 active torsions:
REMARK  status: ('A' for Active; 'I' for Inactive)
REMARK    1  A    between atoms: C_2  and  C_12
REMARK    2  A    between atoms: N_3  and  C_4
REMARK    3  A    between atoms: C_4  and  C_5
REMARK    4  A    between atoms: C_5  and  C_6
REMARK    5  A    between atoms: C_17  and  S_18
REMARK    6  A    between atoms: S_18  and  C_19
REMARK    7  A    between atoms: C_19  and  C_20
REMARK                            x       y       z     vdW  Elec       q    Type
REMARK                         _______ _______ _______ _____ _____    ______ ____
ROOT
ATOM      1  C   UNL     1       6.637   5.631  16.495  0.00  0.00    +0.000 A 
ATOM      2  C   UNL     1       7.477   5.257  15.422  0.00  0.00    +0.000 A 
ATOM      3  C   UNL     1       6.992   4.530  14.339  0.00  0.00    +0.000 A 
ATOM      4  C   UNL     1       5.657   4.161  14.309  0.00  0.00    +0.000 A 
ATOM      5  C   UNL     1       4.805   4.526  15.356  0.00  0.00    +0.000 A 
ATOM      6  C   UNL     1       5.275   5.256  16.472  0.00  0.00    +0.000 A 
ENDROOT
BRANCH   1   8
ATOM      7  O   UNL     1       7.629   5.854  18.623  0.00  0.00    +0.000 OA
ATOM      8  C   UNL     1       7.335   6.404  17.567  0.00  0.00    +0.000 C 
ATOM      9  N   UNL     1       7.665   7.713  17.310  0.00  0.00    +0.000 N 
ATOM     10  H   UNL     1       7.333   8.146  16.453  0.00  0.00    +0.000 HD
BRANCH   9  11
ATOM     11  C   UNL     1       8.345   8.535  18.290  0.00  0.00    +0.000 C 
BRANCH  11  12
ATOM     12  C   UNL     1       8.318  10.025  17.934  0.00  0.00    +0.000 C 
BRANCH  12  13
ATOM     13  C   UNL     1       9.471  10.759  18.577  0.00  0.00    +0.000 A 
ATOM     14  C   UNL     1       9.523  10.927  19.968  0.00  0.00    +0.000 A 
ATOM     15  C   UNL     1      10.556  11.662  20.552  0.00  0.00    +0.000 A 
ATOM     16  C   UNL     1      11.543  12.237  19.755  0.00  0.00    +0.000 A 
ATOM     17  C   UNL     1      11.505  12.069  18.372  0.00  0.00    +0.000 A 
ATOM     18  C   UNL     1      10.475  11.332  17.785  0.00  0.00    +0.000 A 
ENDBRANCH  12  13
ENDBRANCH  11  12
ENDBRANCH   9  11
ENDBRANCH   1   8
BRANCH   6  19
ATOM     19  S   UNL     1       4.066   5.732  17.723  0.00  0.00    +0.000 S 
BRANCH  19  20
ATOM     20  C   UNL     1       2.683   4.584  17.374  0.00  0.00    +0.000 C 
BRANCH  20  21
ATOM     21  C   UNL     1       2.809   3.258  18.121  0.00  0.00    +0.000 C 
ATOM     22  O   UNL     1       3.333   2.246  17.649  0.00  0.00    +0.000 OA
ATOM     23  N   UNL     1       2.334   3.260  19.427  0.00  0.00    +0.000 N 
ATOM     24  C   UNL     1       1.619   4.322  20.113  0.00  0.00    +0.000 C 
ATOM     25  C   UNL     1       2.030   4.133  21.562  0.00  0.00    +0.000 C 
ATOM     26  C   UNL     1       2.113   2.616  21.704  0.00  0.00    +0.000 C 
ATOM     27  C   UNL     1       2.531   2.123  20.317  0.00  0.00    +0.000 C 
ENDBRANCH  20  21
ENDBRANCH  19  20
ENDBRANCH   6  19
TORSDOF 7
ENDMDL
MODEL 6
REMARK VINA RESULT:      -8.5      0.933      1.379
REMARK  Name = 
REMARK  7 active torsions:
REMARK  status: ('A' for Active; 'I' for Inactive)
REMARK    1  A    between atoms: C_2  and  C_12
REMARK    2  A    between atoms: N_3  and  C_4
REMARK    3  A    between atoms: C_4  and  C_5
REMARK    4  A    between atoms: C_5  and  C_6
REMARK    5  A    between atoms: C_17  and  S_18
REMARK    6  A    between atoms: S_18  and  C_19
REMARK    7  A    between atoms: C_19  and  C_20
REMARK                            x       y       z     vdW  Elec       q    Type
REMARK                         _______ _______ _______ _____ _____    ______ ____
ROOT
ATOM      1  C   UNL     1       6.874   5.412  16.363  0.00  0.00    +0.000 A 
ATOM      2  C   UNL     1       7.534   5.537  15.120  0.00  0.00    +0.000 A 
ATOM      3  C   UNL     1       7.093   4.853  13.992  0.00  0.00    +0.000 A 
ATOM      4  C   UNL     1       5.983   4.028  14.085  0.00  0.00    +0.000 A 
ATOM      5  C   UNL     1       5.310   3.895  15.303  0.00  0.00    +0.000 A 
ATOM      6  C   UNL     1       5.743   4.572  16.466  0.00  0.00    +0.000 A 
ENDROOT
BRANCH   1   8
ATOM      7  O   UNL     1       7.851   5.667  18.494  0.00  0.00    +0.000 OA
ATOM      8  C   UNL     1       7.493   6.218  17.459  0.00  0.00    +0.000 C 
ATOM      9  N   UNL     1       7.678   7.563  17.247  0.00  0.00    +0.000 N 
ATOM     10  H   UNL     1       7.297   7.988  16.407  0.00  0.00    +0.000 HD
BRANCH   9  11
ATOM     11  C   UNL     1       8.274   8.419  18.253  0.00  0.00    +0.000 C 
BRANCH  11  12
ATOM     12  C   UNL     1       8.272   9.897  17.849  0.00  0.00    +0.000 C 
BRANCH  12  13
ATOM     13  C   UNL     1       9.391  10.649  18.530  0.00  0.00    +0.000 A 
ATOM     14  C   UNL     1       9.408  10.792  19.925  0.00  0.00    +0.000 A 
ATOM     15  C   UNL     1      10.408  11.543  20.546  0.00  0.00    +0.000 A 
ATOM     16  C   UNL     1      11.397  12.158  19.781  0.00  0.00    +0.000 A 
ATOM     17  C   UNL     1      11.393  12.015  18.395  0.00  0.00    +0.000 A 
ATOM     18  C   UNL     1      10.396  11.263  17.772  0.00  0.00    +0.000 A 
ENDBRANCH  12  13
ENDBRANCH  11  12
ENDBRANCH   9  11
ENDBRANCH   1   8
BRANCH   6  19
ATOM     19  S   UNL     1       4.749   4.378  17.958  0.00  0.00    +0.000 S 
BRANCH  19  20
ATOM     20  C   UNL     1       3.461   3.198  17.410  0.00  0.00    +0.000 C 
BRANCH  20  21
ATOM     21  C   UNL     1       2.107   3.451  18.071  0.00  0.00    +0.000 C 
ATOM     22  O   UNL     1       1.069   3.697  17.450  0.00  0.00    +0.000 OA
ATOM     23  N   UNL     1       2.086   3.335  19.456  0.00  0.00    +0.000 N 
ATOM     24  C   UNL     1       3.214   3.135  20.349  0.00  0.00    +0.000 C 
ATOM     25  C   UNL     1       2.606   2.354  21.500  0.00  0.00    +0.000 C 
ATOM     26  C   UNL     1       1.212   2.960  21.633  0.00  0.00    +0.000 C 
ATOM     27  C   UNL     1       0.842   3.387  20.212  0.00  0.00    +0.000 C 
ENDBRANCH  20  21
ENDBRANCH  19  20
ENDBRANCH   6  19
TORSDOF 7
ENDMDL
MODEL 7
REMARK VINA RESULT:      -8.4      1.477      2.538
REMARK  Name = 
REMARK  7 active torsions:
REMARK  status: ('A' for Active; 'I' for Inactive)
REMARK    1  A    between atoms: C_2  and  C_12
REMARK    2  A    between atoms: N_3  and  C_4
REMARK    3  A    between atoms: C_4  and  C_5
REMARK    4  A    between atoms: C_5  and  C_6
REMARK    5  A    between atoms: C_17  and  S_18
REMARK    6  A    between atoms: S_18  and  C_19
REMARK    7  A    between atoms: C_19  and  C_20
REMARK                            x       y       z     vdW  Elec       q    Type
REMARK                         _______ _______ _______ _____ _____    ______ ____
ROOT
ATOM      1  C   UNL     1       6.649   5.533  17.200  0.00  0.00    +0.000 A 
ATOM      2  C   UNL     1       6.877   5.748  15.823  0.00  0.00    +0.000 A 
ATOM      3  C   UNL     1       6.163   5.054  14.851  0.00  0.00    +0.000 A 
ATOM      4  C   UNL     1       5.207   4.128  15.240  0.00  0.00    +0.000 A 
ATOM      5  C   UNL     1       4.960   3.904  16.597  0.00  0.00    +0.000 A 
ATOM      6  C   UNL     1       5.678   4.590  17.603  0.00  0.00    +0.000 A 
ENDROOT
BRANCH   1   8
ATOM      7  O   UNL     1       8.020   5.867  19.090  0.00  0.00    +0.000 OA
ATOM      8  C   UNL     1       7.511   6.367  18.092  0.00  0.00    +0.000 C 
ATOM      9  N   UNL     1       7.740   7.674  17.734  0.00  0.00    +0.000 N 
ATOM     10  H   UNL     1       7.237   8.064  16.942  0.00  0.00    +0.000 HD
BRANCH   9  11
ATOM     11  C   UNL     1       8.566   8.552  18.537  0.00  0.00    +0.000 C 
BRANCH  11  12
ATOM     12  C   UNL     1       8.429  10.024  18.136  0.00  0.00    +0.000 C 
BRANCH  12  13
ATOM     13  C   UNL     1       9.572  10.846  18.684  0.00  0.00    +0.000 A 
ATOM     14  C   UNL     1       9.700  11.059  20.064  0.00  0.00    +0.000 A 
ATOM     15  C   UNL     1      10.720  11.873  20.561  0.00  0.00    +0.000 A 
ATOM     16  C   UNL     1      11.617  12.483  19.687  0.00  0.00    +0.000 A 
ATOM     17  C   UNL     1      11.502  12.271  18.314  0.00  0.00    +0.000 A 
ATOM     18  C   UNL     1      10.486  11.456  17.814  0.00  0.00    +0.000 A 
ENDBRANCH  12  13
ENDBRANCH  11  12
ENDBRANCH   9  11
ENDBRANCH   1   8
BRANCH   6  19
ATOM     19  S   UNL     1       5.218   4.270  19.317  0.00  0.00    +0.000 S 
BRANCH  19  20
ATOM     20  C   UNL     1       3.401   4.078  19.196  0.00  0.00    +0.000 C 
BRANCH  20  21
ATOM     21  C   UNL     1       2.639   5.113  20.022  0.00  0.00    +0.000 C 
ATOM     22  O   UNL     1       2.325   4.959  21.205  0.00  0.00    +0.000 OA
ATOM     23  N   UNL     1       2.350   6.305  19.368  0.00  0.00    +0.000 N 
ATOM     24  C   UNL     1       2.567   6.627  17.968  0.00  0.00    +0.000 C 
ATOM     25  C   UNL     1       2.812   8.125  17.994  0.00  0.00    +0.000 C 
ATOM     26  C   UNL     1       1.862   8.613  19.084  0.00  0.00    +0.000 C 
ATOM     27  C   UNL     1       1.775   7.445  20.069  0.00  0.00    +0.000 C 
ENDBRANCH  20  21
ENDBRANCH  19  20
ENDBRANCH   6  19
TORSDOF 7
ENDMDL
MODEL 8
REMARK VINA RESULT:      -8.4      2.197      3.015
REMARK  Name = 
REMARK  7 active torsions:
REMARK  status: ('A' for Active; 'I' for Inactive)
REMARK    1  A    between atoms: C_2  and  C_12
REMARK    2  A    between atoms: N_3  and  C_4
REMARK    3  A    between atoms: C_4  and  C_5
REMARK    4  A    between atoms: C_5  and  C_6
REMARK    5  A    between atoms: C_17  and  S_18
REMARK    6  A    between atoms: S_18  and  C_19
REMARK    7  A    between atoms: C_19  and  C_20
REMARK                            x       y       z     vdW  Elec       q    Type
REMARK                         _______ _______ _______ _____ _____    ______ ____
ROOT
ATOM      1  C   UNL     1       6.593   5.564  16.606  0.00  0.00    +0.000 A 
ATOM      2  C   UNL     1       7.282   5.419  15.381  0.00  0.00    +0.000 A 
ATOM      3  C   UNL     1       6.731   4.710  14.317  0.00  0.00    +0.000 A 
ATOM      4  C   UNL     1       5.481   4.132  14.459  0.00  0.00    +0.000 A 
ATOM      5  C   UNL     1       4.777   4.268  15.660  0.00  0.00    +0.000 A 
ATOM      6  C   UNL     1       5.318   4.975  16.758  0.00  0.00    +0.000 A 
ENDROOT
BRANCH   1   8
ATOM      7  O   UNL     1       7.709   5.815  18.668  0.00  0.00    +0.000 OA
ATOM      8  C   UNL     1       7.342   6.354  17.629  0.00  0.00    +0.000 C 
ATOM      9  N   UNL     1       7.634   7.667  17.348  0.00  0.00    +0.000 N 
ATOM     10  H   UNL     1       7.245   8.091  16.510  0.00  0.00    +0.000 HD
BRANCH   9  11
ATOM     11  C   UNL     1       8.360   8.505  18.280  0.00  0.00    +0.000 C 
BRANCH  11  12
ATOM     12  C   UNL     1       8.293   9.992  17.916  0.00  0.00    +0.000 C 
BRANCH  12  13
ATOM     13  C   UNL     1       9.403  10.766  18.586  0.00  0.00    +0.000 A 
ATOM     14  C   UNL     1      10.475  11.271  17.836  0.00  0.00    +0.000 A 
ATOM     15  C   UNL     1      11.532  11.929  18.468  0.00  0.00    +0.000 A 
ATOM     16  C   UNL     1      11.530  12.087  19.852  0.00  0.00    +0.000 A 
ATOM     17  C   UNL     1      10.466  11.595  20.606  0.00  0.00    +0.000 A 
ATOM     18  C   UNL     1       9.407  10.939  19.977  0.00  0.00    +0.000 A 
ENDBRANCH  12  13
ENDBRANCH  11  12
ENDBRANCH   9  11
ENDBRANCH   1   8
BRANCH   6  19
ATOM     19  S   UNL     1       4.285   5.146  18.226  0.00  0.00    +0.000 S 
BRANCH  19  20
ATOM     20  C   UNL     1       3.519   6.788  17.966  0.00  0.00    +0.000 C 
BRANCH  20  21
ATOM     21  C   UNL     1       2.556   7.177  19.087  0.00  0.00    +0.000 C 
ATOM     22  O   UNL     1       2.383   6.511  20.111  0.00  0.00    +0.000 OA
ATOM     23  N   UNL     1       1.895   8.387  18.915  0.00  0.00    +0.000 N 
ATOM     24  C   UNL     1       1.912   9.253  17.749  0.00  0.00    +0.000 C 
ATOM     25  C   UNL     1       1.723  10.636  18.345  0.00  0.00    +0.000 C 
ATOM     26  C   UNL     1       0.754  10.388  19.497  0.00  0.00    +0.000 C 
ATOM     27  C   UNL     1       1.071   8.968  19.967  0.00  0.00    +0.000 C 
ENDBRANCH  20  21
ENDBRANCH  19  20
ENDBRANCH   6  19
TORSDOF 7
ENDMDL
MODEL 9
REMARK VINA RESULT:      -8.4      3.381      6.205
REMARK  Name = 
REMARK  7 active torsions:
REMARK  status: ('A' for Active; 'I' for Inactive)
REMARK    1  A    between atoms: C_2  and  C_12
REMARK    2  A    between atoms: N_3  and  C_4
REMARK    3  A    between atoms: C_4  and  C_5
REMARK    4  A    between atoms: C_5  and  C_6
REMARK    5  A    between atoms: C_17  and  S_18
REMARK    6  A    between atoms: S_18  and  C_19
REMARK    7  A    between atoms: C_19  and  C_20
REMARK                            x       y       z     vdW  Elec       q    Type
REMARK                         _______ _______ _______ _____ _____    ______ ____
ROOT
ATOM      1  C   UNL     1       2.761   3.857  18.972  0.00  0.00    +0.000 A 
ATOM      2  C   UNL     1       2.718   2.597  19.609  0.00  0.00    +0.000 A 
ATOM      3  C   UNL     1       2.321   2.467  20.936  0.00  0.00    +0.000 A 
ATOM      4  C   UNL     1       1.960   3.596  21.653  0.00  0.00    +0.000 A 
ATOM      5  C   UNL     1       1.988   4.853  21.042  0.00  0.00    +0.000 A 
ATOM      6  C   UNL     1       2.396   5.013  19.698  0.00  0.00    +0.000 A 
ENDROOT
BRANCH   1   8
ATOM      7  O   UNL     1       2.416   3.510  16.665  0.00  0.00    +0.000 OA
ATOM      8  C   UNL     1       3.215   3.800  17.550  0.00  0.00    +0.000 C 
ATOM      9  N   UNL     1       4.523   4.120  17.274  0.00  0.00    +0.000 N 
ATOM     10  H   UNL     1       5.165   4.280  18.045  0.00  0.00    +0.000 HD
BRANCH   9  11
ATOM     11  C   UNL     1       5.046   4.096  15.923  0.00  0.00    +0.000 C 
BRANCH  11  12
ATOM     12  C   UNL     1       6.572   4.225  15.877  0.00  0.00    +0.000 C 
BRANCH  12  13
ATOM     13  C   UNL     1       7.065   5.217  16.903  0.00  0.00    +0.000 A 
ATOM     14  C   UNL     1       7.068   6.591  16.624  0.00  0.00    +0.000 A 
ATOM     15  C   UNL     1       7.585   7.500  17.549  0.00  0.00    +0.000 A 
ATOM     16  C   UNL     1       8.106   7.045  18.758  0.00  0.00    +0.000 A 
ATOM     17  C   UNL     1       8.101   5.682  19.049  0.00  0.00    +0.000 A 
ATOM     18  C   UNL     1       7.582   4.772  18.127  0.00  0.00    +0.000 A 
ENDBRANCH  12  13
ENDBRANCH  11  12
ENDBRANCH   9  11
ENDBRANCH   1   8
BRANCH   6  19
ATOM     19  S   UNL     1       2.320   6.673  18.999  0.00  0.00    +0.000 S 
BRANCH  19  20
ATOM     20  C   UNL     1       1.913   7.689  20.467  0.00  0.00    +0.000 C 
BRANCH  20  21
ATOM     21  C   UNL     1       1.233   9.009  20.105  0.00  0.00    +0.000 C 
ATOM     22  O   UNL     1       1.143   9.447  18.955  0.00  0.00    +0.000 OA
ATOM     23  N   UNL     1       0.653   9.693  21.166  0.00  0.00    +0.000 N 
ATOM     24  C   UNL     1       0.730   9.373  22.580  0.00  0.00    +0.000 C 
ATOM     25  C   UNL     1      -0.589   9.893  23.123  0.00  0.00    +0.000 C 
ATOM     26  C   UNL     1      -0.822  11.163  22.310  0.00  0.00    +0.000 C 
ATOM     27  C   UNL     1      -0.168  10.879  20.957  0.00  0.00    +0.000 C 
ENDBRANCH  20  21
ENDBRANCH  19  20
ENDBRANCH   6  19
TORSDOF 7
ENDMDL
