MODEL 1
REMARK VINA RESULT:      -7.6      0.000      0.000
REMARK  Name = 
REMARK  10 active torsions:
REMARK  status: ('A' for Active; 'I' for Inactive)
REMARK    1  A    between atoms: C_1  and  O_2
REMARK    2  A    between atoms: O_2  and  C_3
REMARK    3  A    between atoms: C_6  and  C_7
REMARK    4  A    between atoms: N_9  and  C_10
REMARK    5  A    between atoms: C_14  and  O_15
REMARK    6  A    between atoms: O_15  and  C_16
REMARK    7  A    between atoms: C_16  and  C_17
REMARK    8  A    between atoms: C_17  and  C_18
REMARK    9  A    between atoms: C_18  and  N_19
REMARK   10  A    between atoms: N_19  and  C_20
REMARK                            x       y       z     vdW  Elec       q    Type
REMARK                         _______ _______ _______ _____ _____    ______ ____
ROOT
ATOM      1  C   UNL     1       5.197   4.173  17.151  0.00  0.00    +0.000 C 
ATOM      2  C   UNL     1       4.961   4.437  15.614  0.00  0.00    +0.000 C 
ATOM      3  N   UNL     1       5.709   5.507  14.984  0.00  0.00    +0.000 NA
ATOM      4  C   UNL     1       7.145   5.212  15.033  0.00  0.00    +0.000 C 
ATOM      5  C   UNL     1       5.272   6.728  15.682  0.00  0.00    +0.000 C 
ATOM      6  C   UNL     1       5.780   6.728  17.109  0.00  0.00    +0.000 A 
ATOM      7  C   UNL     1       6.615   7.862  17.348  0.00  0.00    +0.000 A 
ATOM      8  C   UNL     1       7.819   7.752  18.023  0.00  0.00    +0.000 A 
ATOM      9  C   UNL     1       8.001   6.569  18.731  0.00  0.00    +0.000 A 
ATOM     10  C   UNL     1       7.001   5.485  18.682  0.00  0.00    +0.000 A 
ATOM     11  C   UNL     1       5.844   5.503  17.826  0.00  0.00    +0.000 A 
ENDROOT
BRANCH   1  15
ATOM     12  C   UNL     1       1.768   2.631  19.325  0.00  0.00    +0.000 A 
ATOM     13  C   UNL     1       1.659   3.702  18.431  0.00  0.00    +0.000 A 
ATOM     14  C   UNL     1       2.659   3.981  17.461  0.00  0.00    +0.000 A 
ATOM     15  C   UNL     1       3.872   3.250  17.371  0.00  0.00    +0.000 A 
ATOM     16  C   UNL     1       3.910   2.063  18.185  0.00  0.00    +0.000 A 
ATOM     17  C   UNL     1       2.870   1.795  19.164  0.00  0.00    +0.000 A 
BRANCH  12  19
ATOM     18  C   UNL     1       1.147   2.658  21.682  0.00  0.00    +0.000 C 
ATOM     19  O   UNL     1       0.810   2.615  20.301  0.00  0.00    +0.000 OA
ENDBRANCH  12  19
ENDBRANCH   1  15
BRANCH   8  20
ATOM     20  O   UNL     1       8.562   8.867  17.817  0.00  0.00    +0.000 OA
BRANCH  20  21
ATOM     21  C   UNL     1       8.999   9.892  18.706  0.00  0.00    +0.000 C 
BRANCH  21  22
ATOM     22  C   UNL     1       9.770  11.111  18.160  0.00  0.00    +0.000 C 
BRANCH  22  23
ATOM     23  C   UNL     1       8.946  12.408  17.994  0.00  0.00    +0.000 C 
BRANCH  23  24
ATOM     24  N   UNL     1       9.685  13.396  17.187  0.00  0.00    +0.000 NA
ATOM     25  H   UNL     1       9.039  13.875  16.561  0.00  0.00    +0.000 HD
BRANCH  24  26
ATOM     26  C   UNL     1      10.410  14.393  17.993  0.00  0.00    +0.000 C 
ATOM     27  C   UNL     1      11.858  14.198  18.367  0.00  0.00    +0.000 C 
ATOM     28  C   UNL     1      11.487  15.229  17.337  0.00  0.00    +0.000 C 
ENDBRANCH  24  26
ENDBRANCH  23  24
ENDBRANCH  22  23
ENDBRANCH  21  22
ENDBRANCH  20  21
ENDBRANCH   8  20
TORSDOF 8
ENDMDL
MODEL 2
REMARK VINA RESULT:      -7.3      0.803      1.068
REMARK  Name = 
REMARK  10 active torsions:
REMARK  status: ('A' for Active; 'I' for Inactive)
REMARK    1  A    between atoms: C_1  and  O_2
REMARK    2  A    between atoms: O_2  and  C_3
REMARK    3  A    between atoms: C_6  and  C_7
REMARK    4  A    between atoms: N_9  and  C_10
REMARK    5  A    between atoms: C_14  and  O_15
REMARK    6  A    between atoms: O_15  and  C_16
REMARK    7  A    between atoms: C_16  and  C_17
REMARK    8  A    between atoms: C_17  and  C_18
REMARK    9  A    between atoms: C_18  and  N_19
REMARK   10  A    between atoms: N_19  and  C_20
REMARK                            x       y       z     vdW  Elec       q    Type
REMARK                         _______ _______ _______ _____ _____    ______ ____
ROOT
ATOM      1  C   UNL     1       5.102   4.070  17.202  0.00  0.00    +0.000 C 
ATOM      2  C   UNL     1       4.895   4.266  15.651  0.00  0.00    +0.000 C 
ATOM      3  N   UNL     1       5.678   5.288  14.982  0.00  0.00    +0.000 NA
ATOM      4  C   UNL     1       7.105   4.962  15.068  0.00  0.00    +0.000 C 
ATOM      5  C   UNL     1       5.259   6.550  15.616  0.00  0.00    +0.000 C 
ATOM      6  C   UNL     1       5.746   6.607  17.049  0.00  0.00    +0.000 A 
ATOM      7  C   UNL     1       6.605   7.731  17.247  0.00  0.00    +0.000 A 
ATOM      8  C   UNL     1       7.796   7.625  17.945  0.00  0.00    +0.000 A 
ATOM      9  C   UNL     1       7.939   6.473  18.711  0.00  0.00    +0.000 A 
ATOM     10  C   UNL     1       6.915   5.411  18.697  0.00  0.00    +0.000 A 
ATOM     11  C   UNL     1       5.771   5.415  17.824  0.00  0.00    +0.000 A 
ENDROOT
BRANCH   1  15
ATOM     12  C   UNL     1       1.705   2.581  19.460  0.00  0.00    +0.000 A 
ATOM     13  C   UNL     1       1.601   3.686  18.607  0.00  0.00    +0.000 A 
ATOM     14  C   UNL     1       2.573   3.961  17.607  0.00  0.00    +0.000 A 
ATOM     15  C   UNL     1       3.753   3.190  17.445  0.00  0.00    +0.000 A 
ATOM     16  C   UNL     1       3.777   1.975  18.217  0.00  0.00    +0.000 A 
ATOM     17  C   UNL     1       2.767   1.712  19.228  0.00  0.00    +0.000 A 
BRANCH  12  19
ATOM     18  C   UNL     1       1.174   2.646  21.839  0.00  0.00    +0.000 C 
ATOM     19  O   UNL     1       0.786   2.567  20.473  0.00  0.00    +0.000 OA
ENDBRANCH  12  19
ENDBRANCH   1  15
BRANCH   8  20
ATOM     20  O   UNL     1       8.568   8.712  17.698  0.00  0.00    +0.000 OA
BRANCH  20  21
ATOM     21  C   UNL     1       8.522  10.042  18.208  0.00  0.00    +0.000 C 
BRANCH  21  22
ATOM     22  C   UNL     1       9.797  10.697  18.776  0.00  0.00    +0.000 C 
BRANCH  22  23
ATOM     23  C   UNL     1      10.244  12.006  18.086  0.00  0.00    +0.000 C 
BRANCH  23  24
ATOM     24  N   UNL     1       9.100  12.918  17.907  0.00  0.00    +0.000 NA
ATOM     25  H   UNL     1       8.331  12.619  18.505  0.00  0.00    +0.000 HD
BRANCH  24  26
ATOM     26  C   UNL     1       9.418  14.328  18.190  0.00  0.00    +0.000 C 
ATOM     27  C   UNL     1       8.399  15.420  17.979  0.00  0.00    +0.000 C 
ATOM     28  C   UNL     1       8.768  15.006  19.377  0.00  0.00    +0.000 C 
ENDBRANCH  24  26
ENDBRANCH  23  24
ENDBRANCH  22  23
ENDBRANCH  21  22
ENDBRANCH  20  21
ENDBRANCH   8  20
TORSDOF 8
ENDMDL
MODEL 3
REMARK VINA RESULT:      -7.3      1.269      1.498
REMARK  Name = 
REMARK  10 active torsions:
REMARK  status: ('A' for Active; 'I' for Inactive)
REMARK    1  A    between atoms: C_1  and  O_2
REMARK    2  A    between atoms: O_2  and  C_3
REMARK    3  A    between atoms: C_6  and  C_7
REMARK    4  A    between atoms: N_9  and  C_10
REMARK    5  A    between atoms: C_14  and  O_15
REMARK    6  A    between atoms: O_15  and  C_16
REMARK    7  A    between atoms: C_16  and  C_17
REMARK    8  A    between atoms: C_17  and  C_18
REMARK    9  A    between atoms: C_18  and  N_19
REMARK   10  A    between atoms: N_19  and  C_20
REMARK                            x       y       z     vdW  Elec       q    Type
REMARK                         _______ _______ _______ _____ _____    ______ ____
ROOT
ATOM      1  C   UNL     1       5.103   4.110  17.164  0.00  0.00    +0.000 C 
ATOM      2  C   UNL     1       4.870   4.360  15.624  0.00  0.00    +0.000 C 
ATOM      3  N   UNL     1       5.641   5.405  14.979  0.00  0.00    +0.000 NA
ATOM      4  C   UNL     1       7.070   5.079  15.030  0.00  0.00    +0.000 C 
ATOM      5  C   UNL     1       5.232   6.644  15.663  0.00  0.00    +0.000 C 
ATOM      6  C   UNL     1       5.742   6.651  17.089  0.00  0.00    +0.000 A 
ATOM      7  C   UNL     1       6.603   7.769  17.312  0.00  0.00    +0.000 A 
ATOM      8  C   UNL     1       7.806   7.640  17.987  0.00  0.00    +0.000 A 
ATOM      9  C   UNL     1       7.962   6.463  18.710  0.00  0.00    +0.000 A 
ATOM     10  C   UNL     1       6.938   5.401  18.675  0.00  0.00    +0.000 A 
ATOM     11  C   UNL     1       5.780   5.434  17.821  0.00  0.00    +0.000 A 
ENDROOT
BRANCH   1  15
ATOM     12  C   UNL     1       1.724   2.565  19.413  0.00  0.00    +0.000 A 
ATOM     13  C   UNL     1       1.612   3.686  18.582  0.00  0.00    +0.000 A 
ATOM     14  C   UNL     1       2.576   3.983  17.582  0.00  0.00    +0.000 A 
ATOM     15  C   UNL     1       3.758   3.220  17.398  0.00  0.00    +0.000 A 
ATOM     16  C   UNL     1       3.791   1.991  18.147  0.00  0.00    +0.000 A 
ATOM     17  C   UNL     1       2.788   1.705  19.158  0.00  0.00    +0.000 A 
BRANCH  12  19
ATOM     18  C   UNL     1       1.200   2.668  21.792  0.00  0.00    +0.000 C 
ATOM     19  O   UNL     1       0.811   2.528  20.431  0.00  0.00    +0.000 OA
ENDBRANCH  12  19
ENDBRANCH   1  15
BRANCH   8  20
ATOM     20  O   UNL     1       8.572   8.736  17.765  0.00  0.00    +0.000 OA
BRANCH  20  21
ATOM     21  C   UNL     1       8.868   9.867  18.582  0.00  0.00    +0.000 C 
BRANCH  21  22
ATOM     22  C   UNL     1       9.661  11.054  18.000  0.00  0.00    +0.000 C 
BRANCH  22  23
ATOM     23  C   UNL     1       9.296  12.446  18.564  0.00  0.00    +0.000 C 
BRANCH  23  24
ATOM     24  N   UNL     1      10.137  12.774  19.730  0.00  0.00    +0.000 NA
ATOM     25  H   UNL     1      11.107  12.870  19.432  0.00  0.00    +0.000 HD
BRANCH  24  26
ATOM     26  C   UNL     1       9.721  13.998  20.435  0.00  0.00    +0.000 C 
ATOM     27  C   UNL     1       8.332  14.141  21.006  0.00  0.00    +0.000 C 
ATOM     28  C   UNL     1       9.503  13.949  21.931  0.00  0.00    +0.000 C 
ENDBRANCH  24  26
ENDBRANCH  23  24
ENDBRANCH  22  23
ENDBRANCH  21  22
ENDBRANCH  20  21
ENDBRANCH   8  20
TORSDOF 8
ENDMDL
MODEL 4
REMARK VINA RESULT:      -6.9      5.256      7.896
REMARK  Name = 
REMARK  10 active torsions:
REMARK  status: ('A' for Active; 'I' for Inactive)
REMARK    1  A    between atoms: C_1  and  O_2
REMARK    2  A    between atoms: O_2  and  C_3
REMARK    3  A    between atoms: C_6  and  C_7
REMARK    4  A    between atoms: N_9  and  C_10
REMARK    5  A    between atoms: C_14  and  O_15
REMARK    6  A    between atoms: O_15  and  C_16
REMARK    7  A    between atoms: C_16  and  C_17
REMARK    8  A    between atoms: C_17  and  C_18
REMARK    9  A    between atoms: C_18  and  N_19
REMARK   10  A    between atoms: N_19  and  C_20
REMARK                            x       y       z     vdW  Elec       q    Type
REMARK                         _______ _______ _______ _____ _____    ______ ____
ROOT
ATOM      1  C   UNL     1       3.881   4.806  17.059  0.00  0.00    +0.000 C 
ATOM      2  C   UNL     1       3.324   3.413  17.548  0.00  0.00    +0.000 C 
ATOM      3  N   UNL     1       2.331   3.409  18.605  0.00  0.00    +0.000 NA
ATOM      4  C   UNL     1       1.114   4.091  18.151  0.00  0.00    +0.000 C 
ATOM      5  C   UNL     1       3.018   4.007  19.763  0.00  0.00    +0.000 C 
ATOM      6  C   UNL     1       3.277   5.479  19.519  0.00  0.00    +0.000 A 
ATOM      7  C   UNL     1       2.633   6.276  20.515  0.00  0.00    +0.000 A 
ATOM      8  C   UNL     1       1.919   7.416  20.186  0.00  0.00    +0.000 A 
ATOM      9  C   UNL     1       2.144   7.915  18.907  0.00  0.00    +0.000 A 
ATOM     10  C   UNL     1       3.023   7.210  17.954  0.00  0.00    +0.000 A 
ATOM     11  C   UNL     1       3.610   5.921  18.210  0.00  0.00    +0.000 A 
ENDROOT
BRANCH   1  15
ATOM     12  C   UNL     1       7.310   4.957  14.398  0.00  0.00    +0.000 A 
ATOM     13  C   UNL     1       7.437   5.131  15.780  0.00  0.00    +0.000 A 
ATOM     14  C   UNL     1       6.418   4.734  16.688  0.00  0.00    +0.000 A 
ATOM     15  C   UNL     1       5.171   4.204  16.265  0.00  0.00    +0.000 A 
ATOM     16  C   UNL     1       5.108   3.887  14.862  0.00  0.00    +0.000 A 
ATOM     17  C   UNL     1       6.167   4.296  13.955  0.00  0.00    +0.000 A 
BRANCH  12  19
ATOM     18  C   UNL     1       8.148   5.813  12.274  0.00  0.00    +0.000 C 
ATOM     19  O   UNL     1       8.299   5.553  13.664  0.00  0.00    +0.000 OA
ENDBRANCH  12  19
ENDBRANCH   1  15
BRANCH   8  20
ATOM     20  O   UNL     1       1.137   7.783  21.231  0.00  0.00    +0.000 OA
BRANCH  20  21
ATOM     21  C   UNL     1       1.088   8.980  22.003  0.00  0.00    +0.000 C 
BRANCH  21  22
ATOM     22  C   UNL     1      -0.222   9.394  22.704  0.00  0.00    +0.000 C 
BRANCH  22  23
ATOM     23  C   UNL     1      -0.607  10.886  22.580  0.00  0.00    +0.000 C 
BRANCH  23  24
ATOM     24  N   UNL     1      -0.149  11.439  21.292  0.00  0.00    +0.000 NA
ATOM     25  H   UNL     1       0.739  11.008  21.036  0.00  0.00    +0.000 HD
BRANCH  24  26
ATOM     26  C   UNL     1      -1.113  11.258  20.194  0.00  0.00    +0.000 C 
ATOM     27  C   UNL     1      -0.943  11.969  18.875  0.00  0.00    +0.000 C 
ATOM     28  C   UNL     1      -0.690  10.489  18.962  0.00  0.00    +0.000 C 
ENDBRANCH  24  26
ENDBRANCH  23  24
ENDBRANCH  22  23
ENDBRANCH  21  22
ENDBRANCH  20  21
ENDBRANCH   8  20
TORSDOF 8
ENDMDL
MODEL 5
REMARK VINA RESULT:      -6.8      5.321      7.945
REMARK  Name = 
REMARK  10 active torsions:
REMARK  status: ('A' for Active; 'I' for Inactive)
REMARK    1  A    between atoms: C_1  and  O_2
REMARK    2  A    between atoms: O_2  and  C_3
REMARK    3  A    between atoms: C_6  and  C_7
REMARK    4  A    between atoms: N_9  and  C_10
REMARK    5  A    between atoms: C_14  and  O_15
REMARK    6  A    between atoms: O_15  and  C_16
REMARK    7  A    between atoms: C_16  and  C_17
REMARK    8  A    between atoms: C_17  and  C_18
REMARK    9  A    between atoms: C_18  and  N_19
REMARK   10  A    between atoms: N_19  and  C_20
REMARK                            x       y       z     vdW  Elec       q    Type
REMARK                         _______ _______ _______ _____ _____    ______ ____
ROOT
ATOM      1  C   UNL     1       3.939   4.645  17.157  0.00  0.00    +0.000 C 
ATOM      2  C   UNL     1       3.424   3.234  17.639  0.00  0.00    +0.000 C 
ATOM      3  N   UNL     1       2.417   3.197  18.683  0.00  0.00    +0.000 NA
ATOM      4  C   UNL     1       1.183   3.837  18.212  0.00  0.00    +0.000 C 
ATOM      5  C   UNL     1       3.067   3.819  19.849  0.00  0.00    +0.000 C 
ATOM      6  C   UNL     1       3.278   5.299  19.608  0.00  0.00    +0.000 A 
ATOM      7  C   UNL     1       2.593   6.074  20.593  0.00  0.00    +0.000 A 
ATOM      8  C   UNL     1       1.845   7.189  20.254  0.00  0.00    +0.000 A 
ATOM      9  C   UNL     1       2.071   7.694  18.978  0.00  0.00    +0.000 A 
ATOM     10  C   UNL     1       2.986   7.019  18.038  0.00  0.00    +0.000 A 
ATOM     11  C   UNL     1       3.614   5.751  18.303  0.00  0.00    +0.000 A 
ENDROOT
BRANCH   1  15
ATOM     12  C   UNL     1       7.325   4.876  14.447  0.00  0.00    +0.000 A 
ATOM     13  C   UNL     1       7.452   5.137  15.816  0.00  0.00    +0.000 A 
ATOM     14  C   UNL     1       6.471   4.724  16.758  0.00  0.00    +0.000 A 
ATOM     15  C   UNL     1       5.259   4.088  16.381  0.00  0.00    +0.000 A 
ATOM     16  C   UNL     1       5.206   3.688  14.999  0.00  0.00    +0.000 A 
ATOM     17  C   UNL     1       6.227   4.115  14.058  0.00  0.00    +0.000 A 
BRANCH  12  19
ATOM     18  C   UNL     1       8.055   5.723  12.281  0.00  0.00    +0.000 C 
ATOM     19  O   UNL     1       8.264   5.495  13.669  0.00  0.00    +0.000 OA
ENDBRANCH  12  19
ENDBRANCH   1  15
BRANCH   8  20
ATOM     20  O   UNL     1       1.037   7.528  21.288  0.00  0.00    +0.000 OA
BRANCH  20  21
ATOM     21  C   UNL     1       0.162   8.637  21.482  0.00  0.00    +0.000 C 
BRANCH  21  22
ATOM     22  C   UNL     1       0.211   9.439  22.798  0.00  0.00    +0.000 C 
BRANCH  22  23
ATOM     23  C   UNL     1      -0.991  10.374  23.060  0.00  0.00    +0.000 C 
BRANCH  23  24
ATOM     24  N   UNL     1      -0.563  11.785  23.067  0.00  0.00    +0.000 NA
ATOM     25  H   UNL     1       0.312  11.871  23.582  0.00  0.00    +0.000 HD
BRANCH  24  26
ATOM     26  C   UNL     1      -0.394  12.358  21.721  0.00  0.00    +0.000 C 
ATOM     27  C   UNL     1      -1.275  13.479  21.229  0.00  0.00    +0.000 C 
ATOM     28  C   UNL     1       0.160  13.760  21.582  0.00  0.00    +0.000 C 
ENDBRANCH  24  26
ENDBRANCH  23  24
ENDBRANCH  22  23
ENDBRANCH  21  22
ENDBRANCH  20  21
ENDBRANCH   8  20
TORSDOF 8
ENDMDL
MODEL 6
REMARK VINA RESULT:      -6.6      8.400     11.122
REMARK  Name = 
REMARK  10 active torsions:
REMARK  status: ('A' for Active; 'I' for Inactive)
REMARK    1  A    between atoms: C_1  and  O_2
REMARK    2  A    between atoms: O_2  and  C_3
REMARK    3  A    between atoms: C_6  and  C_7
REMARK    4  A    between atoms: N_9  and  C_10
REMARK    5  A    between atoms: C_14  and  O_15
REMARK    6  A    between atoms: O_15  and  C_16
REMARK    7  A    between atoms: C_16  and  C_17
REMARK    8  A    between atoms: C_17  and  C_18
REMARK    9  A    between atoms: C_18  and  N_19
REMARK   10  A    between atoms: N_19  and  C_20
REMARK                            x       y       z     vdW  Elec       q    Type
REMARK                         _______ _______ _______ _____ _____    ______ ____
ROOT
ATOM      1  C   UNL     1      -1.692  12.493  20.083  0.00  0.00    +0.000 C 
ATOM      2  C   UNL     1      -0.956  13.007  21.380  0.00  0.00    +0.000 C 
ATOM      3  N   UNL     1       0.332  12.427  21.707  0.00  0.00    +0.000 NA
ATOM      4  C   UNL     1       1.304  12.738  20.653  0.00  0.00    +0.000 C 
ATOM      5  C   UNL     1       0.052  10.998  21.931  0.00  0.00    +0.000 C 
ATOM      6  C   UNL     1      -0.324  10.324  20.628  0.00  0.00    +0.000 A 
ATOM      7  C   UNL     1       0.588   9.268  20.325  0.00  0.00    +0.000 A 
ATOM      8  C   UNL     1       1.111   9.098  19.054  0.00  0.00    +0.000 A 
ATOM      9  C   UNL     1       0.455   9.787  18.040  0.00  0.00    +0.000 A 
ATOM     10  C   UNL     1      -0.667  10.699  18.336  0.00  0.00    +0.000 A 
ATOM     11  C   UNL     1      -1.090  11.041  19.669  0.00  0.00    +0.000 A 
ENDROOT
BRANCH   1  15
ATOM     12  C   UNL     1      -5.577  12.571  22.023  0.00  0.00    +0.000 A 
ATOM     13  C   UNL     1      -4.456  13.193  22.583  0.00  0.00    +0.000 A 
ATOM     14  C   UNL     1      -3.296  13.489  21.818  0.00  0.00    +0.000 A 
ATOM     15  C   UNL     1      -3.151  13.113  20.457  0.00  0.00    +0.000 A 
ATOM     16  C   UNL     1      -4.359  12.616  19.850  0.00  0.00    +0.000 A 
ATOM     17  C   UNL     1      -5.535  12.329  20.652  0.00  0.00    +0.000 A 
BRANCH  12  19
ATOM     18  C   UNL     1      -7.915  12.223  22.622  0.00  0.00    +0.000 C 
ATOM     19  O   UNL     1      -6.528  12.201  22.934  0.00  0.00    +0.000 OA
ENDBRANCH  12  19
ENDBRANCH   1  15
BRANCH   8  20
ATOM     20  O   UNL     1       2.184   8.271  19.109  0.00  0.00    +0.000 OA
BRANCH  20  21
ATOM     21  C   UNL     1       2.855   7.521  18.099  0.00  0.00    +0.000 C 
BRANCH  21  22
ATOM     22  C   UNL     1       2.869   5.980  18.162  0.00  0.00    +0.000 C 
BRANCH  22  23
ATOM     23  C   UNL     1       3.914   5.355  19.114  0.00  0.00    +0.000 C 
BRANCH  23  24
ATOM     24  N   UNL     1       3.354   4.178  19.803  0.00  0.00    +0.000 NA
ATOM     25  H   UNL     1       3.778   4.092  20.726  0.00  0.00    +0.000 HD
BRANCH  24  26
ATOM     26  C   UNL     1       1.889   4.216  19.943  0.00  0.00    +0.000 C 
ATOM     27  C   UNL     1       1.031   3.043  19.540  0.00  0.00    +0.000 C 
ATOM     28  C   UNL     1       1.227   3.356  20.997  0.00  0.00    +0.000 C 
ENDBRANCH  24  26
ENDBRANCH  23  24
ENDBRANCH  22  23
ENDBRANCH  21  22
ENDBRANCH  20  21
ENDBRANCH   8  20
TORSDOF 8
ENDMDL
MODEL 7
REMARK VINA RESULT:      -6.6      5.233      8.152
REMARK  Name = 
REMARK  10 active torsions:
REMARK  status: ('A' for Active; 'I' for Inactive)
REMARK    1  A    between atoms: C_1  and  O_2
REMARK    2  A    between atoms: O_2  and  C_3
REMARK    3  A    between atoms: C_6  and  C_7
REMARK    4  A    between atoms: N_9  and  C_10
REMARK    5  A    between atoms: C_14  and  O_15
REMARK    6  A    between atoms: O_15  and  C_16
REMARK    7  A    between atoms: C_16  and  C_17
REMARK    8  A    between atoms: C_17  and  C_18
REMARK    9  A    between atoms: C_18  and  N_19
REMARK   10  A    between atoms: N_19  and  C_20
REMARK                            x       y       z     vdW  Elec       q    Type
REMARK                         _______ _______ _______ _____ _____    ______ ____
ROOT
ATOM      1  C   UNL     1       4.118   4.941  16.943  0.00  0.00    +0.000 C 
ATOM      2  C   UNL     1       3.635   3.535  17.469  0.00  0.00    +0.000 C 
ATOM      3  N   UNL     1       2.630   3.508  18.515  0.00  0.00    +0.000 NA
ATOM      4  C   UNL     1       1.382   4.103  18.025  0.00  0.00    +0.000 C 
ATOM      5  C   UNL     1       3.266   4.180  19.660  0.00  0.00    +0.000 C 
ATOM      6  C   UNL     1       3.443   5.657  19.372  0.00  0.00    +0.000 A 
ATOM      7  C   UNL     1       2.740   6.447  20.333  0.00  0.00    +0.000 A 
ATOM      8  C   UNL     1       1.967   7.533  19.959  0.00  0.00    +0.000 A 
ATOM      9  C   UNL     1       2.180   8.002  18.668  0.00  0.00    +0.000 A 
ATOM     10  C   UNL     1       3.110   7.319  17.748  0.00  0.00    +0.000 A 
ATOM     11  C   UNL     1       3.767   6.075  18.053  0.00  0.00    +0.000 A 
ENDROOT
BRANCH   1  15
ATOM     12  C   UNL     1       7.156   4.868  13.840  0.00  0.00    +0.000 A 
ATOM     13  C   UNL     1       7.345   5.550  15.047  0.00  0.00    +0.000 A 
ATOM     14  C   UNL     1       6.544   5.294  16.192  0.00  0.00    +0.000 A 
ATOM     15  C   UNL     1       5.450   4.390  16.183  0.00  0.00    +0.000 A 
ATOM     16  C   UNL     1       5.358   3.585  14.993  0.00  0.00    +0.000 A 
ATOM     17  C   UNL     1       6.194   3.861  13.837  0.00  0.00    +0.000 A 
BRANCH  12  19
ATOM     18  C   UNL     1       9.152   5.984  12.995  0.00  0.00    +0.000 C 
ATOM     19  O   UNL     1       7.889   5.361  12.796  0.00  0.00    +0.000 OA
ENDBRANCH  12  19
ENDBRANCH   1  15
BRANCH   8  20
ATOM     20  O   UNL     1       1.152   7.886  20.983  0.00  0.00    +0.000 OA
BRANCH  20  21
ATOM     21  C   UNL     1       0.679   9.157  21.422  0.00  0.00    +0.000 C 
BRANCH  21  22
ATOM     22  C   UNL     1      -0.465   9.860  20.665  0.00  0.00    +0.000 C 
BRANCH  22  23
ATOM     23  C   UNL     1      -0.035  10.776  19.497  0.00  0.00    +0.000 C 
BRANCH  23  24
ATOM     24  N   UNL     1      -1.191  11.116  18.646  0.00  0.00    +0.000 NA
ATOM     25  H   UNL     1      -0.918  11.832  17.974  0.00  0.00    +0.000 HD
BRANCH  24  26
ATOM     26  C   UNL     1      -1.754   9.962  17.926  0.00  0.00    +0.000 C 
ATOM     27  C   UNL     1      -3.231   9.862  17.636  0.00  0.00    +0.000 C 
ATOM     28  C   UNL     1      -2.271  10.153  16.517  0.00  0.00    +0.000 C 
ENDBRANCH  24  26
ENDBRANCH  23  24
ENDBRANCH  22  23
ENDBRANCH  21  22
ENDBRANCH  20  21
ENDBRANCH   8  20
TORSDOF 8
ENDMDL
MODEL 8
REMARK VINA RESULT:      -6.5      8.252     10.234
REMARK  Name = 
REMARK  10 active torsions:
REMARK  status: ('A' for Active; 'I' for Inactive)
REMARK    1  A    between atoms: C_1  and  O_2
REMARK    2  A    between atoms: O_2  and  C_3
REMARK    3  A    between atoms: C_6  and  C_7
REMARK    4  A    between atoms: N_9  and  C_10
REMARK    5  A    between atoms: C_14  and  O_15
REMARK    6  A    between atoms: O_15  and  C_16
REMARK    7  A    between atoms: C_16  and  C_17
REMARK    8  A    between atoms: C_17  and  C_18
REMARK    9  A    between atoms: C_18  and  N_19
REMARK   10  A    between atoms: N_19  and  C_20
REMARK                            x       y       z     vdW  Elec       q    Type
REMARK                         _______ _______ _______ _____ _____    ______ ____
ROOT
ATOM      1  C   UNL     1       1.815   8.557  19.910  0.00  0.00    +0.000 C 
ATOM      2  C   UNL     1       1.979   8.944  18.390  0.00  0.00    +0.000 C 
ATOM      3  N   UNL     1       1.318  10.146  17.919  0.00  0.00    +0.000 NA
ATOM      4  C   UNL     1       1.869  11.322  18.601  0.00  0.00    +0.000 C 
ATOM      5  C   UNL     1      -0.117   9.887  18.125  0.00  0.00    +0.000 C 
ATOM      6  C   UNL     1      -0.440   9.859  19.604  0.00  0.00    +0.000 A 
ATOM      7  C   UNL     1      -1.400  10.864  19.932  0.00  0.00    +0.000 A 
ATOM      8  C   UNL     1      -1.255  11.677  21.043  0.00  0.00    +0.000 A 
ATOM      9  C   UNL     1      -0.325  11.244  21.983  0.00  0.00    +0.000 A 
ATOM     10  C   UNL     1       0.499  10.044  21.748  0.00  0.00    +0.000 A 
ATOM     11  C   UNL     1       0.504   9.306  20.512  0.00  0.00    +0.000 A 
ENDROOT
BRANCH   1  15
ATOM     12  C   UNL     1       1.552   4.384  18.735  0.00  0.00    +0.000 A 
ATOM     13  C   UNL     1       2.143   5.350  17.913  0.00  0.00    +0.000 A 
ATOM     14  C   UNL     1       2.560   6.614  18.412  0.00  0.00    +0.000 A 
ATOM     15  C   UNL     1       2.343   7.023  19.753  0.00  0.00    +0.000 A 
ATOM     16  C   UNL     1       1.878   5.975  20.624  0.00  0.00    +0.000 A 
ATOM     17  C   UNL     1       1.466   4.688  20.091  0.00  0.00    +0.000 A 
BRANCH  12  19
ATOM     18  C   UNL     1       0.845   2.051  18.702  0.00  0.00    +0.000 C 
ATOM     19  O   UNL     1       1.052   3.304  18.061  0.00  0.00    +0.000 OA
ENDBRANCH  12  19
ENDBRANCH   1  15
BRANCH   8  20
ATOM     20  O   UNL     1      -2.084  12.744  20.939  0.00  0.00    +0.000 OA
BRANCH  20  21
ATOM     21  C   UNL     1      -2.311  13.856  21.802  0.00  0.00    +0.000 C 
BRANCH  21  22
ATOM     22  C   UNL     1      -3.406  13.783  22.885  0.00  0.00    +0.000 C 
BRANCH  22  23
ATOM     23  C   UNL     1      -3.527  12.434  23.629  0.00  0.00    +0.000 C 
BRANCH  23  24
ATOM     24  N   UNL     1      -4.873  12.276  24.209  0.00  0.00    +0.000 NA
ATOM     25  H   UNL     1      -4.831  12.443  25.214  0.00  0.00    +0.000 HD
BRANCH  24  26
ATOM     26  C   UNL     1      -5.883  13.165  23.610  0.00  0.00    +0.000 C 
ATOM     27  C   UNL     1      -7.049  12.614  22.828  0.00  0.00    +0.000 C 
ATOM     28  C   UNL     1      -7.278  13.196  24.196  0.00  0.00    +0.000 C 
ENDBRANCH  24  26
ENDBRANCH  23  24
ENDBRANCH  22  23
ENDBRANCH  21  22
ENDBRANCH  20  21
ENDBRANCH   8  20
TORSDOF 8
ENDMDL
MODEL 9
REMARK VINA RESULT:      -6.4      8.288     10.421
REMARK  Name = 
REMARK  10 active torsions:
REMARK  status: ('A' for Active; 'I' for Inactive)
REMARK    1  A    between atoms: C_1  and  O_2
REMARK    2  A    between atoms: O_2  and  C_3
REMARK    3  A    between atoms: C_6  and  C_7
REMARK    4  A    between atoms: N_9  and  C_10
REMARK    5  A    between atoms: C_14  and  O_15
REMARK    6  A    between atoms: O_15  and  C_16
REMARK    7  A    between atoms: C_16  and  C_17
REMARK    8  A    between atoms: C_17  and  C_18
REMARK    9  A    between atoms: C_18  and  N_19
REMARK   10  A    between atoms: N_19  and  C_20
REMARK                            x       y       z     vdW  Elec       q    Type
REMARK                         _______ _______ _______ _____ _____    ______ ____
ROOT
ATOM      1  C   UNL     1       1.866   8.519  19.325  0.00  0.00    +0.000 C 
ATOM      2  C   UNL     1       1.930   9.239  17.922  0.00  0.00    +0.000 C 
ATOM      3  N   UNL     1       1.332  10.555  17.805  0.00  0.00    +0.000 NA
ATOM      4  C   UNL     1       2.035  11.504  18.675  0.00  0.00    +0.000 C 
ATOM      5  C   UNL     1      -0.096  10.343  18.094  0.00  0.00    +0.000 C 
ATOM      6  C   UNL     1      -0.292   9.990  19.553  0.00  0.00    +0.000 A 
ATOM      7  C   UNL     1      -1.134  10.948  20.196  0.00  0.00    +0.000 A 
ATOM      8  C   UNL     1      -0.827  11.470  21.442  0.00  0.00    +0.000 A 
ATOM      9  C   UNL     1       0.141  10.775  22.159  0.00  0.00    +0.000 A 
ATOM     10  C   UNL     1       0.841   9.614  21.575  0.00  0.00    +0.000 A 
ATOM     11  C   UNL     1       0.678   9.185  20.211  0.00  0.00    +0.000 A 
ENDROOT
BRANCH   1  15
ATOM     12  C   UNL     1       4.158   4.834  19.154  0.00  0.00    +0.000 A 
ATOM     13  C   UNL     1       2.991   4.947  19.920  0.00  0.00    +0.000 A 
ATOM     14  C   UNL     1       2.050   5.991  19.711  0.00  0.00    +0.000 A 
ATOM     15  C   UNL     1       2.251   7.035  18.772  0.00  0.00    +0.000 A 
ATOM     16  C   UNL     1       3.369   6.829  17.888  0.00  0.00    +0.000 A 
ATOM     17  C   UNL     1       4.313   5.749  18.117  0.00  0.00    +0.000 A 
BRANCH  12  19
ATOM     18  C   UNL     1       4.604   2.572  19.946  0.00  0.00    +0.000 C 
ATOM     19  O   UNL     1       5.033   3.884  19.603  0.00  0.00    +0.000 OA
ENDBRANCH  12  19
ENDBRANCH   1  15
BRANCH   8  20
ATOM     20  O   UNL     1      -1.572  12.580  21.667  0.00  0.00    +0.000 OA
BRANCH  20  21
ATOM     21  C   UNL     1      -2.221  13.064  22.840  0.00  0.00    +0.000 C 
BRANCH  21  22
ATOM     22  C   UNL     1      -3.681  12.666  23.136  0.00  0.00    +0.000 C 
BRANCH  22  23
ATOM     23  C   UNL     1      -4.004  12.343  24.613  0.00  0.00    +0.000 C 
BRANCH  23  24
ATOM     24  N   UNL     1      -5.454  12.157  24.801  0.00  0.00    +0.000 NA
ATOM     25  H   UNL     1      -5.719  12.478  25.732  0.00  0.00    +0.000 HD
BRANCH  24  26
ATOM     26  C   UNL     1      -6.275  12.853  23.796  0.00  0.00    +0.000 C 
ATOM     27  C   UNL     1      -7.584  12.277  23.316  0.00  0.00    +0.000 C 
ATOM     28  C   UNL     1      -7.586  13.478  24.219  0.00  0.00    +0.000 C 
ENDBRANCH  24  26
ENDBRANCH  23  24
ENDBRANCH  22  23
ENDBRANCH  21  22
ENDBRANCH  20  21
ENDBRANCH   8  20
TORSDOF 8
ENDMDL
