MODEL 1
REMARK VINA RESULT:      -8.3      0.000      0.000
REMARK  Name = 
REMARK  8 active torsions:
REMARK  status: ('A' for Active; 'I' for Inactive)
REMARK    1  A    between atoms: C_1  and  O_2
REMARK    2  A    between atoms: O_2  and  C_3
REMARK    3  A    between atoms: C_6  and  C_7
REMARK    4  A    between atoms: C_7  and  C_8
REMARK    5  A    between atoms: C_14  and  C_15
REMARK    6  A    between atoms: N_21  and  C_22
REMARK    7  A    between atoms: C_22  and  C_23
REMARK    8  A    between atoms: C_23  and  C_24
REMARK                            x       y       z     vdW  Elec       q    Type
REMARK                         _______ _______ _______ _____ _____    ______ ____
ROOT
ATOM      1  C   UNL     1       2.551   7.771  18.182  0.00  0.00    +0.000 C 
ATOM      2  C   UNL     1       1.704   8.945  17.580  0.00  0.00    +0.000 C 
ATOM      3  N   UNL     1       1.267   9.637  18.779  0.00  0.00    +0.000 N 
ATOM      4  C   UNL     1       1.287   8.822  19.867  0.00  0.00    +0.000 C 
ATOM      5  N   UNL     1       0.542   9.106  20.883  0.00  0.00    +0.000 NA
ATOM      6  C   UNL     1      -0.167  10.339  20.436  0.00  0.00    +0.000 C 
ATOM      7  C   UNL     1       0.122  10.501  18.912  0.00  0.00    +0.000 C 
ATOM      8  N   UNL     1       2.076   7.756  19.584  0.00  0.00    +0.000 N 
ENDROOT
BRANCH   7   9
ATOM      9  C   UNL     1       0.448  11.933  18.469  0.00  0.00    +0.000 C 
ATOM     10  C   UNL     1       1.925  12.318  18.703  0.00  0.00    +0.000 C 
ATOM     11  C   UNL     1       2.208  13.764  18.318  0.00  0.00    +0.000 C 
ATOM     12  C   UNL     1       1.253  14.727  19.013  0.00  0.00    +0.000 C 
ATOM     13  C   UNL     1      -0.201  14.364  18.733  0.00  0.00    +0.000 C 
ATOM     14  C   UNL     1      -0.501  12.930  19.152  0.00  0.00    +0.000 C 
ENDBRANCH   7   9
BRANCH   1  15
ATOM     15  C   UNL     1       4.067   8.037  18.135  0.00  0.00    +0.000 C 
BRANCH  15  19
ATOM     16  C   UNL     1       6.584   5.381  15.808  0.00  0.00    +0.000 A 
ATOM     17  C   UNL     1       5.377   5.850  15.294  0.00  0.00    +0.000 A 
ATOM     18  C   UNL     1       4.555   6.678  16.066  0.00  0.00    +0.000 A 
ATOM     19  C   UNL     1       4.916   7.039  17.370  0.00  0.00    +0.000 A 
ATOM     20  C   UNL     1       6.119   6.543  17.888  0.00  0.00    +0.000 A 
ATOM     21  C   UNL     1       6.947   5.715  17.113  0.00  0.00    +0.000 A 
BRANCH  16  23
ATOM     22  C   UNL     1       6.641   4.153  13.779  0.00  0.00    +0.000 C 
ATOM     23  O   UNL     1       7.316   4.600  14.950  0.00  0.00    +0.000 OA
ENDBRANCH  16  23
ENDBRANCH  15  19
ENDBRANCH   1  15
BRANCH   8  24
ATOM     24  C   UNL     1       2.360   6.706  20.535  0.00  0.00    +0.000 C 
BRANCH  24  25
ATOM     25  C   UNL     1       1.496   5.471  20.247  0.00  0.00    +0.000 C 
BRANCH  25  26
ATOM     26  C   UNL     1       2.170   4.337  19.447  0.00  0.00    +0.000 C 
ATOM     27  C   UNL     1       1.904   4.378  17.919  0.00  0.00    +0.000 C 
ATOM     28  C   UNL     1       2.658   3.218  17.219  0.00  0.00    +0.000 C 
ATOM     29  C   UNL     1       4.172   3.310  17.475  0.00  0.00    +0.000 C 
ATOM     30  C   UNL     1       4.448   3.306  18.986  0.00  0.00    +0.000 C 
ATOM     31  C   UNL     1       3.933   1.997  19.604  0.00  0.00    +0.000 C 
ATOM     32  C   UNL     1       2.438   1.822  19.306  0.00  0.00    +0.000 C 
ATOM     33  C   UNL     1       2.168   1.878  17.792  0.00  0.00    +0.000 C 
ATOM     34  C   UNL     1       1.685   2.969  19.980  0.00  0.00    +0.000 C 
ATOM     35  C   UNL     1       3.707   4.487  19.623  0.00  0.00    +0.000 C 
ENDBRANCH  25  26
ENDBRANCH  24  25
ENDBRANCH   8  24
TORSDOF 7
ENDMDL
MODEL 2
REMARK VINA RESULT:      -8.2      0.094      1.297
REMARK  Name = 
REMARK  8 active torsions:
REMARK  status: ('A' for Active; 'I' for Inactive)
REMARK    1  A    between atoms: C_1  and  O_2
REMARK    2  A    between atoms: O_2  and  C_3
REMARK    3  A    between atoms: C_6  and  C_7
REMARK    4  A    between atoms: C_7  and  C_8
REMARK    5  A    between atoms: C_14  and  C_15
REMARK    6  A    between atoms: N_21  and  C_22
REMARK    7  A    between atoms: C_22  and  C_23
REMARK    8  A    between atoms: C_23  and  C_24
REMARK                            x       y       z     vdW  Elec       q    Type
REMARK                         _______ _______ _______ _____ _____    ______ ____
ROOT
ATOM      1  C   UNL     1       2.576   7.734  18.197  0.00  0.00    +0.000 C 
ATOM      2  C   UNL     1       1.742   8.911  17.583  0.00  0.00    +0.000 C 
ATOM      3  N   UNL     1       1.294   9.607  18.775  0.00  0.00    +0.000 N 
ATOM      4  C   UNL     1       1.299   8.795  19.866  0.00  0.00    +0.000 C 
ATOM      5  N   UNL     1       0.544   9.083  20.873  0.00  0.00    +0.000 NA
ATOM      6  C   UNL     1      -0.154  10.319  20.416  0.00  0.00    +0.000 C 
ATOM      7  C   UNL     1       0.152  10.476  18.895  0.00  0.00    +0.000 C 
ATOM      8  N   UNL     1       2.086   7.725  19.594  0.00  0.00    +0.000 N 
ENDROOT
BRANCH   7   9
ATOM      9  C   UNL     1       0.490  11.906  18.453  0.00  0.00    +0.000 C 
ATOM     10  C   UNL     1       1.965  12.285  18.704  0.00  0.00    +0.000 C 
ATOM     11  C   UNL     1       2.259  13.730  18.319  0.00  0.00    +0.000 C 
ATOM     12  C   UNL     1       1.300  14.699  19.000  0.00  0.00    +0.000 C 
ATOM     13  C   UNL     1      -0.153  14.341  18.703  0.00  0.00    +0.000 C 
ATOM     14  C   UNL     1      -0.464  12.909  19.121  0.00  0.00    +0.000 C 
ENDBRANCH   7   9
BRANCH   1  15
ATOM     15  C   UNL     1       4.094   7.993  18.166  0.00  0.00    +0.000 C 
BRANCH  15  19
ATOM     16  C   UNL     1       6.611   5.387  15.783  0.00  0.00    +0.000 A 
ATOM     17  C   UNL     1       5.408   5.874  15.275  0.00  0.00    +0.000 A 
ATOM     18  C   UNL     1       4.586   6.686  16.065  0.00  0.00    +0.000 A 
ATOM     19  C   UNL     1       4.942   7.012  17.379  0.00  0.00    +0.000 A 
ATOM     20  C   UNL     1       6.141   6.497  17.889  0.00  0.00    +0.000 A 
ATOM     21  C   UNL     1       6.969   5.686  17.097  0.00  0.00    +0.000 A 
BRANCH  16  23
ATOM     22  C   UNL     1       6.641   4.117  13.779  0.00  0.00    +0.000 C 
ATOM     23  O   UNL     1       7.344   4.625  14.908  0.00  0.00    +0.000 OA
ENDBRANCH  16  23
ENDBRANCH  15  19
ENDBRANCH   1  15
BRANCH   8  24
ATOM     24  C   UNL     1       2.355   6.675  20.549  0.00  0.00    +0.000 C 
BRANCH  24  25
ATOM     25  C   UNL     1       1.474   5.450  20.265  0.00  0.00    +0.000 C 
BRANCH  25  26
ATOM     26  C   UNL     1       2.166   4.257  19.575  0.00  0.00    +0.000 C 
ATOM     27  C   UNL     1       1.761   2.866  20.129  0.00  0.00    +0.000 C 
ATOM     28  C   UNL     1       2.489   1.748  19.338  0.00  0.00    +0.000 C 
ATOM     29  C   UNL     1       2.144   1.819  17.840  0.00  0.00    +0.000 C 
ATOM     30  C   UNL     1       2.507   3.204  17.286  0.00  0.00    +0.000 C 
ATOM     31  C   UNL     1       4.016   3.448  17.445  0.00  0.00    +0.000 C 
ATOM     32  C   UNL     1       4.422   3.309  18.919  0.00  0.00    +0.000 C 
ATOM     33  C   UNL     1       4.008   1.936  19.477  0.00  0.00    +0.000 C 
ATOM     34  C   UNL     1       3.700   4.398  19.712  0.00  0.00    +0.000 C 
ATOM     35  C   UNL     1       1.741   4.268  18.079  0.00  0.00    +0.000 C 
ENDBRANCH  25  26
ENDBRANCH  24  25
ENDBRANCH   8  24
TORSDOF 7
ENDMDL
MODEL 3
REMARK VINA RESULT:      -8.1      0.096      1.266
REMARK  Name = 
REMARK  8 active torsions:
REMARK  status: ('A' for Active; 'I' for Inactive)
REMARK    1  A    between atoms: C_1  and  O_2
REMARK    2  A    between atoms: O_2  and  C_3
REMARK    3  A    between atoms: C_6  and  C_7
REMARK    4  A    between atoms: C_7  and  C_8
REMARK    5  A    between atoms: C_14  and  C_15
REMARK    6  A    between atoms: N_21  and  C_22
REMARK    7  A    between atoms: C_22  and  C_23
REMARK    8  A    between atoms: C_23  and  C_24
REMARK                            x       y       z     vdW  Elec       q    Type
REMARK                         _______ _______ _______ _____ _____    ______ ____
ROOT
ATOM      1  C   UNL     1       2.549   7.811  18.198  0.00  0.00    +0.000 C 
ATOM      2  C   UNL     1       1.724   8.994  17.582  0.00  0.00    +0.000 C 
ATOM      3  N   UNL     1       1.279   9.693  18.773  0.00  0.00    +0.000 N 
ATOM      4  C   UNL     1       1.276   8.881  19.864  0.00  0.00    +0.000 C 
ATOM      5  N   UNL     1       0.521   9.175  20.869  0.00  0.00    +0.000 NA
ATOM      6  C   UNL     1      -0.168  10.416  20.410  0.00  0.00    +0.000 C 
ATOM      7  C   UNL     1       0.143  10.570  18.890  0.00  0.00    +0.000 C 
ATOM      8  N   UNL     1       2.056   7.805  19.594  0.00  0.00    +0.000 N 
ENDROOT
BRANCH   7   9
ATOM      9  C   UNL     1       0.491  11.997  18.448  0.00  0.00    +0.000 C 
ATOM     10  C   UNL     1       1.969  12.365  18.699  0.00  0.00    +0.000 C 
ATOM     11  C   UNL     1       2.274  13.808  18.315  0.00  0.00    +0.000 C 
ATOM     12  C   UNL     1       1.322  14.783  18.996  0.00  0.00    +0.000 C 
ATOM     13  C   UNL     1      -0.133  14.437  18.699  0.00  0.00    +0.000 C 
ATOM     14  C   UNL     1      -0.454  13.007  19.117  0.00  0.00    +0.000 C 
ENDBRANCH   7   9
BRANCH   1  15
ATOM     15  C   UNL     1       4.069   8.060  18.170  0.00  0.00    +0.000 C 
BRANCH  15  19
ATOM     16  C   UNL     1       6.581   5.376  15.869  0.00  0.00    +0.000 A 
ATOM     17  C   UNL     1       5.377   5.846  15.348  0.00  0.00    +0.000 A 
ATOM     18  C   UNL     1       4.556   6.682  16.112  0.00  0.00    +0.000 A 
ATOM     19  C   UNL     1       4.915   7.053  17.415  0.00  0.00    +0.000 A 
ATOM     20  C   UNL     1       6.116   6.556  17.939  0.00  0.00    +0.000 A 
ATOM     21  C   UNL     1       6.942   5.718  17.172  0.00  0.00    +0.000 A 
BRANCH  16  23
ATOM     22  C   UNL     1       6.742   4.352  13.735  0.00  0.00    +0.000 C 
ATOM     23  O   UNL     1       7.312   4.585  15.018  0.00  0.00    +0.000 OA
ENDBRANCH  16  23
ENDBRANCH  15  19
ENDBRANCH   1  15
BRANCH   8  24
ATOM     24  C   UNL     1       2.316   6.754  20.550  0.00  0.00    +0.000 C 
BRANCH  24  25
ATOM     25  C   UNL     1       1.508   5.497  20.201  0.00  0.00    +0.000 C 
BRANCH  25  26
ATOM     26  C   UNL     1       2.277   4.369  19.483  0.00  0.00    +0.000 C 
ATOM     27  C   UNL     1       3.819   4.435  19.641  0.00  0.00    +0.000 C 
ATOM     28  C   UNL     1       4.479   3.236  18.910  0.00  0.00    +0.000 C 
ATOM     29  C   UNL     1       3.966   1.899  19.474  0.00  0.00    +0.000 C 
ATOM     30  C   UNL     1       2.437   1.834  19.356  0.00  0.00    +0.000 C 
ATOM     31  C   UNL     1       2.026   1.924  17.878  0.00  0.00    +0.000 C 
ATOM     32  C   UNL     1       2.582   3.210  17.251  0.00  0.00    +0.000 C 
ATOM     33  C   UNL     1       4.110   3.288  17.419  0.00  0.00    +0.000 C 
ATOM     34  C   UNL     1       1.949   4.400  17.972  0.00  0.00    +0.000 C 
ATOM     35  C   UNL     1       1.835   3.020  20.118  0.00  0.00    +0.000 C 
ENDBRANCH  25  26
ENDBRANCH  24  25
ENDBRANCH   8  24
TORSDOF 7
ENDMDL
MODEL 4
REMARK VINA RESULT:      -7.8      1.877      4.506
REMARK  Name = 
REMARK  8 active torsions:
REMARK  status: ('A' for Active; 'I' for Inactive)
REMARK    1  A    between atoms: C_1  and  O_2
REMARK    2  A    between atoms: O_2  and  C_3
REMARK    3  A    between atoms: C_6  and  C_7
REMARK    4  A    between atoms: C_7  and  C_8
REMARK    5  A    between atoms: C_14  and  C_15
REMARK    6  A    between atoms: N_21  and  C_22
REMARK    7  A    between atoms: C_22  and  C_23
REMARK    8  A    between atoms: C_23  and  C_24
REMARK                            x       y       z     vdW  Elec       q    Type
REMARK                         _______ _______ _______ _____ _____    ______ ____
ROOT
ATOM      1  C   UNL     1       1.967   7.451  20.358  0.00  0.00    +0.000 C 
ATOM      2  C   UNL     1       1.400   8.624  21.230  0.00  0.00    +0.000 C 
ATOM      3  N   UNL     1       0.776   9.463  20.225  0.00  0.00    +0.000 N 
ATOM      4  C   UNL     1       1.302   9.247  18.990  0.00  0.00    +0.000 C 
ATOM      5  N   UNL     1       1.203  10.168  18.090  0.00  0.00    +0.000 NA
ATOM      6  C   UNL     1       0.498  11.262  18.817  0.00  0.00    +0.000 C 
ATOM      7  C   UNL     1       0.488  10.870  20.326  0.00  0.00    +0.000 C 
ATOM      8  N   UNL     1       1.948   8.055  19.007  0.00  0.00    +0.000 N 
ENDROOT
BRANCH   7   9
ATOM      9  C   UNL     1      -0.844  11.118  21.045  0.00  0.00    +0.000 C 
ATOM     10  C   UNL     1      -1.630  12.315  20.468  0.00  0.00    +0.000 C 
ATOM     11  C   UNL     1      -2.916  12.583  21.240  0.00  0.00    +0.000 C 
ATOM     12  C   UNL     1      -2.652  12.742  22.732  0.00  0.00    +0.000 C 
ATOM     13  C   UNL     1      -1.918  11.531  23.299  0.00  0.00    +0.000 C 
ATOM     14  C   UNL     1      -0.612  11.282  22.555  0.00  0.00    +0.000 C 
ENDBRANCH   7   9
BRANCH   1  15
ATOM     15  C   UNL     1       1.079   6.193  20.393  0.00  0.00    +0.000 C 
BRANCH  15  19
ATOM     16  C   UNL     1       2.653   2.378  19.060  0.00  0.00    +0.000 A 
ATOM     17  C   UNL     1       2.886   2.830  20.357  0.00  0.00    +0.000 A 
ATOM     18  C   UNL     1       2.404   4.079  20.767  0.00  0.00    +0.000 A 
ATOM     19  C   UNL     1       1.695   4.904  19.884  0.00  0.00    +0.000 A 
ATOM     20  C   UNL     1       1.488   4.451  18.575  0.00  0.00    +0.000 A 
ATOM     21  C   UNL     1       1.967   3.197  18.163  0.00  0.00    +0.000 A 
BRANCH  16  23
ATOM     22  C   UNL     1       4.529   0.925  19.074  0.00  0.00    +0.000 C 
ATOM     23  O   UNL     1       3.150   1.129  18.783  0.00  0.00    +0.000 OA
ENDBRANCH  16  23
ENDBRANCH  15  19
ENDBRANCH   1  15
BRANCH   8  24
ATOM     24  C   UNL     1       2.591   7.485  17.845  0.00  0.00    +0.000 C 
BRANCH  24  25
ATOM     25  C   UNL     1       4.089   7.820  17.840  0.00  0.00    +0.000 C 
BRANCH  25  26
ATOM     26  C   UNL     1       5.043   6.677  17.437  0.00  0.00    +0.000 C 
ATOM     27  C   UNL     1       6.536   7.086  17.341  0.00  0.00    +0.000 C 
ATOM     28  C   UNL     1       7.400   5.853  16.965  0.00  0.00    +0.000 C 
ATOM     29  C   UNL     1       7.244   4.733  18.009  0.00  0.00    +0.000 C 
ATOM     30  C   UNL     1       5.765   4.343  18.139  0.00  0.00    +0.000 C 
ATOM     31  C   UNL     1       5.244   3.822  16.791  0.00  0.00    +0.000 C 
ATOM     32  C   UNL     1       5.451   4.880  15.698  0.00  0.00    +0.000 C 
ATOM     33  C   UNL     1       6.929   5.300  15.611  0.00  0.00    +0.000 C 
ATOM     34  C   UNL     1       4.615   6.106  16.065  0.00  0.00    +0.000 C 
ATOM     35  C   UNL     1       4.963   5.585  18.541  0.00  0.00    +0.000 C 
ENDBRANCH  25  26
ENDBRANCH  24  25
ENDBRANCH   8  24
TORSDOF 7
ENDMDL
MODEL 5
REMARK VINA RESULT:      -7.7      1.876      4.564
REMARK  Name = 
REMARK  8 active torsions:
REMARK  status: ('A' for Active; 'I' for Inactive)
REMARK    1  A    between atoms: C_1  and  O_2
REMARK    2  A    between atoms: O_2  and  C_3
REMARK    3  A    between atoms: C_6  and  C_7
REMARK    4  A    between atoms: C_7  and  C_8
REMARK    5  A    between atoms: C_14  and  C_15
REMARK    6  A    between atoms: N_21  and  C_22
REMARK    7  A    between atoms: C_22  and  C_23
REMARK    8  A    between atoms: C_23  and  C_24
REMARK                            x       y       z     vdW  Elec       q    Type
REMARK                         _______ _______ _______ _____ _____    ______ ____
ROOT
ATOM      1  C   UNL     1       2.007   7.478  20.311  0.00  0.00    +0.000 C 
ATOM      2  C   UNL     1       1.419   8.626  21.204  0.00  0.00    +0.000 C 
ATOM      3  N   UNL     1       0.792   9.477  20.211  0.00  0.00    +0.000 N 
ATOM      4  C   UNL     1       1.328   9.293  18.975  0.00  0.00    +0.000 C 
ATOM      5  N   UNL     1       1.224  10.231  18.094  0.00  0.00    +0.000 NA
ATOM      6  C   UNL     1       0.500  11.302  18.839  0.00  0.00    +0.000 C 
ATOM      7  C   UNL     1       0.486  10.879  20.339  0.00  0.00    +0.000 C 
ATOM      8  N   UNL     1       1.989   8.109  18.973  0.00  0.00    +0.000 N 
ENDROOT
BRANCH   7   9
ATOM      9  C   UNL     1      -0.855  11.095  21.054  0.00  0.00    +0.000 C 
ATOM     10  C   UNL     1      -1.676  12.260  20.461  0.00  0.00    +0.000 C 
ATOM     11  C   UNL     1      -2.970  12.499  21.229  0.00  0.00    +0.000 C 
ATOM     12  C   UNL     1      -2.712  12.685  22.719  0.00  0.00    +0.000 C 
ATOM     13  C   UNL     1      -1.943  11.504  23.301  0.00  0.00    +0.000 C 
ATOM     14  C   UNL     1      -0.629  11.285  22.562  0.00  0.00    +0.000 C 
ENDBRANCH   7   9
BRANCH   1  15
ATOM     15  C   UNL     1       1.134   6.209  20.314  0.00  0.00    +0.000 C 
BRANCH  15  19
ATOM     16  C   UNL     1       2.799   2.425  19.003  0.00  0.00    +0.000 A 
ATOM     17  C   UNL     1       3.060   2.912  20.282  0.00  0.00    +0.000 A 
ATOM     18  C   UNL     1       2.548   4.151  20.683  0.00  0.00    +0.000 A 
ATOM     19  C   UNL     1       1.779   4.932  19.810  0.00  0.00    +0.000 A 
ATOM     20  C   UNL     1       1.543   4.444  18.518  0.00  0.00    +0.000 A 
ATOM     21  C   UNL     1       2.053   3.200  18.115  0.00  0.00    +0.000 A 
BRANCH  16  23
ATOM     22  C   UNL     1       4.555   0.877  19.390  0.00  0.00    +0.000 C 
ATOM     23  O   UNL     1       3.331   1.189  18.734  0.00  0.00    +0.000 OA
ENDBRANCH  16  23
ENDBRANCH  15  19
ENDBRANCH   1  15
BRANCH   8  24
ATOM     24  C   UNL     1       2.647   7.571  17.804  0.00  0.00    +0.000 C 
BRANCH  24  25
ATOM     25  C   UNL     1       4.164   7.786  17.893  0.00  0.00    +0.000 C 
BRANCH  25  26
ATOM     26  C   UNL     1       5.048   6.568  17.557  0.00  0.00    +0.000 C 
ATOM     27  C   UNL     1       5.155   5.514  18.690  0.00  0.00    +0.000 C 
ATOM     28  C   UNL     1       6.034   4.324  18.226  0.00  0.00    +0.000 C 
ATOM     29  C   UNL     1       5.445   3.661  16.969  0.00  0.00    +0.000 C 
ATOM     30  C   UNL     1       5.301   4.701  15.849  0.00  0.00    +0.000 C 
ATOM     31  C   UNL     1       6.681   5.274  15.490  0.00  0.00    +0.000 C 
ATOM     32  C   UNL     1       7.343   5.879  16.736  0.00  0.00    +0.000 C 
ATOM     33  C   UNL     1       7.437   4.841  17.868  0.00  0.00    +0.000 C 
ATOM     34  C   UNL     1       6.477   7.045  17.211  0.00  0.00    +0.000 C 
ATOM     35  C   UNL     1       4.400   5.837  16.347  0.00  0.00    +0.000 C 
ENDBRANCH  25  26
ENDBRANCH  24  25
ENDBRANCH   8  24
TORSDOF 7
ENDMDL
MODEL 6
REMARK VINA RESULT:      -7.7      1.889      4.370
REMARK  Name = 
REMARK  8 active torsions:
REMARK  status: ('A' for Active; 'I' for Inactive)
REMARK    1  A    between atoms: C_1  and  O_2
REMARK    2  A    between atoms: O_2  and  C_3
REMARK    3  A    between atoms: C_6  and  C_7
REMARK    4  A    between atoms: C_7  and  C_8
REMARK    5  A    between atoms: C_14  and  C_15
REMARK    6  A    between atoms: N_21  and  C_22
REMARK    7  A    between atoms: C_22  and  C_23
REMARK    8  A    between atoms: C_23  and  C_24
REMARK                            x       y       z     vdW  Elec       q    Type
REMARK                         _______ _______ _______ _____ _____    ______ ____
ROOT
ATOM      1  C   UNL     1       1.977   7.528  20.353  0.00  0.00    +0.000 C 
ATOM      2  C   UNL     1       1.386   8.682  21.234  0.00  0.00    +0.000 C 
ATOM      3  N   UNL     1       0.758   9.524  20.234  0.00  0.00    +0.000 N 
ATOM      4  C   UNL     1       1.297   9.330  19.000  0.00  0.00    +0.000 C 
ATOM      5  N   UNL     1       1.192  10.261  18.111  0.00  0.00    +0.000 NA
ATOM      6  C   UNL     1       0.465  11.336  18.846  0.00  0.00    +0.000 C 
ATOM      7  C   UNL     1       0.450  10.926  20.350  0.00  0.00    +0.000 C 
ATOM      8  N   UNL     1       1.960   8.147  19.009  0.00  0.00    +0.000 N 
ENDROOT
BRANCH   7   9
ATOM      9  C   UNL     1      -0.892  11.146  21.061  0.00  0.00    +0.000 C 
ATOM     10  C   UNL     1      -1.713  12.306  20.458  0.00  0.00    +0.000 C 
ATOM     11  C   UNL     1      -3.009  12.548  21.223  0.00  0.00    +0.000 C 
ATOM     12  C   UNL     1      -2.754  12.746  22.712  0.00  0.00    +0.000 C 
ATOM     13  C   UNL     1      -1.985  11.569  23.303  0.00  0.00    +0.000 C 
ATOM     14  C   UNL     1      -0.669  11.346  22.568  0.00  0.00    +0.000 C 
ENDBRANCH   7   9
BRANCH   1  15
ATOM     15  C   UNL     1       1.107   6.257  20.365  0.00  0.00    +0.000 C 
BRANCH  15  19
ATOM     16  C   UNL     1       2.756   2.477  19.024  0.00  0.00    +0.000 A 
ATOM     17  C   UNL     1       2.993   2.938  20.318  0.00  0.00    +0.000 A 
ATOM     18  C   UNL     1       2.487   4.176  20.729  0.00  0.00    +0.000 A 
ATOM     19  C   UNL     1       1.748   4.981  19.853  0.00  0.00    +0.000 A 
ATOM     20  C   UNL     1       1.536   4.520  18.547  0.00  0.00    +0.000 A 
ATOM     21  C   UNL     1       2.041   3.276  18.134  0.00  0.00    +0.000 A 
BRANCH  16  23
ATOM     22  C   UNL     1       4.534   0.939  19.348  0.00  0.00    +0.000 C 
ATOM     23  O   UNL     1       3.280   1.240  18.745  0.00  0.00    +0.000 OA
ENDBRANCH  16  23
ENDBRANCH  15  19
ENDBRANCH   1  15
BRANCH   8  24
ATOM     24  C   UNL     1       2.620   7.600  17.846  0.00  0.00    +0.000 C 
BRANCH  24  25
ATOM     25  C   UNL     1       4.140   7.787  17.952  0.00  0.00    +0.000 C 
BRANCH  25  26
ATOM     26  C   UNL     1       5.007   6.589  17.515  0.00  0.00    +0.000 C 
ATOM     27  C   UNL     1       4.512   5.866  16.235  0.00  0.00    +0.000 C 
ATOM     28  C   UNL     1       5.478   4.707  15.874  0.00  0.00    +0.000 C 
ATOM     29  C   UNL     1       6.906   5.233  15.642  0.00  0.00    +0.000 C 
ATOM     30  C   UNL     1       7.396   5.982  16.889  0.00  0.00    +0.000 C 
ATOM     31  C   UNL     1       7.423   5.026  18.092  0.00  0.00    +0.000 C 
ATOM     32  C   UNL     1       6.033   4.415  18.315  0.00  0.00    +0.000 C 
ATOM     33  C   UNL     1       5.531   3.710  17.043  0.00  0.00    +0.000 C 
ATOM     34  C   UNL     1       5.068   5.550  18.658  0.00  0.00    +0.000 C 
ATOM     35  C   UNL     1       6.427   7.132  17.184  0.00  0.00    +0.000 C 
ENDBRANCH  25  26
ENDBRANCH  24  25
ENDBRANCH   8  24
TORSDOF 7
ENDMDL
MODEL 7
REMARK VINA RESULT:      -7.3      1.915      4.399
REMARK  Name = 
REMARK  8 active torsions:
REMARK  status: ('A' for Active; 'I' for Inactive)
REMARK    1  A    between atoms: C_1  and  O_2
REMARK    2  A    between atoms: O_2  and  C_3
REMARK    3  A    between atoms: C_6  and  C_7
REMARK    4  A    between atoms: C_7  and  C_8
REMARK    5  A    between atoms: C_14  and  C_15
REMARK    6  A    between atoms: N_21  and  C_22
REMARK    7  A    between atoms: C_22  and  C_23
REMARK    8  A    between atoms: C_23  and  C_24
REMARK                            x       y       z     vdW  Elec       q    Type
REMARK                         _______ _______ _______ _____ _____    ______ ____
ROOT
ATOM      1  C   UNL     1       1.875   7.580  20.599  0.00  0.00    +0.000 C 
ATOM      2  C   UNL     1       1.415   8.891  21.326  0.00  0.00    +0.000 C 
ATOM      3  N   UNL     1       0.684   9.570  20.272  0.00  0.00    +0.000 N 
ATOM      4  C   UNL     1       1.066   9.146  19.038  0.00  0.00    +0.000 C 
ATOM      5  N   UNL     1       0.869   9.911  18.017  0.00  0.00    +0.000 NA
ATOM      6  C   UNL     1       0.256  11.125  18.630  0.00  0.00    +0.000 C 
ATOM      7  C   UNL     1       0.416  10.982  20.174  0.00  0.00    +0.000 C 
ATOM      8  N   UNL     1       1.705   7.958  19.178  0.00  0.00    +0.000 N 
ENDROOT
BRANCH   7   9
ATOM      9  C   UNL     1      -0.825  11.373  20.987  0.00  0.00    +0.000 C 
ATOM     10  C   UNL     1      -1.848  12.194  20.173  0.00  0.00    +0.000 C 
ATOM     11  C   UNL     1      -3.039  12.627  21.019  0.00  0.00    +0.000 C 
ATOM     12  C   UNL     1      -2.596  13.360  22.279  0.00  0.00    +0.000 C 
ATOM     13  C   UNL     1      -1.624  12.517  23.098  0.00  0.00    +0.000 C 
ATOM     14  C   UNL     1      -0.411  12.113  22.269  0.00  0.00    +0.000 C 
ENDBRANCH   7   9
BRANCH   1  15
ATOM     15  C   UNL     1       0.991   6.365  20.937  0.00  0.00    +0.000 C 
BRANCH  15  19
ATOM     16  C   UNL     1       2.442   2.554  19.459  0.00  0.00    +0.000 A 
ATOM     17  C   UNL     1       1.086   2.871  19.401  0.00  0.00    +0.000 A 
ATOM     18  C   UNL     1       0.623   4.088  19.914  0.00  0.00    +0.000 A 
ATOM     19  C   UNL     1       1.502   5.004  20.505  0.00  0.00    +0.000 A 
ATOM     20  C   UNL     1       2.860   4.666  20.580  0.00  0.00    +0.000 A 
ATOM     21  C   UNL     1       3.326   3.446  20.063  0.00  0.00    +0.000 A 
BRANCH  16  23
ATOM     22  C   UNL     1       4.171   1.052  18.842  0.00  0.00    +0.000 C 
ATOM     23  O   UNL     1       2.779   1.347  18.901  0.00  0.00    +0.000 OA
ENDBRANCH  16  23
ENDBRANCH  15  19
ENDBRANCH   1  15
BRANCH   8  24
ATOM     24  C   UNL     1       2.210   7.193  18.061  0.00  0.00    +0.000 C 
BRANCH  24  25
ATOM     25  C   UNL     1       3.688   7.520  17.808  0.00  0.00    +0.000 C 
BRANCH  25  26
ATOM     26  C   UNL     1       4.560   6.368  17.270  0.00  0.00    +0.000 C 
ATOM     27  C   UNL     1       3.826   5.007  17.145  0.00  0.00    +0.000 C 
ATOM     28  C   UNL     1       4.788   3.938  16.563  0.00  0.00    +0.000 C 
ATOM     29  C   UNL     1       5.311   4.363  15.180  0.00  0.00    +0.000 C 
ATOM     30  C   UNL     1       6.009   5.727  15.282  0.00  0.00    +0.000 C 
ATOM     31  C   UNL     1       7.206   5.627  16.240  0.00  0.00    +0.000 C 
ATOM     32  C   UNL     1       6.743   5.130  17.616  0.00  0.00    +0.000 C 
ATOM     33  C   UNL     1       6.001   3.787  17.495  0.00  0.00    +0.000 C 
ATOM     34  C   UNL     1       5.783   6.169  18.195  0.00  0.00    +0.000 C 
ATOM     35  C   UNL     1       5.010   6.750  15.832  0.00  0.00    +0.000 C 
ENDBRANCH  25  26
ENDBRANCH  24  25
ENDBRANCH   8  24
TORSDOF 7
ENDMDL
MODEL 8
REMARK VINA RESULT:      -7.3      2.906      7.491
REMARK  Name = 
REMARK  8 active torsions:
REMARK  status: ('A' for Active; 'I' for Inactive)
REMARK    1  A    between atoms: C_1  and  O_2
REMARK    2  A    between atoms: O_2  and  C_3
REMARK    3  A    between atoms: C_6  and  C_7
REMARK    4  A    between atoms: C_7  and  C_8
REMARK    5  A    between atoms: C_14  and  C_15
REMARK    6  A    between atoms: N_21  and  C_22
REMARK    7  A    between atoms: C_22  and  C_23
REMARK    8  A    between atoms: C_23  and  C_24
REMARK                            x       y       z     vdW  Elec       q    Type
REMARK                         _______ _______ _______ _____ _____    ______ ____
ROOT
ATOM      1  C   UNL     1       4.636   7.158  17.444  0.00  0.00    +0.000 C 
ATOM      2  C   UNL     1       5.255   7.110  16.004  0.00  0.00    +0.000 C 
ATOM      3  N   UNL     1       5.796   5.765  15.961  0.00  0.00    +0.000 N 
ATOM      4  C   UNL     1       6.026   5.273  17.208  0.00  0.00    +0.000 C 
ATOM      5  N   UNL     1       6.884   4.320  17.364  0.00  0.00    +0.000 NA
ATOM      6  C   UNL     1       7.385   4.100  15.976  0.00  0.00    +0.000 C 
ATOM      7  C   UNL     1       6.852   5.281  15.110  0.00  0.00    +0.000 C 
ATOM      8  N   UNL     1       5.318   6.016  18.094  0.00  0.00    +0.000 N 
ENDROOT
BRANCH   7   9
ATOM      9  C   UNL     1       6.316   4.874  13.731  0.00  0.00    +0.000 C 
ATOM     10  C   UNL     1       5.158   3.857  13.808  0.00  0.00    +0.000 C 
ATOM     11  C   UNL     1       4.688   3.418  12.426  0.00  0.00    +0.000 C 
ATOM     12  C   UNL     1       5.843   2.900  11.579  0.00  0.00    +0.000 C 
ATOM     13  C   UNL     1       6.959   3.934  11.471  0.00  0.00    +0.000 C 
ATOM     14  C   UNL     1       7.460   4.349  12.849  0.00  0.00    +0.000 C 
ENDBRANCH   7   9
BRANCH   1  15
ATOM     15  C   UNL     1       3.111   6.942  17.450  0.00  0.00    +0.000 C 
BRANCH  15  19
ATOM     16  C   UNL     1       0.529   9.632  19.665  0.00  0.00    +0.000 A 
ATOM     17  C   UNL     1       0.708   9.787  18.292  0.00  0.00    +0.000 A 
ATOM     18  C   UNL     1       1.572   8.936  17.592  0.00  0.00    +0.000 A 
ATOM     19  C   UNL     1       2.282   7.926  18.253  0.00  0.00    +0.000 A 
ATOM     20  C   UNL     1       2.114   7.794  19.638  0.00  0.00    +0.000 A 
ATOM     21  C   UNL     1       1.246   8.645  20.341  0.00  0.00    +0.000 A 
BRANCH  16  23
ATOM     22  C   UNL     1      -1.102  11.323  19.336  0.00  0.00    +0.000 C 
ATOM     23  O   UNL     1      -0.360  10.507  20.236  0.00  0.00    +0.000 OA
ENDBRANCH  16  23
ENDBRANCH  15  19
ENDBRANCH   1  15
BRANCH   8  24
ATOM     24  C   UNL     1       5.292   5.746  19.513  0.00  0.00    +0.000 C 
BRANCH  24  25
ATOM     25  C   UNL     1       5.131   4.242  19.772  0.00  0.00    +0.000 C 
BRANCH  25  26
ATOM     26  C   UNL     1       3.693   3.689  19.716  0.00  0.00    +0.000 C 
ATOM     27  C   UNL     1       3.467   2.388  20.531  0.00  0.00    +0.000 C 
ATOM     28  C   UNL     1       1.983   1.949  20.429  0.00  0.00    +0.000 C 
ATOM     29  C   UNL     1       1.046   3.050  20.957  0.00  0.00    +0.000 C 
ATOM     30  C   UNL     1       1.283   4.354  20.182  0.00  0.00    +0.000 C 
ATOM     31  C   UNL     1       0.979   4.135  18.692  0.00  0.00    +0.000 C 
ATOM     32  C   UNL     1       1.838   2.990  18.138  0.00  0.00    +0.000 C 
ATOM     33  C   UNL     1       1.629   1.702  18.954  0.00  0.00    +0.000 C 
ATOM     34  C   UNL     1       3.305   3.405  18.246  0.00  0.00    +0.000 C 
ATOM     35  C   UNL     1       2.753   4.759  20.340  0.00  0.00    +0.000 C 
ENDBRANCH  25  26
ENDBRANCH  24  25
ENDBRANCH   8  24
TORSDOF 7
ENDMDL
MODEL 9
REMARK VINA RESULT:      -7.2      3.031      7.494
REMARK  Name = 
REMARK  8 active torsions:
REMARK  status: ('A' for Active; 'I' for Inactive)
REMARK    1  A    between atoms: C_1  and  O_2
REMARK    2  A    between atoms: O_2  and  C_3
REMARK    3  A    between atoms: C_6  and  C_7
REMARK    4  A    between atoms: C_7  and  C_8
REMARK    5  A    between atoms: C_14  and  C_15
REMARK    6  A    between atoms: N_21  and  C_22
REMARK    7  A    between atoms: C_22  and  C_23
REMARK    8  A    between atoms: C_23  and  C_24
REMARK                            x       y       z     vdW  Elec       q    Type
REMARK                         _______ _______ _______ _____ _____    ______ ____
ROOT
ATOM      1  C   UNL     1       4.592   7.122  17.402  0.00  0.00    +0.000 C 
ATOM      2  C   UNL     1       5.210   7.082  15.961  0.00  0.00    +0.000 C 
ATOM      3  N   UNL     1       5.782   5.749  15.924  0.00  0.00    +0.000 N 
ATOM      4  C   UNL     1       6.025   5.269  17.173  0.00  0.00    +0.000 C 
ATOM      5  N   UNL     1       6.905   4.338  17.332  0.00  0.00    +0.000 NA
ATOM      6  C   UNL     1       7.410   4.123  15.945  0.00  0.00    +0.000 C 
ATOM      7  C   UNL     1       6.848   5.287  15.074  0.00  0.00    +0.000 C 
ATOM      8  N   UNL     1       5.300   6.000  18.056  0.00  0.00    +0.000 N 
ENDROOT
BRANCH   7   9
ATOM      9  C   UNL     1       6.320   4.861  13.698  0.00  0.00    +0.000 C 
ATOM     10  C   UNL     1       5.174   3.830  13.781  0.00  0.00    +0.000 C 
ATOM     11  C   UNL     1       4.713   3.372  12.403  0.00  0.00    +0.000 C 
ATOM     12  C   UNL     1       5.877   2.861  11.563  0.00  0.00    +0.000 C 
ATOM     13  C   UNL     1       6.980   3.908  11.448  0.00  0.00    +0.000 C 
ATOM     14  C   UNL     1       7.473   4.341  12.823  0.00  0.00    +0.000 C 
ENDBRANCH   7   9
BRANCH   1  15
ATOM     15  C   UNL     1       3.072   6.871  17.411  0.00  0.00    +0.000 C 
BRANCH  15  19
ATOM     16  C   UNL     1       0.868   9.676  19.877  0.00  0.00    +0.000 A 
ATOM     17  C   UNL     1       1.409   8.516  20.428  0.00  0.00    +0.000 A 
ATOM     18  C   UNL     1       2.088   7.600  19.617  0.00  0.00    +0.000 A 
ATOM     19  C   UNL     1       2.225   7.817  18.240  0.00  0.00    +0.000 A 
ATOM     20  C   UNL     1       1.656   8.974  17.691  0.00  0.00    +0.000 A 
ATOM     21  C   UNL     1       0.978   9.897  18.504  0.00  0.00    +0.000 A 
BRANCH  16  23
ATOM     22  C   UNL     1      -0.305   9.889  21.928  0.00  0.00    +0.000 C 
ATOM     23  O   UNL     1       0.250  10.510  20.774  0.00  0.00    +0.000 OA
ENDBRANCH  16  23
ENDBRANCH  15  19
ENDBRANCH   1  15
BRANCH   8  24
ATOM     24  C   UNL     1       5.283   5.736  19.477  0.00  0.00    +0.000 C 
BRANCH  24  25
ATOM     25  C   UNL     1       5.049   4.243  19.745  0.00  0.00    +0.000 C 
BRANCH  25  26
ATOM     26  C   UNL     1       3.580   3.774  19.758  0.00  0.00    +0.000 C 
ATOM     27  C   UNL     1       2.885   3.783  18.372  0.00  0.00    +0.000 C 
ATOM     28  C   UNL     1       1.431   3.260  18.503  0.00  0.00    +0.000 C 
ATOM     29  C   UNL     1       1.409   1.832  19.074  0.00  0.00    +0.000 C 
ATOM     30  C   UNL     1       2.125   1.800  20.432  0.00  0.00    +0.000 C 
ATOM     31  C   UNL     1       1.401   2.726  21.422  0.00  0.00    +0.000 C 
ATOM     32  C   UNL     1       1.329   4.152  20.859  0.00  0.00    +0.000 C 
ATOM     33  C   UNL     1       0.655   4.164  19.476  0.00  0.00    +0.000 C 
ATOM     34  C   UNL     1       2.758   4.674  20.711  0.00  0.00    +0.000 C 
ATOM     35  C   UNL     1       3.563   2.296  20.241  0.00  0.00    +0.000 C 
ENDBRANCH  25  26
ENDBRANCH  24  25
ENDBRANCH   8  24
TORSDOF 7
ENDMDL
