MODEL 1
REMARK VINA RESULT:      -7.1      0.000      0.000
REMARK  Name = 
REMARK  6 active torsions:
REMARK  status: ('A' for Active; 'I' for Inactive)
REMARK    1  A    between atoms: C_1  and  C_2
REMARK    2  A    between atoms: C_8  and  N_9
REMARK    3  A    between atoms: N_9  and  C_10
REMARK    4  A    between atoms: C_10  and  C_11
REMARK    5  A    between atoms: C_11  and  C_12
REMARK    6  A    between atoms: C_12  and  O_14
REMARK                            x       y       z     vdW  Elec       q    Type
REMARK                         _______ _______ _______ _____ _____    ______ ____
ROOT
ATOM      1  C   UNL     1       2.280   2.595  21.599  0.00  0.00    +0.000 C 
ATOM      2  C   UNL     1       2.799   3.590  20.610  0.00  0.00    +0.000 A 
ATOM      3  C   UNL     1       2.174   4.744  20.326  0.00  0.00    +0.000 A 
ATOM      4  C   UNL     1       2.731   5.681  19.352  0.00  0.00    +0.000 A 
ATOM      5  C   UNL     1       2.074   6.880  19.077  0.00  0.00    +0.000 A 
ATOM      6  C   UNL     1       2.603   7.756  18.138  0.00  0.00    +0.000 A 
ATOM      7  C   UNL     1       3.798   7.445  17.483  0.00  0.00    +0.000 A 
ATOM      8  C   UNL     1       4.515   6.270  17.767  0.00  0.00    +0.000 A 
ATOM      9  C   UNL     1       3.937   5.373  18.693  0.00  0.00    +0.000 A 
ATOM     10  N   UNL     1       4.559   4.151  19.008  0.00  0.00    +0.000 N 
ATOM     11  C   UNL     1       4.074   3.250  19.917  0.00  0.00    +0.000 A 
ATOM     12  O   UNL     1       4.673   2.206  20.151  0.00  0.00    +0.000 OA
ATOM     13  H   UNL     1       5.403   3.867  18.539  0.00  0.00    +0.000 HD
ENDROOT
BRANCH   8  14
ATOM     14  N   UNL     1       5.719   5.981  17.114  0.00  0.00    +0.000 N 
ATOM     15  H   UNL     1       6.039   5.025  17.177  0.00  0.00    +0.000 HD
BRANCH  14  16
ATOM     16  C   UNL     1       6.809   6.962  17.046  0.00  0.00    +0.000 C 
BRANCH  16  17
ATOM     17  C   UNL     1       7.780   6.825  18.217  0.00  0.00    +0.000 C 
BRANCH  17  18
ATOM     18  C   UNL     1       7.747   5.426  18.765  0.00  0.00    +0.000 C 
ATOM     19  O   UNL     1       8.105   4.425  18.165  0.00  0.00    +0.000 OA
BRANCH  18  20
ATOM     20  O   UNL     1       7.263   5.374  20.031  0.00  0.00    +0.000 OA
ATOM     21  H   UNL     1       7.856   5.764  20.702  0.00  0.00    +0.000 HD
ENDBRANCH  18  20
ENDBRANCH  17  18
ENDBRANCH  16  17
ENDBRANCH  14  16
ENDBRANCH   8  14
TORSDOF 5
ENDMDL
MODEL 2
REMARK VINA RESULT:      -6.9      1.590      1.738
REMARK  Name = 
REMARK  6 active torsions:
REMARK  status: ('A' for Active; 'I' for Inactive)
REMARK    1  A    between atoms: C_1  and  C_2
REMARK    2  A    between atoms: C_8  and  N_9
REMARK    3  A    between atoms: N_9  and  C_10
REMARK    4  A    between atoms: C_10  and  C_11
REMARK    5  A    between atoms: C_11  and  C_12
REMARK    6  A    between atoms: C_12  and  O_14
REMARK                            x       y       z     vdW  Elec       q    Type
REMARK                         _______ _______ _______ _____ _____    ______ ____
ROOT
ATOM      1  C   UNL     1       2.166   2.674  21.541  0.00  0.00    +0.000 C 
ATOM      2  C   UNL     1       2.630   3.722  20.580  0.00  0.00    +0.000 A 
ATOM      3  C   UNL     1       2.035   4.918  20.449  0.00  0.00    +0.000 A 
ATOM      4  C   UNL     1       2.535   5.906  19.494  0.00  0.00    +0.000 A 
ATOM      5  C   UNL     1       1.911   7.149  19.378  0.00  0.00    +0.000 A 
ATOM      6  C   UNL     1       2.384   8.074  18.456  0.00  0.00    +0.000 A 
ATOM      7  C   UNL     1       3.489   7.767  17.658  0.00  0.00    +0.000 A 
ATOM      8  C   UNL     1       4.175   6.545  17.777  0.00  0.00    +0.000 A 
ATOM      9  C   UNL     1       3.651   5.602  18.691  0.00  0.00    +0.000 A 
ATOM     10  N   UNL     1       4.242   4.336  18.848  0.00  0.00    +0.000 N 
ATOM     11  C   UNL     1       3.810   3.386  19.734  0.00  0.00    +0.000 A 
ATOM     12  O   UNL     1       4.379   2.304  19.826  0.00  0.00    +0.000 OA
ATOM     13  H   UNL     1       5.019   4.056  18.272  0.00  0.00    +0.000 HD
ENDROOT
BRANCH   8  14
ATOM     14  N   UNL     1       5.291   6.261  16.983  0.00  0.00    +0.000 N 
ATOM     15  H   UNL     1       6.165   6.667  17.285  0.00  0.00    +0.000 HD
BRANCH  14  16
ATOM     16  C   UNL     1       5.180   6.122  15.526  0.00  0.00    +0.000 C 
BRANCH  16  17
ATOM     17  C   UNL     1       6.173   5.104  14.968  0.00  0.00    +0.000 C 
BRANCH  17  18
ATOM     18  C   UNL     1       6.751   4.272  16.078  0.00  0.00    +0.000 C 
ATOM     19  O   UNL     1       7.871   4.400  16.547  0.00  0.00    +0.000 OA
BRANCH  18  20
ATOM     20  O   UNL     1       5.885   3.330  16.527  0.00  0.00    +0.000 OA
ATOM     21  H   UNL     1       6.247   2.423  16.530  0.00  0.00    +0.000 HD
ENDBRANCH  18  20
ENDBRANCH  17  18
ENDBRANCH  16  17
ENDBRANCH  14  16
ENDBRANCH   8  14
TORSDOF 5
ENDMDL
MODEL 3
REMARK VINA RESULT:      -6.9      0.918      1.185
REMARK  Name = 
REMARK  6 active torsions:
REMARK  status: ('A' for Active; 'I' for Inactive)
REMARK    1  A    between atoms: C_1  and  C_2
REMARK    2  A    between atoms: C_8  and  N_9
REMARK    3  A    between atoms: N_9  and  C_10
REMARK    4  A    between atoms: C_10  and  C_11
REMARK    5  A    between atoms: C_11  and  C_12
REMARK    6  A    between atoms: C_12  and  O_14
REMARK                            x       y       z     vdW  Elec       q    Type
REMARK                         _______ _______ _______ _____ _____    ______ ____
ROOT
ATOM      1  C   UNL     1       2.064   2.615  21.686  0.00  0.00    +0.000 C 
ATOM      2  C   UNL     1       2.440   3.689  20.716  0.00  0.00    +0.000 A 
ATOM      3  C   UNL     1       1.920   4.927  20.747  0.00  0.00    +0.000 A 
ATOM      4  C   UNL     1       2.329   5.939  19.774  0.00  0.00    +0.000 A 
ATOM      5  C   UNL     1       1.785   7.223  19.828  0.00  0.00    +0.000 A 
ATOM      6  C   UNL     1       2.168   8.172  18.889  0.00  0.00    +0.000 A 
ATOM      7  C   UNL     1       3.106   7.847  17.905  0.00  0.00    +0.000 A 
ATOM      8  C   UNL     1       3.712   6.581  17.846  0.00  0.00    +0.000 A 
ATOM      9  C   UNL     1       3.276   5.617  18.784  0.00  0.00    +0.000 A 
ATOM     10  N   UNL     1       3.792   4.308  18.776  0.00  0.00    +0.000 N 
ATOM     11  C   UNL     1       3.441   3.334  19.670  0.00  0.00    +0.000 A 
ATOM     12  O   UNL     1       3.938   2.215  19.611  0.00  0.00    +0.000 OA
ATOM     13  H   UNL     1       4.444   4.017  18.066  0.00  0.00    +0.000 HD
ENDROOT
BRANCH   8  14
ATOM     14  N   UNL     1       4.662   6.277  16.864  0.00  0.00    +0.000 N 
ATOM     15  H   UNL     1       4.607   5.350  16.465  0.00  0.00    +0.000 HD
BRANCH  14  16
ATOM     16  C   UNL     1       6.028   6.809  16.930  0.00  0.00    +0.000 C 
BRANCH  16  17
ATOM     17  C   UNL     1       7.077   5.736  16.641  0.00  0.00    +0.000 C 
BRANCH  17  18
ATOM     18  C   UNL     1       7.334   4.910  17.870  0.00  0.00    +0.000 C 
ATOM     19  O   UNL     1       6.757   5.035  18.938  0.00  0.00    +0.000 OA
BRANCH  18  20
ATOM     20  O   UNL     1       8.304   3.981  17.677  0.00  0.00    +0.000 OA
ATOM     21  H   UNL     1       8.595   3.893  16.749  0.00  0.00    +0.000 HD
ENDBRANCH  18  20
ENDBRANCH  17  18
ENDBRANCH  16  17
ENDBRANCH  14  16
ENDBRANCH   8  14
TORSDOF 5
ENDMDL
MODEL 4
REMARK VINA RESULT:      -6.8      1.525      1.680
REMARK  Name = 
REMARK  6 active torsions:
REMARK  status: ('A' for Active; 'I' for Inactive)
REMARK    1  A    between atoms: C_1  and  C_2
REMARK    2  A    between atoms: C_8  and  N_9
REMARK    3  A    between atoms: N_9  and  C_10
REMARK    4  A    between atoms: C_10  and  C_11
REMARK    5  A    between atoms: C_11  and  C_12
REMARK    6  A    between atoms: C_12  and  O_14
REMARK                            x       y       z     vdW  Elec       q    Type
REMARK                         _______ _______ _______ _____ _____    ______ ____
ROOT
ATOM      1  C   UNL     1       1.050   2.130  18.941  0.00  0.00    +0.000 C 
ATOM      2  C   UNL     1       1.881   3.291  18.495  0.00  0.00    +0.000 A 
ATOM      3  C   UNL     1       1.498   4.570  18.635  0.00  0.00    +0.000 A 
ATOM      4  C   UNL     1       2.354   5.666  18.183  0.00  0.00    +0.000 A 
ATOM      5  C   UNL     1       1.944   6.989  18.346  0.00  0.00    +0.000 A 
ATOM      6  C   UNL     1       2.757   8.023  17.898  0.00  0.00    +0.000 A 
ATOM      7  C   UNL     1       3.988   7.738  17.302  0.00  0.00    +0.000 A 
ATOM      8  C   UNL     1       4.459   6.421  17.162  0.00  0.00    +0.000 A 
ATOM      9  C   UNL     1       3.597   5.383  17.585  0.00  0.00    +0.000 A 
ATOM     10  N   UNL     1       3.961   4.032  17.445  0.00  0.00    +0.000 N 
ATOM     11  C   UNL     1       3.193   2.978  17.860  0.00  0.00    +0.000 A 
ATOM     12  O   UNL     1       3.576   1.822  17.716  0.00  0.00    +0.000 OA
ATOM     13  H   UNL     1       4.823   3.776  16.992  0.00  0.00    +0.000 HD
ENDROOT
BRANCH   8  14
ATOM     14  N   UNL     1       5.702   6.153  16.578  0.00  0.00    +0.000 N 
ATOM     15  H   UNL     1       5.888   5.186  16.353  0.00  0.00    +0.000 HD
BRANCH  14  16
ATOM     16  C   UNL     1       6.902   6.912  16.949  0.00  0.00    +0.000 C 
BRANCH  16  17
ATOM     17  C   UNL     1       7.615   6.305  18.156  0.00  0.00    +0.000 C 
BRANCH  17  18
ATOM     18  C   UNL     1       7.365   4.824  18.223  0.00  0.00    +0.000 C 
ATOM     19  O   UNL     1       6.574   4.276  18.973  0.00  0.00    +0.000 OA
BRANCH  18  20
ATOM     20  O   UNL     1       8.128   4.128  17.344  0.00  0.00    +0.000 OA
ATOM     21  H   UNL     1       9.032   3.938  17.662  0.00  0.00    +0.000 HD
ENDBRANCH  18  20
ENDBRANCH  17  18
ENDBRANCH  16  17
ENDBRANCH  14  16
ENDBRANCH   8  14
TORSDOF 5
ENDMDL
MODEL 5
REMARK VINA RESULT:      -6.8      0.892      1.019
REMARK  Name = 
REMARK  6 active torsions:
REMARK  status: ('A' for Active; 'I' for Inactive)
REMARK    1  A    between atoms: C_1  and  C_2
REMARK    2  A    between atoms: C_8  and  N_9
REMARK    3  A    between atoms: N_9  and  C_10
REMARK    4  A    between atoms: C_10  and  C_11
REMARK    5  A    between atoms: C_11  and  C_12
REMARK    6  A    between atoms: C_12  and  O_14
REMARK                            x       y       z     vdW  Elec       q    Type
REMARK                         _______ _______ _______ _____ _____    ______ ____
ROOT
ATOM      1  C   UNL     1       1.935   2.950  21.629  0.00  0.00    +0.000 C 
ATOM      2  C   UNL     1       2.564   3.742  20.528  0.00  0.00    +0.000 A 
ATOM      3  C   UNL     1       2.228   5.011  20.246  0.00  0.00    +0.000 A 
ATOM      4  C   UNL     1       2.880   5.739  19.159  0.00  0.00    +0.000 A 
ATOM      5  C   UNL     1       2.525   7.060  18.887  0.00  0.00    +0.000 A 
ATOM      6  C   UNL     1       3.140   7.737  17.841  0.00  0.00    +0.000 A 
ATOM      7  C   UNL     1       4.121   7.103  17.075  0.00  0.00    +0.000 A 
ATOM      8  C   UNL     1       4.540   5.789  17.347  0.00  0.00    +0.000 A 
ATOM      9  C   UNL     1       3.872   5.104  18.387  0.00  0.00    +0.000 A 
ATOM     10  N   UNL     1       4.192   3.772  18.704  0.00  0.00    +0.000 N 
ATOM     11  C   UNL     1       3.610   3.058  19.716  0.00  0.00    +0.000 A 
ATOM     12  O   UNL     1       3.944   1.900  19.945  0.00  0.00    +0.000 OA
ATOM     13  H   UNL     1       4.868   3.262  18.160  0.00  0.00    +0.000 HD
ENDROOT
BRANCH   8  14
ATOM     14  N   UNL     1       5.537   5.174  16.580  0.00  0.00    +0.000 N 
ATOM     15  H   UNL     1       5.387   4.200  16.358  0.00  0.00    +0.000 HD
BRANCH  14  16
ATOM     16  C   UNL     1       6.952   5.531  16.734  0.00  0.00    +0.000 C 
BRANCH  16  17
ATOM     17  C   UNL     1       7.572   4.900  17.980  0.00  0.00    +0.000 C 
BRANCH  17  18
ATOM     18  C   UNL     1       7.912   5.959  18.990  0.00  0.00    +0.000 C 
ATOM     19  O   UNL     1       8.214   7.113  18.730  0.00  0.00    +0.000 OA
BRANCH  18  20
ATOM     20  O   UNL     1       7.855   5.498  20.265  0.00  0.00    +0.000 OA
ATOM     21  H   UNL     1       7.451   6.123  20.898  0.00  0.00    +0.000 HD
ENDBRANCH  18  20
ENDBRANCH  17  18
ENDBRANCH  16  17
ENDBRANCH  14  16
ENDBRANCH   8  14
TORSDOF 5
ENDMDL
MODEL 6
REMARK VINA RESULT:      -6.5      3.816      4.658
REMARK  Name = 
REMARK  6 active torsions:
REMARK  status: ('A' for Active; 'I' for Inactive)
REMARK    1  A    between atoms: C_1  and  C_2
REMARK    2  A    between atoms: C_8  and  N_9
REMARK    3  A    between atoms: N_9  and  C_10
REMARK    4  A    between atoms: C_10  and  C_11
REMARK    5  A    between atoms: C_11  and  C_12
REMARK    6  A    between atoms: C_12  and  O_14
REMARK                            x       y       z     vdW  Elec       q    Type
REMARK                         _______ _______ _______ _____ _____    ______ ____
ROOT
ATOM      1  C   UNL     1       1.751   3.826  20.260  0.00  0.00    +0.000 C 
ATOM      2  C   UNL     1       2.916   3.946  19.330  0.00  0.00    +0.000 A 
ATOM      3  C   UNL     1       4.054   4.582  19.651  0.00  0.00    +0.000 A 
ATOM      4  C   UNL     1       5.163   4.665  18.701  0.00  0.00    +0.000 A 
ATOM      5  C   UNL     1       6.343   5.321  19.056  0.00  0.00    +0.000 A 
ATOM      6  C   UNL     1       7.384   5.409  18.140  0.00  0.00    +0.000 A 
ATOM      7  C   UNL     1       7.257   4.828  16.876  0.00  0.00    +0.000 A 
ATOM      8  C   UNL     1       6.104   4.118  16.497  0.00  0.00    +0.000 A 
ATOM      9  C   UNL     1       5.041   4.078  17.427  0.00  0.00    +0.000 A 
ATOM     10  N   UNL     1       3.831   3.429  17.122  0.00  0.00    +0.000 N 
ATOM     11  C   UNL     1       2.772   3.324  17.983  0.00  0.00    +0.000 A 
ATOM     12  O   UNL     1       1.748   2.735  17.655  0.00  0.00    +0.000 OA
ATOM     13  H   UNL     1       3.679   3.025  16.212  0.00  0.00    +0.000 HD
ENDROOT
BRANCH   8  14
ATOM     14  N   UNL     1       6.000   3.528  15.233  0.00  0.00    +0.000 N 
ATOM     15  H   UNL     1       6.537   2.684  15.091  0.00  0.00    +0.000 HD
BRANCH  14  16
ATOM     16  C   UNL     1       5.848   4.338  14.019  0.00  0.00    +0.000 C 
BRANCH  16  17
ATOM     17  C   UNL     1       6.509   3.686  12.806  0.00  0.00    +0.000 C 
BRANCH  17  18
ATOM     18  C   UNL     1       5.492   2.930  11.998  0.00  0.00    +0.000 C 
ATOM     19  O   UNL     1       4.391   3.348  11.678  0.00  0.00    +0.000 OA
BRANCH  18  20
ATOM     20  O   UNL     1       5.924   1.693  11.644  0.00  0.00    +0.000 OA
ATOM     21  H   UNL     1       5.530   1.353  10.818  0.00  0.00    +0.000 HD
ENDBRANCH  18  20
ENDBRANCH  17  18
ENDBRANCH  16  17
ENDBRANCH  14  16
ENDBRANCH   8  14
TORSDOF 5
ENDMDL
MODEL 7
REMARK VINA RESULT:      -6.5      2.431      2.761
REMARK  Name = 
REMARK  6 active torsions:
REMARK  status: ('A' for Active; 'I' for Inactive)
REMARK    1  A    between atoms: C_1  and  C_2
REMARK    2  A    between atoms: C_8  and  N_9
REMARK    3  A    between atoms: N_9  and  C_10
REMARK    4  A    between atoms: C_10  and  C_11
REMARK    5  A    between atoms: C_11  and  C_12
REMARK    6  A    between atoms: C_12  and  O_14
REMARK                            x       y       z     vdW  Elec       q    Type
REMARK                         _______ _______ _______ _____ _____    ______ ____
ROOT
ATOM      1  C   UNL     1       0.851   1.935  18.684  0.00  0.00    +0.000 C 
ATOM      2  C   UNL     1       1.889   2.978  18.414  0.00  0.00    +0.000 A 
ATOM      3  C   UNL     1       1.612   4.288  18.318  0.00  0.00    +0.000 A 
ATOM      4  C   UNL     1       2.670   5.263  18.056  0.00  0.00    +0.000 A 
ATOM      5  C   UNL     1       2.365   6.622  17.970  0.00  0.00    +0.000 A 
ATOM      6  C   UNL     1       3.375   7.538  17.704  0.00  0.00    +0.000 A 
ATOM      7  C   UNL     1       4.692   7.103  17.540  0.00  0.00    +0.000 A 
ATOM      8  C   UNL     1       5.048   5.749  17.666  0.00  0.00    +0.000 A 
ATOM      9  C   UNL     1       3.999   4.829  17.894  0.00  0.00    +0.000 A 
ATOM     10  N   UNL     1       4.251   3.448  17.991  0.00  0.00    +0.000 N 
ATOM     11  C   UNL     1       3.292   2.504  18.241  0.00  0.00    +0.000 A 
ATOM     12  O   UNL     1       3.583   1.316  18.322  0.00  0.00    +0.000 OA
ATOM     13  H   UNL     1       5.178   3.083  17.846  0.00  0.00    +0.000 HD
ENDROOT
BRANCH   8  14
ATOM     14  N   UNL     1       6.375   5.331  17.516  0.00  0.00    +0.000 N 
ATOM     15  H   UNL     1       6.982   5.490  18.307  0.00  0.00    +0.000 HD
BRANCH  14  16
ATOM     16  C   UNL     1       7.062   5.413  16.222  0.00  0.00    +0.000 C 
BRANCH  16  17
ATOM     17  C   UNL     1       6.094   5.282  15.048  0.00  0.00    +0.000 C 
BRANCH  17  18
ATOM     18  C   UNL     1       6.092   3.873  14.524  0.00  0.00    +0.000 C 
ATOM     19  O   UNL     1       6.086   3.558  13.345  0.00  0.00    +0.000 OA
BRANCH  18  20
ATOM     20  O   UNL     1       6.095   2.949  15.517  0.00  0.00    +0.000 OA
ATOM     21  H   UNL     1       5.268   2.435  15.587  0.00  0.00    +0.000 HD
ENDBRANCH  18  20
ENDBRANCH  17  18
ENDBRANCH  16  17
ENDBRANCH  14  16
ENDBRANCH   8  14
TORSDOF 5
ENDMDL
MODEL 8
REMARK VINA RESULT:      -6.5      2.225      2.688
REMARK  Name = 
REMARK  6 active torsions:
REMARK  status: ('A' for Active; 'I' for Inactive)
REMARK    1  A    between atoms: C_1  and  C_2
REMARK    2  A    between atoms: C_8  and  N_9
REMARK    3  A    between atoms: N_9  and  C_10
REMARK    4  A    between atoms: C_10  and  C_11
REMARK    5  A    between atoms: C_11  and  C_12
REMARK    6  A    between atoms: C_12  and  O_14
REMARK                            x       y       z     vdW  Elec       q    Type
REMARK                         _______ _______ _______ _____ _____    ______ ____
ROOT
ATOM      1  C   UNL     1       2.058   2.471  21.043  0.00  0.00    +0.000 C 
ATOM      2  C   UNL     1       2.943   3.344  20.212  0.00  0.00    +0.000 A 
ATOM      3  C   UNL     1       2.525   4.480  19.631  0.00  0.00    +0.000 A 
ATOM      4  C   UNL     1       3.437   5.296  18.831  0.00  0.00    +0.000 A 
ATOM      5  C   UNL     1       2.988   6.479  18.244  0.00  0.00    +0.000 A 
ATOM      6  C   UNL     1       3.859   7.239  17.472  0.00  0.00    +0.000 A 
ATOM      7  C   UNL     1       5.183   6.828  17.299  0.00  0.00    +0.000 A 
ATOM      8  C   UNL     1       5.687   5.668  17.913  0.00  0.00    +0.000 A 
ATOM      9  C   UNL     1       4.773   4.888  18.657  0.00  0.00    +0.000 A 
ATOM     10  N   UNL     1       5.174   3.687  19.272  0.00  0.00    +0.000 N 
ATOM     11  C   UNL     1       4.354   2.898  20.032  0.00  0.00    +0.000 A 
ATOM     12  O   UNL     1       4.772   1.867  20.548  0.00  0.00    +0.000 OA
ATOM     13  H   UNL     1       6.108   3.333  19.148  0.00  0.00    +0.000 HD
ENDROOT
BRANCH   8  14
ATOM     14  N   UNL     1       7.021   5.280  17.743  0.00  0.00    +0.000 N 
ATOM     15  H   UNL     1       7.718   5.938  18.061  0.00  0.00    +0.000 HD
BRANCH  14  16
ATOM     16  C   UNL     1       7.446   4.487  16.583  0.00  0.00    +0.000 C 
BRANCH  16  17
ATOM     17  C   UNL     1       6.279   4.151  15.657  0.00  0.00    +0.000 C 
BRANCH  17  18
ATOM     18  C   UNL     1       6.678   4.343  14.221  0.00  0.00    +0.000 C 
ATOM     19  O   UNL     1       7.317   5.287  13.785  0.00  0.00    +0.000 OA
BRANCH  18  20
ATOM     20  O   UNL     1       6.244   3.336  13.422  0.00  0.00    +0.000 OA
ATOM     21  H   UNL     1       6.417   3.477  12.471  0.00  0.00    +0.000 HD
ENDBRANCH  18  20
ENDBRANCH  17  18
ENDBRANCH  16  17
ENDBRANCH  14  16
ENDBRANCH   8  14
TORSDOF 5
ENDMDL
MODEL 9
REMARK VINA RESULT:      -6.4      2.831      4.840
REMARK  Name = 
REMARK  6 active torsions:
REMARK  status: ('A' for Active; 'I' for Inactive)
REMARK    1  A    between atoms: C_1  and  C_2
REMARK    2  A    between atoms: C_8  and  N_9
REMARK    3  A    between atoms: N_9  and  C_10
REMARK    4  A    between atoms: C_10  and  C_11
REMARK    5  A    between atoms: C_11  and  C_12
REMARK    6  A    between atoms: C_12  and  O_14
REMARK                            x       y       z     vdW  Elec       q    Type
REMARK                         _______ _______ _______ _____ _____    ______ ____
ROOT
ATOM      1  C   UNL     1       1.548   8.871  18.933  0.00  0.00    +0.000 C 
ATOM      2  C   UNL     1       2.491   7.741  18.668  0.00  0.00    +0.000 A 
ATOM      3  C   UNL     1       3.288   7.682  17.589  0.00  0.00    +0.000 A 
ATOM      4  C   UNL     1       4.194   6.553  17.383  0.00  0.00    +0.000 A 
ATOM      5  C   UNL     1       5.022   6.513  16.261  0.00  0.00    +0.000 A 
ATOM      6  C   UNL     1       5.868   5.428  16.067  0.00  0.00    +0.000 A 
ATOM      7  C   UNL     1       5.899   4.388  17.000  0.00  0.00    +0.000 A 
ATOM      8  C   UNL     1       5.115   4.412  18.166  0.00  0.00    +0.000 A 
ATOM      9  C   UNL     1       4.232   5.504  18.322  0.00  0.00    +0.000 A 
ATOM     10  N   UNL     1       3.376   5.594  19.435  0.00  0.00    +0.000 N 
ATOM     11  C   UNL     1       2.519   6.636  19.668  0.00  0.00    +0.000 A 
ATOM     12  O   UNL     1       1.806   6.655  20.665  0.00  0.00    +0.000 OA
ATOM     13  H   UNL     1       3.338   4.854  20.116  0.00  0.00    +0.000 HD
ENDROOT
BRANCH   8  14
ATOM     14  N   UNL     1       5.172   3.370  19.099  0.00  0.00    +0.000 N 
ATOM     15  H   UNL     1       6.055   2.886  19.170  0.00  0.00    +0.000 HD
BRANCH  14  16
ATOM     16  C   UNL     1       4.009   2.514  19.362  0.00  0.00    +0.000 C 
BRANCH  16  17
ATOM     17  C   UNL     1       3.300   2.096  18.076  0.00  0.00    +0.000 C 
BRANCH  17  18
ATOM     18  C   UNL     1       1.872   2.567  18.087  0.00  0.00    +0.000 C 
ATOM     19  O   UNL     1       0.965   2.054  18.722  0.00  0.00    +0.000 OA
BRANCH  18  20
ATOM     20  O   UNL     1       1.676   3.652  17.297  0.00  0.00    +0.000 OA
ATOM     21  H   UNL     1       2.155   3.619  16.447  0.00  0.00    +0.000 HD
ENDBRANCH  18  20
ENDBRANCH  17  18
ENDBRANCH  16  17
ENDBRANCH  14  16
ENDBRANCH   8  14
TORSDOF 5
ENDMDL
