MODEL 1
REMARK VINA RESULT:      -7.4      0.000      0.000
REMARK  Name = 
REMARK  7 active torsions:
REMARK  status: ('A' for Active; 'I' for Inactive)
REMARK    1  A    between atoms: C_1  and  O_2
REMARK    2  A    between atoms: O_2  and  C_3
REMARK    3  A    between atoms: C_3  and  C_4
REMARK    4  A    between atoms: C_4  and  C_5
REMARK    5  A    between atoms: N_7  and  C_8
REMARK    6  A    between atoms: C_8  and  C_9
REMARK    7  A    between atoms: C_11  and  C_12
REMARK                            x       y       z     vdW  Elec       q    Type
REMARK                         _______ _______ _______ _____ _____    ______ ____
ROOT
ATOM      1  C   UNL     1       6.102   5.430  19.139  0.00  0.00    +0.000 C 
ENDROOT
BRANCH   1   2
ATOM      2  C   UNL     1       6.567   5.096  17.767  0.00  0.00    +0.000 A 
ATOM      3  C   UNL     1       5.810   5.130  16.575  0.00  0.00    +0.000 A 
ATOM      4  C   UNL     1       6.653   4.652  15.601  0.00  0.00    +0.000 A 
ATOM      5  O   UNL     1       7.868   4.400  16.174  0.00  0.00    +0.000 OA
ATOM      6  N   UNL     1       7.818   4.676  17.532  0.00  0.00    +0.000 NA
BRANCH   4   7
ATOM      7  C   UNL     1       6.538   4.359  14.175  0.00  0.00    +0.000 A 
ATOM      8  C   UNL     1       5.465   3.565  13.724  0.00  0.00    +0.000 A 
ATOM      9  C   UNL     1       5.305   3.257  12.371  0.00  0.00    +0.000 A 
ATOM     10  C   UNL     1       6.216   3.735  11.434  0.00  0.00    +0.000 A 
ATOM     11  C   UNL     1       7.288   4.520  11.854  0.00  0.00    +0.000 A 
ATOM     12  C   UNL     1       7.448   4.836  13.211  0.00  0.00    +0.000 A 
ATOM     13 CL   UNL     1       8.789   5.866  13.593  0.00  0.00    +0.000 Cl
ENDBRANCH   4   7
ENDBRANCH   1   2
BRANCH   1  16
ATOM     14  C   UNL     1       4.168   3.957  19.625  0.00  0.00    +0.000 C 
ATOM     15  O   UNL     1       4.916   3.004  19.858  0.00  0.00    +0.000 OA
ATOM     16  N   UNL     1       4.685   5.182  19.262  0.00  0.00    +0.000 N 
ATOM     17  H   UNL     1       4.035   5.894  18.935  0.00  0.00    +0.000 HD
BRANCH  14  18
ATOM     18  C   UNL     1       2.582   3.896  19.707  0.00  0.00    +0.000 C 
ATOM     19  C   UNL     1       1.985   4.528  21.012  0.00  0.00    +0.000 C 
ATOM     20  C   UNL     1       1.941   3.121  21.627  0.00  0.00    +0.000 C 
ATOM     21  C   UNL     1       1.979   2.542  20.203  0.00  0.00    +0.000 C 
BRANCH  18  22
ATOM     22  C   UNL     1       1.876   4.458  18.464  0.00  0.00    +0.000 C 
BRANCH  22  24
ATOM     23  C   UNL     1       2.750   3.026  16.800  0.00  0.00    +0.000 C 
ATOM     24  O   UNL     1       1.596   3.388  17.552  0.00  0.00    +0.000 OA
ENDBRANCH  22  24
ENDBRANCH  18  22
ENDBRANCH  14  18
ENDBRANCH   1  16
TORSDOF 6
ENDMDL
MODEL 2
REMARK VINA RESULT:      -7.4      1.302      1.634
REMARK  Name = 
REMARK  7 active torsions:
REMARK  status: ('A' for Active; 'I' for Inactive)
REMARK    1  A    between atoms: C_1  and  O_2
REMARK    2  A    between atoms: O_2  and  C_3
REMARK    3  A    between atoms: C_3  and  C_4
REMARK    4  A    between atoms: C_4  and  C_5
REMARK    5  A    between atoms: N_7  and  C_8
REMARK    6  A    between atoms: C_8  and  C_9
REMARK    7  A    between atoms: C_11  and  C_12
REMARK                            x       y       z     vdW  Elec       q    Type
REMARK                         _______ _______ _______ _____ _____    ______ ____
ROOT
ATOM      1  C   UNL     1       6.231   5.389  19.169  0.00  0.00    +0.000 C 
ENDROOT
BRANCH   1   2
ATOM      2  C   UNL     1       6.670   5.049  17.790  0.00  0.00    +0.000 A 
ATOM      3  C   UNL     1       5.906   5.133  16.604  0.00  0.00    +0.000 A 
ATOM      4  C   UNL     1       6.717   4.628  15.618  0.00  0.00    +0.000 A 
ATOM      5  O   UNL     1       7.924   4.313  16.178  0.00  0.00    +0.000 OA
ATOM      6  N   UNL     1       7.898   4.575  17.539  0.00  0.00    +0.000 NA
BRANCH   4   7
ATOM      7  C   UNL     1       6.578   4.357  14.190  0.00  0.00    +0.000 A 
ATOM      8  C   UNL     1       5.503   3.561  13.746  0.00  0.00    +0.000 A 
ATOM      9  C   UNL     1       5.320   3.274  12.392  0.00  0.00    +0.000 A 
ATOM     10  C   UNL     1       6.209   3.775  11.446  0.00  0.00    +0.000 A 
ATOM     11  C   UNL     1       7.283   4.561  11.859  0.00  0.00    +0.000 A 
ATOM     12  C   UNL     1       7.466   4.856  13.218  0.00  0.00    +0.000 A 
ATOM     13 CL   UNL     1       8.806   5.890  13.591  0.00  0.00    +0.000 Cl
ENDBRANCH   4   7
ENDBRANCH   1   2
BRANCH   1  16
ATOM     14  C   UNL     1       3.919   4.563  19.514  0.00  0.00    +0.000 C 
ATOM     15  O   UNL     1       4.331   3.428  19.767  0.00  0.00    +0.000 OA
ATOM     16  N   UNL     1       4.800   5.578  19.207  0.00  0.00    +0.000 N 
ATOM     17  H   UNL     1       4.414   6.454  18.861  0.00  0.00    +0.000 HD
BRANCH  14  18
ATOM     18  C   UNL     1       2.386   4.982  19.506  0.00  0.00    +0.000 C 
ATOM     19  C   UNL     1       1.551   4.372  20.686  0.00  0.00    +0.000 C 
ATOM     20  C   UNL     1       1.113   3.242  19.741  0.00  0.00    +0.000 C 
ATOM     21  C   UNL     1       1.461   4.156  18.554  0.00  0.00    +0.000 C 
BRANCH  18  22
ATOM     22  C   UNL     1       2.158   6.498  19.411  0.00  0.00    +0.000 C 
BRANCH  22  24
ATOM     23  C   UNL     1       2.242   8.338  17.932  0.00  0.00    +0.000 C 
ATOM     24  O   UNL     1       2.520   6.952  18.101  0.00  0.00    +0.000 OA
ENDBRANCH  22  24
ENDBRANCH  18  22
ENDBRANCH  14  18
ENDBRANCH   1  16
TORSDOF 6
ENDMDL
MODEL 3
REMARK VINA RESULT:      -7.4      3.636      7.629
REMARK  Name = 
REMARK  7 active torsions:
REMARK  status: ('A' for Active; 'I' for Inactive)
REMARK    1  A    between atoms: C_1  and  O_2
REMARK    2  A    between atoms: O_2  and  C_3
REMARK    3  A    between atoms: C_3  and  C_4
REMARK    4  A    between atoms: C_4  and  C_5
REMARK    5  A    between atoms: N_7  and  C_8
REMARK    6  A    between atoms: C_8  and  C_9
REMARK    7  A    between atoms: C_11  and  C_12
REMARK                            x       y       z     vdW  Elec       q    Type
REMARK                         _______ _______ _______ _____ _____    ______ ____
ROOT
ATOM      1  C   UNL     1       3.983   3.730  19.546  0.00  0.00    +0.000 C 
ENDROOT
BRANCH   1   2
ATOM      2  C   UNL     1       3.017   4.795  19.925  0.00  0.00    +0.000 A 
ATOM      3  C   UNL     1       3.083   6.167  19.596  0.00  0.00    +0.000 A 
ATOM      4  C   UNL     1       2.021   6.744  20.247  0.00  0.00    +0.000 A 
ATOM      5  O   UNL     1       1.324   5.757  20.885  0.00  0.00    +0.000 OA
ATOM      6  N   UNL     1       1.945   4.533  20.687  0.00  0.00    +0.000 NA
BRANCH   4   7
ATOM      7  C   UNL     1       1.511   8.103  20.409  0.00  0.00    +0.000 A 
ATOM      8  C   UNL     1       1.170   8.557  21.699  0.00  0.00    +0.000 A 
ATOM      9  C   UNL     1       0.681   9.848  21.911  0.00  0.00    +0.000 A 
ATOM     10  C   UNL     1       0.520  10.718  20.838  0.00  0.00    +0.000 A 
ATOM     11  C   UNL     1       0.846  10.293  19.551  0.00  0.00    +0.000 A 
ATOM     12  C   UNL     1       1.343   8.999  19.336  0.00  0.00    +0.000 A 
ATOM     13 CL   UNL     1       1.763   8.617  17.699  0.00  0.00    +0.000 Cl
ENDBRANCH   4   7
ENDBRANCH   1   2
BRANCH   1  16
ATOM     14  C   UNL     1       4.778   4.221  17.250  0.00  0.00    +0.000 C 
ATOM     15  O   UNL     1       3.754   3.738  16.760  0.00  0.00    +0.000 OA
ATOM     16  N   UNL     1       4.958   4.247  18.616  0.00  0.00    +0.000 N 
ATOM     17  H   UNL     1       5.875   4.515  18.969  0.00  0.00    +0.000 HD
BRANCH  14  18
ATOM     18  C   UNL     1       5.970   4.846  16.405  0.00  0.00    +0.000 C 
ATOM     19  C   UNL     1       5.508   5.615  15.118  0.00  0.00    +0.000 C 
ATOM     20  C   UNL     1       5.773   4.338  14.306  0.00  0.00    +0.000 C 
ATOM     21  C   UNL     1       6.703   3.863  15.435  0.00  0.00    +0.000 C 
BRANCH  18  22
ATOM     22  C   UNL     1       6.931   5.711  17.234  0.00  0.00    +0.000 C 
BRANCH  22  24
ATOM     23  C   UNL     1       7.706   7.921  17.545  0.00  0.00    +0.000 C 
ATOM     24  O   UNL     1       6.861   7.068  16.779  0.00  0.00    +0.000 OA
ENDBRANCH  22  24
ENDBRANCH  18  22
ENDBRANCH  14  18
ENDBRANCH   1  16
TORSDOF 6
ENDMDL
MODEL 4
REMARK VINA RESULT:      -7.2      3.445      7.424
REMARK  Name = 
REMARK  7 active torsions:
REMARK  status: ('A' for Active; 'I' for Inactive)
REMARK    1  A    between atoms: C_1  and  O_2
REMARK    2  A    between atoms: O_2  and  C_3
REMARK    3  A    between atoms: C_3  and  C_4
REMARK    4  A    between atoms: C_4  and  C_5
REMARK    5  A    between atoms: N_7  and  C_8
REMARK    6  A    between atoms: C_8  and  C_9
REMARK    7  A    between atoms: C_11  and  C_12
REMARK                            x       y       z     vdW  Elec       q    Type
REMARK                         _______ _______ _______ _____ _____    ______ ____
ROOT
ATOM      1  C   UNL     1       3.854   3.441  19.237  0.00  0.00    +0.000 C 
ENDROOT
BRANCH   1   2
ATOM      2  C   UNL     1       3.009   4.551  19.752  0.00  0.00    +0.000 A 
ATOM      3  C   UNL     1       2.938   5.873  19.258  0.00  0.00    +0.000 A 
ATOM      4  C   UNL     1       2.094   6.533  20.117  0.00  0.00    +0.000 A 
ATOM      5  O   UNL     1       1.639   5.635  21.042  0.00  0.00    +0.000 OA
ATOM      6  N   UNL     1       2.212   4.392  20.817  0.00  0.00    +0.000 NA
BRANCH   4   7
ATOM      7  C   UNL     1       1.614   7.905  20.258  0.00  0.00    +0.000 A 
ATOM      8  C   UNL     1       1.180   8.351  21.522  0.00  0.00    +0.000 A 
ATOM      9  C   UNL     1       0.715   9.654  21.714  0.00  0.00    +0.000 A 
ATOM     10  C   UNL     1       0.672  10.544  20.646  0.00  0.00    +0.000 A 
ATOM     11  C   UNL     1       1.093  10.127  19.385  0.00  0.00    +0.000 A 
ATOM     12  C   UNL     1       1.565   8.821  19.190  0.00  0.00    +0.000 A 
ATOM     13 CL   UNL     1       2.111   8.449  17.588  0.00  0.00    +0.000 Cl
ENDBRANCH   4   7
ENDBRANCH   1   2
BRANCH   1  16
ATOM     14  C   UNL     1       5.166   4.242  17.292  0.00  0.00    +0.000 C 
ATOM     15  O   UNL     1       4.216   4.042  16.532  0.00  0.00    +0.000 OA
ATOM     16  N   UNL     1       5.058   3.966  18.638  0.00  0.00    +0.000 N 
ATOM     17  H   UNL     1       5.906   4.004  19.200  0.00  0.00    +0.000 HD
BRANCH  14  18
ATOM     18  C   UNL     1       6.576   4.818  16.837  0.00  0.00    +0.000 C 
ATOM     19  C   UNL     1       7.704   4.672  17.917  0.00  0.00    +0.000 C 
ATOM     20  C   UNL     1       7.407   6.111  18.366  0.00  0.00    +0.000 C 
ATOM     21  C   UNL     1       6.761   6.362  16.994  0.00  0.00    +0.000 C 
BRANCH  18  22
ATOM     22  C   UNL     1       7.055   4.282  15.480  0.00  0.00    +0.000 C 
BRANCH  22  24
ATOM     23  C   UNL     1       7.495   5.040  13.286  0.00  0.00    +0.000 C 
ATOM     24  O   UNL     1       7.507   5.374  14.670  0.00  0.00    +0.000 OA
ENDBRANCH  22  24
ENDBRANCH  18  22
ENDBRANCH  14  18
ENDBRANCH   1  16
TORSDOF 6
ENDMDL
MODEL 5
REMARK VINA RESULT:      -7.1      5.169      8.123
REMARK  Name = 
REMARK  7 active torsions:
REMARK  status: ('A' for Active; 'I' for Inactive)
REMARK    1  A    between atoms: C_1  and  O_2
REMARK    2  A    between atoms: O_2  and  C_3
REMARK    3  A    between atoms: C_3  and  C_4
REMARK    4  A    between atoms: C_4  and  C_5
REMARK    5  A    between atoms: N_7  and  C_8
REMARK    6  A    between atoms: C_8  and  C_9
REMARK    7  A    between atoms: C_11  and  C_12
REMARK                            x       y       z     vdW  Elec       q    Type
REMARK                         _______ _______ _______ _____ _____    ______ ____
ROOT
ATOM      1  C   UNL     1       3.123   6.357  18.659  0.00  0.00    +0.000 C 
ENDROOT
BRANCH   1   2
ATOM      2  C   UNL     1       2.525   7.696  18.410  0.00  0.00    +0.000 A 
ATOM      3  C   UNL     1       1.686   8.433  19.276  0.00  0.00    +0.000 A 
ATOM      4  C   UNL     1       1.328   9.550  18.563  0.00  0.00    +0.000 A 
ATOM      5  O   UNL     1       1.967   9.509  17.355  0.00  0.00    +0.000 OA
ATOM      6  N   UNL     1       2.717   8.347  17.255  0.00  0.00    +0.000 NA
BRANCH   4   7
ATOM      7  C   UNL     1       0.455  10.699  18.793  0.00  0.00    +0.000 A 
ATOM      8  C   UNL     1      -0.899  10.476  19.109  0.00  0.00    +0.000 A 
ATOM      9  C   UNL     1      -1.777  11.537  19.343  0.00  0.00    +0.000 A 
ATOM     10  C   UNL     1      -1.321  12.850  19.265  0.00  0.00    +0.000 A 
ATOM     11  C   UNL     1       0.014  13.097  18.950  0.00  0.00    +0.000 A 
ATOM     12  C   UNL     1       0.899  12.033  18.721  0.00  0.00    +0.000 A 
ATOM     13 CL   UNL     1       2.542  12.477  18.396  0.00  0.00    +0.000 Cl
ENDBRANCH   4   7
ENDBRANCH   1   2
BRANCH   1  16
ATOM     14  C   UNL     1       5.487   5.610  18.701  0.00  0.00    +0.000 C 
ATOM     15  O   UNL     1       5.314   5.026  19.774  0.00  0.00    +0.000 OA
ATOM     16  N   UNL     1       4.451   6.290  18.097  0.00  0.00    +0.000 N 
ATOM     17  H   UNL     1       4.672   6.878  17.296  0.00  0.00    +0.000 HD
BRANCH  14  18
ATOM     18  C   UNL     1       6.867   5.655  17.914  0.00  0.00    +0.000 C 
ATOM     19  C   UNL     1       8.121   5.856  18.834  0.00  0.00    +0.000 C 
ATOM     20  C   UNL     1       8.051   7.362  18.536  0.00  0.00    +0.000 C 
ATOM     21  C   UNL     1       7.238   7.032  17.273  0.00  0.00    +0.000 C 
BRANCH  18  22
ATOM     22  C   UNL     1       7.078   4.466  16.965  0.00  0.00    +0.000 C 
BRANCH  22  24
ATOM     23  C   UNL     1       6.661   4.410  14.640  0.00  0.00    +0.000 C 
ATOM     24  O   UNL     1       7.475   4.950  15.676  0.00  0.00    +0.000 OA
ENDBRANCH  22  24
ENDBRANCH  18  22
ENDBRANCH  14  18
ENDBRANCH   1  16
TORSDOF 6
ENDMDL
MODEL 6
REMARK VINA RESULT:      -7.0      6.384      8.087
REMARK  Name = 
REMARK  7 active torsions:
REMARK  status: ('A' for Active; 'I' for Inactive)
REMARK    1  A    between atoms: C_1  and  O_2
REMARK    2  A    between atoms: O_2  and  C_3
REMARK    3  A    between atoms: C_3  and  C_4
REMARK    4  A    between atoms: C_4  and  C_5
REMARK    5  A    between atoms: N_7  and  C_8
REMARK    6  A    between atoms: C_8  and  C_9
REMARK    7  A    between atoms: C_11  and  C_12
REMARK                            x       y       z     vdW  Elec       q    Type
REMARK                         _______ _______ _______ _____ _____    ______ ____
ROOT
ATOM      1  C   UNL     1       0.868  10.598  18.583  0.00  0.00    +0.000 C 
ENDROOT
BRANCH   1   2
ATOM      2  C   UNL     1       1.481   9.253  18.746  0.00  0.00    +0.000 A 
ATOM      3  C   UNL     1       1.983   8.413  17.727  0.00  0.00    +0.000 A 
ATOM      4  C   UNL     1       2.355   7.256  18.367  0.00  0.00    +0.000 A 
ATOM      5  O   UNL     1       2.139   7.421  19.707  0.00  0.00    +0.000 OA
ATOM      6  N   UNL     1       1.590   8.671  19.948  0.00  0.00    +0.000 NA
BRANCH   4   7
ATOM      7  C   UNL     1       2.886   5.960  17.953  0.00  0.00    +0.000 A 
ATOM      8  C   UNL     1       2.057   4.824  18.031  0.00  0.00    +0.000 A 
ATOM      9  C   UNL     1       2.512   3.562  17.645  0.00  0.00    +0.000 A 
ATOM     10  C   UNL     1       3.811   3.403  17.171  0.00  0.00    +0.000 A 
ATOM     11  C   UNL     1       4.653   4.511  17.087  0.00  0.00    +0.000 A 
ATOM     12  C   UNL     1       4.197   5.780  17.469  0.00  0.00    +0.000 A 
ATOM     13 CL   UNL     1       5.324   7.080  17.262  0.00  0.00    +0.000 Cl
ENDBRANCH   4   7
ENDBRANCH   1   2
BRANCH   1  16
ATOM     14  C   UNL     1      -1.314  11.563  17.908  0.00  0.00    +0.000 C 
ATOM     15  O   UNL     1      -0.880  12.710  18.037  0.00  0.00    +0.000 OA
ATOM     16  N   UNL     1      -0.508  10.474  18.164  0.00  0.00    +0.000 N 
ATOM     17  H   UNL     1      -0.945   9.555  18.191  0.00  0.00    +0.000 HD
BRANCH  14  18
ATOM     18  C   UNL     1      -2.795  11.207  17.454  0.00  0.00    +0.000 C 
ATOM     19  C   UNL     1      -3.079   9.668  17.351  0.00  0.00    +0.000 C 
ATOM     20  C   UNL     1      -2.777   9.752  15.846  0.00  0.00    +0.000 C 
ATOM     21  C   UNL     1      -3.065  11.261  15.915  0.00  0.00    +0.000 C 
BRANCH  18  22
ATOM     22  C   UNL     1      -3.883  11.901  18.287  0.00  0.00    +0.000 C 
BRANCH  22  24
ATOM     23  C   UNL     1      -4.261  12.928  20.381  0.00  0.00    +0.000 C 
ATOM     24  O   UNL     1      -3.428  12.043  19.639  0.00  0.00    +0.000 OA
ENDBRANCH  22  24
ENDBRANCH  18  22
ENDBRANCH  14  18
ENDBRANCH   1  16
TORSDOF 6
ENDMDL
MODEL 7
REMARK VINA RESULT:      -7.0      4.510      8.576
REMARK  Name = 
REMARK  7 active torsions:
REMARK  status: ('A' for Active; 'I' for Inactive)
REMARK    1  A    between atoms: C_1  and  O_2
REMARK    2  A    between atoms: O_2  and  C_3
REMARK    3  A    between atoms: C_3  and  C_4
REMARK    4  A    between atoms: C_4  and  C_5
REMARK    5  A    between atoms: N_7  and  C_8
REMARK    6  A    between atoms: C_8  and  C_9
REMARK    7  A    between atoms: C_11  and  C_12
REMARK                            x       y       z     vdW  Elec       q    Type
REMARK                         _______ _______ _______ _____ _____    ______ ____
ROOT
ATOM      1  C   UNL     1       2.982   5.305  19.056  0.00  0.00    +0.000 C 
ENDROOT
BRANCH   1   2
ATOM      2  C   UNL     1       2.411   6.630  19.417  0.00  0.00    +0.000 A 
ATOM      3  C   UNL     1       1.673   6.957  20.576  0.00  0.00    +0.000 A 
ATOM      4  C   UNL     1       1.295   8.265  20.404  0.00  0.00    +0.000 A 
ATOM      5  O   UNL     1       1.829   8.713  19.228  0.00  0.00    +0.000 OA
ATOM      6  N   UNL     1       2.529   7.690  18.606  0.00  0.00    +0.000 NA
BRANCH   4   7
ATOM      7  C   UNL     1       0.484   9.224  21.150  0.00  0.00    +0.000 A 
ATOM      8  C   UNL     1       0.406   9.109  22.552  0.00  0.00    +0.000 A 
ATOM      9  C   UNL     1      -0.351  10.000  23.315  0.00  0.00    +0.000 A 
ATOM     10  C   UNL     1      -1.051  11.030  22.695  0.00  0.00    +0.000 A 
ATOM     11  C   UNL     1      -0.994  11.164  21.309  0.00  0.00    +0.000 A 
ATOM     12  C   UNL     1      -0.230  10.274  20.540  0.00  0.00    +0.000 A 
ATOM     13 CL   UNL     1      -0.197  10.585  18.836  0.00  0.00    +0.000 Cl
ENDBRANCH   4   7
ENDBRANCH   1   2
BRANCH   1  16
ATOM     14  C   UNL     1       5.203   4.744  18.107  0.00  0.00    +0.000 C 
ATOM     15  O   UNL     1       5.414   3.928  19.008  0.00  0.00    +0.000 OA
ATOM     16  N   UNL     1       4.026   5.461  18.071  0.00  0.00    +0.000 N 
ATOM     17  H   UNL     1       3.956   6.226  17.403  0.00  0.00    +0.000 HD
BRANCH  14  18
ATOM     18  C   UNL     1       6.217   5.062  16.926  0.00  0.00    +0.000 C 
ATOM     19  C   UNL     1       5.573   5.830  15.720  0.00  0.00    +0.000 C 
ATOM     20  C   UNL     1       5.378   4.478  15.014  0.00  0.00    +0.000 C 
ATOM     21  C   UNL     1       6.475   3.895  15.919  0.00  0.00    +0.000 C 
BRANCH  18  22
ATOM     22  C   UNL     1       7.503   5.764  17.387  0.00  0.00    +0.000 C 
BRANCH  22  24
ATOM     23  C   UNL     1       7.801   8.100  17.584  0.00  0.00    +0.000 C 
ATOM     24  O   UNL     1       7.644   7.006  16.686  0.00  0.00    +0.000 OA
ENDBRANCH  22  24
ENDBRANCH  18  22
ENDBRANCH  14  18
ENDBRANCH   1  16
TORSDOF 6
ENDMDL
MODEL 8
REMARK VINA RESULT:      -6.9      6.610      8.271
REMARK  Name = 
REMARK  7 active torsions:
REMARK  status: ('A' for Active; 'I' for Inactive)
REMARK    1  A    between atoms: C_1  and  O_2
REMARK    2  A    between atoms: O_2  and  C_3
REMARK    3  A    between atoms: C_3  and  C_4
REMARK    4  A    between atoms: C_4  and  C_5
REMARK    5  A    between atoms: N_7  and  C_8
REMARK    6  A    between atoms: C_8  and  C_9
REMARK    7  A    between atoms: C_11  and  C_12
REMARK                            x       y       z     vdW  Elec       q    Type
REMARK                         _______ _______ _______ _____ _____    ______ ____
ROOT
ATOM      1  C   UNL     1       0.286  10.501  18.968  0.00  0.00    +0.000 C 
ENDROOT
BRANCH   1   2
ATOM      2  C   UNL     1       1.190   9.321  18.965  0.00  0.00    +0.000 A 
ATOM      3  C   UNL     1       1.867   8.763  17.857  0.00  0.00    +0.000 A 
ATOM      4  C   UNL     1       2.495   7.644  18.346  0.00  0.00    +0.000 A 
ATOM      5  O   UNL     1       2.252   7.571  19.690  0.00  0.00    +0.000 OA
ATOM      6  N   UNL     1       1.434   8.619  20.081  0.00  0.00    +0.000 NA
BRANCH   4   7
ATOM      7  C   UNL     1       3.307   6.572  17.778  0.00  0.00    +0.000 A 
ATOM      8  C   UNL     1       4.506   6.899  17.115  0.00  0.00    +0.000 A 
ATOM      9  C   UNL     1       5.322   5.913  16.556  0.00  0.00    +0.000 A 
ATOM     10  C   UNL     1       4.958   4.573  16.646  0.00  0.00    +0.000 A 
ATOM     11  C   UNL     1       3.775   4.222  17.294  0.00  0.00    +0.000 A 
ATOM     12  C   UNL     1       2.957   5.210  17.860  0.00  0.00    +0.000 A 
ATOM     13 CL   UNL     1       1.545   4.636  18.686  0.00  0.00    +0.000 Cl
ENDBRANCH   4   7
ENDBRANCH   1   2
BRANCH   1  16
ATOM     14  C   UNL     1      -1.767  11.144  17.734  0.00  0.00    +0.000 C 
ATOM     15  O   UNL     1      -1.462  12.338  17.790  0.00  0.00    +0.000 OA
ATOM     16  N   UNL     1      -0.953  10.184  18.297  0.00  0.00    +0.000 N 
ATOM     17  H   UNL     1      -1.312   9.234  18.360  0.00  0.00    +0.000 HD
BRANCH  14  18
ATOM     18  C   UNL     1      -3.082  10.583  17.040  0.00  0.00    +0.000 C 
ATOM     19  C   UNL     1      -2.844   9.310  16.155  0.00  0.00    +0.000 C 
ATOM     20  C   UNL     1      -2.744  10.229  14.927  0.00  0.00    +0.000 C 
ATOM     21  C   UNL     1      -3.511  11.301  15.719  0.00  0.00    +0.000 C 
BRANCH  18  22
ATOM     22  C   UNL     1      -4.247  10.353  18.014  0.00  0.00    +0.000 C 
BRANCH  22  24
ATOM     23  C   UNL     1      -6.165  11.568  18.665  0.00  0.00    +0.000 C 
ATOM     24  O   UNL     1      -5.392  11.091  17.569  0.00  0.00    +0.000 OA
ENDBRANCH  22  24
ENDBRANCH  18  22
ENDBRANCH  14  18
ENDBRANCH   1  16
TORSDOF 6
ENDMDL
MODEL 9
REMARK VINA RESULT:      -6.9      6.012      9.155
REMARK  Name = 
REMARK  7 active torsions:
REMARK  status: ('A' for Active; 'I' for Inactive)
REMARK    1  A    between atoms: C_1  and  O_2
REMARK    2  A    between atoms: O_2  and  C_3
REMARK    3  A    between atoms: C_3  and  C_4
REMARK    4  A    between atoms: C_4  and  C_5
REMARK    5  A    between atoms: N_7  and  C_8
REMARK    6  A    between atoms: C_8  and  C_9
REMARK    7  A    between atoms: C_11  and  C_12
REMARK                            x       y       z     vdW  Elec       q    Type
REMARK                         _______ _______ _______ _____ _____    ______ ____
ROOT
ATOM      1  C   UNL     1       2.341   8.562  17.640  0.00  0.00    +0.000 C 
ENDROOT
BRANCH   1   2
ATOM      2  C   UNL     1       1.693   9.571  18.519  0.00  0.00    +0.000 A 
ATOM      3  C   UNL     1       0.751   9.334  19.545  0.00  0.00    +0.000 A 
ATOM      4  C   UNL     1       0.391  10.579  19.997  0.00  0.00    +0.000 A 
ATOM      5  O   UNL     1       1.124  11.510  19.315  0.00  0.00    +0.000 OA
ATOM      6  N   UNL     1       1.941  10.882  18.387  0.00  0.00    +0.000 NA
BRANCH   4   7
ATOM      7  C   UNL     1      -0.557  11.099  20.979  0.00  0.00    +0.000 A 
ATOM      8  C   UNL     1      -1.482  12.085  20.583  0.00  0.00    +0.000 A 
ATOM      9  C   UNL     1      -2.413  12.613  21.480  0.00  0.00    +0.000 A 
ATOM     10  C   UNL     1      -2.442  12.168  22.798  0.00  0.00    +0.000 A 
ATOM     11  C   UNL     1      -1.536  11.196  23.217  0.00  0.00    +0.000 A 
ATOM     12  C   UNL     1      -0.603  10.660  22.317  0.00  0.00    +0.000 A 
ATOM     13 CL   UNL     1       0.427   9.418  22.949  0.00  0.00    +0.000 Cl
ENDBRANCH   4   7
ENDBRANCH   1   2
BRANCH   1  16
ATOM     14  C   UNL     1       3.082   6.269  18.220  0.00  0.00    +0.000 C 
ATOM     15  O   UNL     1       4.232   6.515  17.848  0.00  0.00    +0.000 OA
ATOM     16  N   UNL     1       2.098   7.231  18.143  0.00  0.00    +0.000 N 
ATOM     17  H   UNL     1       1.138   6.943  18.318  0.00  0.00    +0.000 HD
BRANCH  14  18
ATOM     18  C   UNL     1       2.607   4.871  18.808  0.00  0.00    +0.000 C 
ATOM     19  C   UNL     1       3.563   3.675  18.465  0.00  0.00    +0.000 C 
ATOM     20  C   UNL     1       2.650   3.338  17.275  0.00  0.00    +0.000 C 
ATOM     21  C   UNL     1       1.522   4.116  17.973  0.00  0.00    +0.000 C 
BRANCH  18  22
ATOM     22  C   UNL     1       2.303   4.903  20.314  0.00  0.00    +0.000 C 
BRANCH  22  24
ATOM     23  C   UNL     1       1.510   3.013  21.489  0.00  0.00    +0.000 C 
ATOM     24  O   UNL     1       1.174   4.064  20.588  0.00  0.00    +0.000 OA
ENDBRANCH  22  24
ENDBRANCH  18  22
ENDBRANCH  14  18
ENDBRANCH   1  16
TORSDOF 6
ENDMDL
