MODEL 1
REMARK VINA RESULT:      -6.9      0.000      0.000
REMARK  Name = 
REMARK  5 active torsions:
REMARK  status: ('A' for Active; 'I' for Inactive)
REMARK    1  A    between atoms: C_1  and  C_2
REMARK    2  A    between atoms: C_11  and  C_12
REMARK    3  A    between atoms: C_14  and  C_16
REMARK    4  A    between atoms: C_18  and  C_19
REMARK    5  A    between atoms: C_19  and  O_21
REMARK                            x       y       z     vdW  Elec       q    Type
REMARK                         _______ _______ _______ _____ _____    ______ ____
ROOT
ATOM      1  C   UNL     1       1.521   8.365  21.560  0.00  0.00    +0.000 C 
ATOM      2  C   UNL     1       1.981   7.430  20.452  0.00  0.00    +0.000 C 
ATOM      3  C   UNL     1       1.116   6.162  20.522  0.00  0.00    +0.000 C 
ATOM      4  C   UNL     1       1.655   5.085  19.623  0.00  0.00    +0.000 A 
ATOM      5  C   UNL     1       1.345   3.745  19.896  0.00  0.00    +0.000 A 
ATOM      6  C   UNL     1       1.808   2.742  19.059  0.00  0.00    +0.000 A 
ATOM      7  F   UNL     1       1.517   1.465  19.335  0.00  0.00    +0.000 F 
ATOM      8  C   UNL     1       2.565   3.045  17.935  0.00  0.00    +0.000 A 
ATOM      9  C   UNL     1       2.872   4.378  17.652  0.00  0.00    +0.000 A 
ATOM     10  C   UNL     1       2.434   5.415  18.498  0.00  0.00    +0.000 A 
ATOM     11  C   UNL     1       2.813   6.866  18.184  0.00  0.00    +0.000 C 
ATOM     12  C   UNL     1       4.330   7.081  18.298  0.00  0.00    +0.000 C 
ATOM     13  N   UNL     1       2.097   7.862  19.030  0.00  0.00    +0.000 N 
ATOM     14  C   UNL     1       1.473   8.909  18.319  0.00  0.00    +0.000 C 
ATOM     15  O   UNL     1       1.444   8.923  17.077  0.00  0.00    +0.000 OA
ENDROOT
BRANCH  14  16
ATOM     16  C   UNL     1       0.845  10.115  18.945  0.00  0.00    +0.000 A 
ATOM     17  C   UNL     1      -0.510  10.351  18.735  0.00  0.00    +0.000 A 
ATOM     18  C   UNL     1      -1.045  11.552  19.202  0.00  0.00    +0.000 A 
ATOM     19  C   UNL     1      -0.259  12.431  19.940  0.00  0.00    +0.000 A 
ATOM     20  C   UNL     1       1.074  12.124  20.078  0.00  0.00    +0.000 A 
ATOM     21  N   UNL     1       1.642  11.024  19.541  0.00  0.00    +0.000 NA
BRANCH  18  22
ATOM     22  C   UNL     1      -2.439  11.952  18.919  0.00  0.00    +0.000 C 
ATOM     23  O   UNL     1      -3.228  12.258  19.795  0.00  0.00    +0.000 OA
BRANCH  22  24
ATOM     24  O   UNL     1      -2.715  12.034  17.601  0.00  0.00    +0.000 OA
ATOM     25  H   UNL     1      -2.143  11.509  17.009  0.00  0.00    +0.000 HD
ENDBRANCH  22  24
ENDBRANCH  18  22
ENDBRANCH  14  16
TORSDOF 3
ENDMDL
MODEL 2
REMARK VINA RESULT:      -6.7      2.755      4.718
REMARK  Name = 
REMARK  5 active torsions:
REMARK  status: ('A' for Active; 'I' for Inactive)
REMARK    1  A    between atoms: C_1  and  C_2
REMARK    2  A    between atoms: C_11  and  C_12
REMARK    3  A    between atoms: C_14  and  C_16
REMARK    4  A    between atoms: C_18  and  C_19
REMARK    5  A    between atoms: C_19  and  O_21
REMARK                            x       y       z     vdW  Elec       q    Type
REMARK                         _______ _______ _______ _____ _____    ______ ____
ROOT
ATOM      1  C   UNL     1      -0.775  11.781  22.403  0.00  0.00    +0.000 C 
ATOM      2  C   UNL     1      -0.053  11.282  21.161  0.00  0.00    +0.000 C 
ATOM      3  C   UNL     1       0.014   9.750  21.244  0.00  0.00    +0.000 C 
ATOM      4  C   UNL     1       0.919   9.187  20.183  0.00  0.00    +0.000 A 
ATOM      5  C   UNL     1       1.502   7.926  20.378  0.00  0.00    +0.000 A 
ATOM      6  C   UNL     1       2.314   7.379  19.397  0.00  0.00    +0.000 A 
ATOM      7  F   UNL     1       2.876   6.181  19.598  0.00  0.00    +0.000 F 
ATOM      8  C   UNL     1       2.546   8.055  18.206  0.00  0.00    +0.000 A 
ATOM      9  C   UNL     1       1.962   9.307  18.001  0.00  0.00    +0.000 A 
ATOM     10  C   UNL     1       1.152   9.896  18.990  0.00  0.00    +0.000 A 
ATOM     11  C   UNL     1       0.551  11.286  18.755  0.00  0.00    +0.000 C 
ATOM     12  C   UNL     1       1.648  12.358  18.665  0.00  0.00    +0.000 C 
ATOM     13  N   UNL     1      -0.455  11.678  19.782  0.00  0.00    +0.000 N 
ATOM     14  C   UNL     1      -1.683  12.144  19.266  0.00  0.00    +0.000 C 
ATOM     15  O   UNL     1      -1.926  12.119  18.047  0.00  0.00    +0.000 OA
ENDROOT
BRANCH  14  16
ATOM     16  C   UNL     1      -2.780  12.754  20.081  0.00  0.00    +0.000 A 
ATOM     17  C   UNL     1      -4.015  12.116  20.128  0.00  0.00    +0.000 A 
ATOM     18  C   UNL     1      -5.066  12.772  20.771  0.00  0.00    +0.000 A 
ATOM     19  C   UNL     1      -4.844  13.980  21.426  0.00  0.00    +0.000 A 
ATOM     20  C   UNL     1      -3.596  14.544  21.306  0.00  0.00    +0.000 A 
ATOM     21  N   UNL     1      -2.593  13.985  20.596  0.00  0.00    +0.000 NA
BRANCH  18  22
ATOM     22  C   UNL     1      -6.444  12.238  20.765  0.00  0.00    +0.000 C 
ATOM     23  O   UNL     1      -6.894  11.567  21.677  0.00  0.00    +0.000 OA
BRANCH  22  24
ATOM     24  O   UNL     1      -7.172  12.645  19.706  0.00  0.00    +0.000 OA
ATOM     25  H   UNL     1      -6.871  12.331  18.832  0.00  0.00    +0.000 HD
ENDBRANCH  22  24
ENDBRANCH  18  22
ENDBRANCH  14  16
TORSDOF 3
ENDMDL
MODEL 3
REMARK VINA RESULT:      -6.6      1.785      2.219
REMARK  Name = 
REMARK  5 active torsions:
REMARK  status: ('A' for Active; 'I' for Inactive)
REMARK    1  A    between atoms: C_1  and  C_2
REMARK    2  A    between atoms: C_11  and  C_12
REMARK    3  A    between atoms: C_14  and  C_16
REMARK    4  A    between atoms: C_18  and  C_19
REMARK    5  A    between atoms: C_19  and  O_21
REMARK                            x       y       z     vdW  Elec       q    Type
REMARK                         _______ _______ _______ _____ _____    ______ ____
ROOT
ATOM      1  C   UNL     1       1.666   8.381  21.626  0.00  0.00    +0.000 C 
ATOM      2  C   UNL     1       2.029   7.457  20.474  0.00  0.00    +0.000 C 
ATOM      3  C   UNL     1       1.164   6.193  20.599  0.00  0.00    +0.000 C 
ATOM      4  C   UNL     1       1.623   5.124  19.647  0.00  0.00    +0.000 A 
ATOM      5  C   UNL     1       1.327   3.782  19.928  0.00  0.00    +0.000 A 
ATOM      6  C   UNL     1       1.715   2.787  19.045  0.00  0.00    +0.000 A 
ATOM      7  F   UNL     1       1.440   1.509  19.329  0.00  0.00    +0.000 F 
ATOM      8  C   UNL     1       2.381   3.100  17.867  0.00  0.00    +0.000 A 
ATOM      9  C   UNL     1       2.673   4.434  17.576  0.00  0.00    +0.000 A 
ATOM     10  C   UNL     1       2.310   5.463  18.466  0.00  0.00    +0.000 A 
ATOM     11  C   UNL     1       2.672   6.915  18.140  0.00  0.00    +0.000 C 
ATOM     12  C   UNL     1       4.195   7.121  18.133  0.00  0.00    +0.000 C 
ATOM     13  N   UNL     1       2.032   7.905  19.052  0.00  0.00    +0.000 N 
ATOM     14  C   UNL     1       1.360   8.964  18.406  0.00  0.00    +0.000 C 
ATOM     15  O   UNL     1       1.231   8.993  17.171  0.00  0.00    +0.000 OA
ENDROOT
BRANCH  14  16
ATOM     16  C   UNL     1       0.791  10.166  19.094  0.00  0.00    +0.000 A 
ATOM     17  C   UNL     1       1.626  11.247  19.357  0.00  0.00    +0.000 A 
ATOM     18  C   UNL     1       1.118  12.294  20.126  0.00  0.00    +0.000 A 
ATOM     19  C   UNL     1      -0.215  12.290  20.525  0.00  0.00    +0.000 A 
ATOM     20  C   UNL     1      -0.957  11.169  20.237  0.00  0.00    +0.000 A 
ATOM     21  N   UNL     1      -0.459  10.094  19.592  0.00  0.00    +0.000 NA
BRANCH  18  22
ATOM     22  C   UNL     1       1.962  13.425  20.566  0.00  0.00    +0.000 C 
ATOM     23  O   UNL     1       1.888  13.907  21.682  0.00  0.00    +0.000 OA
BRANCH  22  24
ATOM     24  O   UNL     1       2.876  13.799  19.648  0.00  0.00    +0.000 OA
ATOM     25  H   UNL     1       2.977  14.760  19.510  0.00  0.00    +0.000 HD
ENDBRANCH  22  24
ENDBRANCH  18  22
ENDBRANCH  14  16
TORSDOF 3
ENDMDL
MODEL 4
REMARK VINA RESULT:      -6.6      3.706      7.655
REMARK  Name = 
REMARK  5 active torsions:
REMARK  status: ('A' for Active; 'I' for Inactive)
REMARK    1  A    between atoms: C_1  and  C_2
REMARK    2  A    between atoms: C_11  and  C_12
REMARK    3  A    between atoms: C_14  and  C_16
REMARK    4  A    between atoms: C_18  and  C_19
REMARK    5  A    between atoms: C_19  and  O_21
REMARK                            x       y       z     vdW  Elec       q    Type
REMARK                         _______ _______ _______ _____ _____    ______ ____
ROOT
ATOM      1  C   UNL     1       3.218   8.194  17.640  0.00  0.00    +0.000 C 
ATOM      2  C   UNL     1       2.265   8.696  18.713  0.00  0.00    +0.000 C 
ATOM      3  C   UNL     1       1.009   9.231  18.009  0.00  0.00    +0.000 C 
ATOM      4  C   UNL     1       0.117   9.966  18.970  0.00  0.00    +0.000 A 
ATOM      5  C   UNL     1      -0.780  10.925  18.477  0.00  0.00    +0.000 A 
ATOM      6  C   UNL     1      -1.631  11.589  19.347  0.00  0.00    +0.000 A 
ATOM      7  F   UNL     1      -2.474  12.512  18.868  0.00  0.00    +0.000 F 
ATOM      8  C   UNL     1      -1.623  11.306  20.706  0.00  0.00    +0.000 A 
ATOM      9  C   UNL     1      -0.738  10.347  21.204  0.00  0.00    +0.000 A 
ATOM     10  C   UNL     1       0.153   9.674  20.347  0.00  0.00    +0.000 A 
ATOM     11  C   UNL     1       1.137   8.651  20.922  0.00  0.00    +0.000 C 
ATOM     12  C   UNL     1       2.156   9.324  21.856  0.00  0.00    +0.000 C 
ATOM     13  N   UNL     1       1.852   7.864  19.878  0.00  0.00    +0.000 N 
ATOM     14  C   UNL     1       1.822   6.465  20.061  0.00  0.00    +0.000 C 
ATOM     15  O   UNL     1       1.154   5.944  20.970  0.00  0.00    +0.000 OA
ENDROOT
BRANCH  14  16
ATOM     16  C   UNL     1       2.604   5.477  19.253  0.00  0.00    +0.000 A 
ATOM     17  C   UNL     1       3.986   5.433  19.401  0.00  0.00    +0.000 A 
ATOM     18  C   UNL     1       4.711   4.611  18.536  0.00  0.00    +0.000 A 
ATOM     19  C   UNL     1       4.049   3.791  17.628  0.00  0.00    +0.000 A 
ATOM     20  C   UNL     1       2.683   3.918  17.539  0.00  0.00    +0.000 A 
ATOM     21  N   UNL     1       1.968   4.787  18.285  0.00  0.00    +0.000 NA
BRANCH  18  22
ATOM     22  C   UNL     1       6.189   4.592  18.528  0.00  0.00    +0.000 C 
ATOM     23  O   UNL     1       6.858   4.931  19.488  0.00  0.00    +0.000 OA
BRANCH  22  24
ATOM     24  O   UNL     1       6.711   4.075  17.398  0.00  0.00    +0.000 OA
ATOM     25  H   UNL     1       6.291   3.258  17.066  0.00  0.00    +0.000 HD
ENDBRANCH  22  24
ENDBRANCH  18  22
ENDBRANCH  14  16
TORSDOF 3
ENDMDL
MODEL 5
REMARK VINA RESULT:      -6.6      4.022      6.546
REMARK  Name = 
REMARK  5 active torsions:
REMARK  status: ('A' for Active; 'I' for Inactive)
REMARK    1  A    between atoms: C_1  and  C_2
REMARK    2  A    between atoms: C_11  and  C_12
REMARK    3  A    between atoms: C_14  and  C_16
REMARK    4  A    between atoms: C_18  and  C_19
REMARK    5  A    between atoms: C_19  and  O_21
REMARK                            x       y       z     vdW  Elec       q    Type
REMARK                         _______ _______ _______ _____ _____    ______ ____
ROOT
ATOM      1  C   UNL     1      -1.440  13.498  22.737  0.00  0.00    +0.000 C 
ATOM      2  C   UNL     1      -1.075  12.722  21.481  0.00  0.00    +0.000 C 
ATOM      3  C   UNL     1      -0.620  11.320  21.915  0.00  0.00    +0.000 C 
ATOM      4  C   UNL     1      -0.013  10.565  20.765  0.00  0.00    +0.000 A 
ATOM      5  C   UNL     1       0.886   9.521  21.029  0.00  0.00    +0.000 A 
ATOM      6  C   UNL     1       1.430   8.795  19.981  0.00  0.00    +0.000 A 
ATOM      7  F   UNL     1       2.297   7.808  20.242  0.00  0.00    +0.000 F 
ATOM      8  C   UNL     1       1.084   9.073  18.666  0.00  0.00    +0.000 A 
ATOM      9  C   UNL     1       0.184  10.106  18.396  0.00  0.00    +0.000 A 
ATOM     10  C   UNL     1      -0.367  10.875  19.439  0.00  0.00    +0.000 A 
ATOM     11  C   UNL     1      -1.325  12.024  19.114  0.00  0.00    +0.000 C 
ATOM     12  C   UNL     1      -0.611  13.141  18.336  0.00  0.00    +0.000 C 
ATOM     13  N   UNL     1      -1.995  12.595  20.316  0.00  0.00    +0.000 N 
ATOM     14  C   UNL     1      -3.398  12.708  20.219  0.00  0.00    +0.000 C 
ATOM     15  O   UNL     1      -4.019  12.260  19.241  0.00  0.00    +0.000 OA
ENDROOT
BRANCH  14  16
ATOM     16  C   UNL     1      -4.274  13.403  21.215  0.00  0.00    +0.000 A 
ATOM     17  C   UNL     1      -4.914  12.646  22.190  0.00  0.00    +0.000 A 
ATOM     18  C   UNL     1      -5.838  13.288  23.016  0.00  0.00    +0.000 A 
ATOM     19  C   UNL     1      -6.028  14.663  22.920  0.00  0.00    +0.000 A 
ATOM     20  C   UNL     1      -5.367  15.324  21.912  0.00  0.00    +0.000 A 
ATOM     21  N   UNL     1      -4.554  14.709  21.029  0.00  0.00    +0.000 NA
BRANCH  18  22
ATOM     22  C   UNL     1      -6.661  12.548  23.995  0.00  0.00    +0.000 C 
ATOM     23  O   UNL     1      -7.877  12.616  24.019  0.00  0.00    +0.000 OA
BRANCH  22  24
ATOM     24  O   UNL     1      -5.942  11.727  24.786  0.00  0.00    +0.000 OA
ATOM     25  H   UNL     1      -4.990  11.657  24.580  0.00  0.00    +0.000 HD
ENDBRANCH  22  24
ENDBRANCH  18  22
ENDBRANCH  14  16
TORSDOF 3
ENDMDL
MODEL 6
REMARK VINA RESULT:      -6.4      4.815      7.103
REMARK  Name = 
REMARK  5 active torsions:
REMARK  status: ('A' for Active; 'I' for Inactive)
REMARK    1  A    between atoms: C_1  and  C_2
REMARK    2  A    between atoms: C_11  and  C_12
REMARK    3  A    between atoms: C_14  and  C_16
REMARK    4  A    between atoms: C_18  and  C_19
REMARK    5  A    between atoms: C_19  and  O_21
REMARK                            x       y       z     vdW  Elec       q    Type
REMARK                         _______ _______ _______ _____ _____    ______ ____
ROOT
ATOM      1  C   UNL     1       3.669   2.879  17.785  0.00  0.00    +0.000 C 
ATOM      2  C   UNL     1       4.830   3.550  17.068  0.00  0.00    +0.000 C 
ATOM      3  C   UNL     1       4.456   3.669  15.583  0.00  0.00    +0.000 C 
ATOM      4  C   UNL     1       5.636   4.100  14.757  0.00  0.00    +0.000 A 
ATOM      5  C   UNL     1       5.663   3.796  13.388  0.00  0.00    +0.000 A 
ATOM      6  C   UNL     1       6.729   4.212  12.606  0.00  0.00    +0.000 A 
ATOM      7  F   UNL     1       6.751   3.906  11.304  0.00  0.00    +0.000 F 
ATOM      8  C   UNL     1       7.770   4.948  13.156  0.00  0.00    +0.000 A 
ATOM      9  C   UNL     1       7.747   5.262  14.517  0.00  0.00    +0.000 A 
ATOM     10  C   UNL     1       6.688   4.832  15.339  0.00  0.00    +0.000 A 
ATOM     11  C   UNL     1       6.703   5.160  16.835  0.00  0.00    +0.000 C 
ATOM     12  C   UNL     1       7.869   4.455  17.547  0.00  0.00    +0.000 C 
ATOM     13  N   UNL     1       5.422   4.839  17.525  0.00  0.00    +0.000 N 
ATOM     14  C   UNL     1       4.889   5.885  18.308  0.00  0.00    +0.000 C 
ATOM     15  O   UNL     1       5.406   7.014  18.321  0.00  0.00    +0.000 OA
ENDROOT
BRANCH  14  16
ATOM     16  C   UNL     1       3.714   5.756  19.227  0.00  0.00    +0.000 A 
ATOM     17  C   UNL     1       3.549   4.575  19.942  0.00  0.00    +0.000 A 
ATOM     18  C   UNL     1       2.375   4.416  20.680  0.00  0.00    +0.000 A 
ATOM     19  C   UNL     1       1.454   5.456  20.768  0.00  0.00    +0.000 A 
ATOM     20  C   UNL     1       1.693   6.577  20.009  0.00  0.00    +0.000 A 
ATOM     21  N   UNL     1       2.765   6.712  19.200  0.00  0.00    +0.000 NA
BRANCH  18  22
ATOM     22  C   UNL     1       2.047   3.150  21.369  0.00  0.00    +0.000 C 
ATOM     23  O   UNL     1       2.860   2.533  22.035  0.00  0.00    +0.000 OA
BRANCH  22  24
ATOM     24  O   UNL     1       0.748   2.805  21.266  0.00  0.00    +0.000 OA
ATOM     25  H   UNL     1       0.158   3.138  21.969  0.00  0.00    +0.000 HD
ENDBRANCH  22  24
ENDBRANCH  18  22
ENDBRANCH  14  16
TORSDOF 3
ENDMDL
MODEL 7
REMARK VINA RESULT:      -6.4      3.760      7.678
REMARK  Name = 
REMARK  5 active torsions:
REMARK  status: ('A' for Active; 'I' for Inactive)
REMARK    1  A    between atoms: C_1  and  C_2
REMARK    2  A    between atoms: C_11  and  C_12
REMARK    3  A    between atoms: C_14  and  C_16
REMARK    4  A    between atoms: C_18  and  C_19
REMARK    5  A    between atoms: C_19  and  O_21
REMARK                            x       y       z     vdW  Elec       q    Type
REMARK                         _______ _______ _______ _____ _____    ______ ____
ROOT
ATOM      1  C   UNL     1       0.669   9.033  17.684  0.00  0.00    +0.000 C 
ATOM      2  C   UNL     1       0.300  10.039  18.763  0.00  0.00    +0.000 C 
ATOM      3  C   UNL     1      -1.229  10.180  18.767  0.00  0.00    +0.000 C 
ATOM      4  C   UNL     1      -1.667  11.329  19.633  0.00  0.00    +0.000 A 
ATOM      5  C   UNL     1      -2.911  11.931  19.396  0.00  0.00    +0.000 A 
ATOM      6  C   UNL     1      -3.344  12.970  20.204  0.00  0.00    +0.000 A 
ATOM      7  F   UNL     1      -4.526  13.547  19.962  0.00  0.00    +0.000 F 
ATOM      8  C   UNL     1      -2.569  13.416  21.267  0.00  0.00    +0.000 A 
ATOM      9  C   UNL     1      -1.332  12.816  21.515  0.00  0.00    +0.000 A 
ATOM     10  C   UNL     1      -0.858  11.774  20.695  0.00  0.00    +0.000 A 
ATOM     11  C   UNL     1       0.517  11.155  20.968  0.00  0.00    +0.000 C 
ATOM     12  C   UNL     1       1.641  12.178  20.741  0.00  0.00    +0.000 C 
ATOM     13  N   UNL     1       0.783   9.926  20.168  0.00  0.00    +0.000 N 
ATOM     14  C   UNL     1       1.230   8.815  20.914  0.00  0.00    +0.000 C 
ATOM     15  O   UNL     1       1.289   8.848  22.155  0.00  0.00    +0.000 OA
ENDROOT
BRANCH  14  16
ATOM     16  C   UNL     1       1.726   7.530  20.327  0.00  0.00    +0.000 A 
ATOM     17  C   UNL     1       1.315   6.330  20.896  0.00  0.00    +0.000 A 
ATOM     18  C   UNL     1       1.899   5.151  20.430  0.00  0.00    +0.000 A 
ATOM     19  C   UNL     1       2.788   5.184  19.360  0.00  0.00    +0.000 A 
ATOM     20  C   UNL     1       3.151   6.418  18.876  0.00  0.00    +0.000 A 
ATOM     21  N   UNL     1       2.686   7.580  19.382  0.00  0.00    +0.000 NA
BRANCH  18  22
ATOM     22  C   UNL     1       1.625   3.840  21.055  0.00  0.00    +0.000 C 
ATOM     23  O   UNL     1       2.265   3.414  22.000  0.00  0.00    +0.000 OA
BRANCH  22  24
ATOM     24  O   UNL     1       0.546   3.217  20.540  0.00  0.00    +0.000 OA
ATOM     25  H   UNL     1      -0.322   3.597  20.776  0.00  0.00    +0.000 HD
ENDBRANCH  22  24
ENDBRANCH  18  22
ENDBRANCH  14  16
TORSDOF 3
ENDMDL
MODEL 8
REMARK VINA RESULT:      -6.4      2.727      3.791
REMARK  Name = 
REMARK  5 active torsions:
REMARK  status: ('A' for Active; 'I' for Inactive)
REMARK    1  A    between atoms: C_1  and  C_2
REMARK    2  A    between atoms: C_11  and  C_12
REMARK    3  A    between atoms: C_14  and  C_16
REMARK    4  A    between atoms: C_18  and  C_19
REMARK    5  A    between atoms: C_19  and  O_21
REMARK                            x       y       z     vdW  Elec       q    Type
REMARK                         _______ _______ _______ _____ _____    ______ ____
ROOT
ATOM      1  C   UNL     1      -0.351  10.407  18.731  0.00  0.00    +0.000 C 
ATOM      2  C   UNL     1       0.548   9.228  19.067  0.00  0.00    +0.000 C 
ATOM      3  C   UNL     1       1.787   9.312  18.163  0.00  0.00    +0.000 C 
ATOM      4  C   UNL     1       2.614   8.059  18.255  0.00  0.00    +0.000 A 
ATOM      5  C   UNL     1       3.465   7.720  17.194  0.00  0.00    +0.000 A 
ATOM      6  C   UNL     1       4.257   6.585  17.276  0.00  0.00    +0.000 A 
ATOM      7  F   UNL     1       5.057   6.263  16.253  0.00  0.00    +0.000 F 
ATOM      8  C   UNL     1       4.236   5.783  18.409  0.00  0.00    +0.000 A 
ATOM      9  C   UNL     1       3.396   6.119  19.474  0.00  0.00    +0.000 A 
ATOM     10  C   UNL     1       2.564   7.252  19.407  0.00  0.00    +0.000 A 
ATOM     11  C   UNL     1       1.628   7.580  20.574  0.00  0.00    +0.000 C 
ATOM     12  C   UNL     1       0.552   6.495  20.745  0.00  0.00    +0.000 C 
ATOM     13  N   UNL     1       0.982   8.918  20.459  0.00  0.00    +0.000 N 
ATOM     14  C   UNL     1       1.088   9.732  21.606  0.00  0.00    +0.000 C 
ATOM     15  O   UNL     1       1.765   9.384  22.588  0.00  0.00    +0.000 OA
ENDROOT
BRANCH  14  16
ATOM     16  C   UNL     1       0.382  11.037  21.801  0.00  0.00    +0.000 A 
ATOM     17  C   UNL     1      -0.901  11.033  22.335  0.00  0.00    +0.000 A 
ATOM     18  C   UNL     1      -1.598  12.242  22.373  0.00  0.00    +0.000 A 
ATOM     19  C   UNL     1      -0.978  13.423  21.978  0.00  0.00    +0.000 A 
ATOM     20  C   UNL     1       0.285  13.325  21.443  0.00  0.00    +0.000 A 
ATOM     21  N   UNL     1       0.939  12.155  21.291  0.00  0.00    +0.000 NA
BRANCH  18  22
ATOM     22  C   UNL     1      -3.010  12.319  22.803  0.00  0.00    +0.000 C 
ATOM     23  O   UNL     1      -3.404  11.854  23.858  0.00  0.00    +0.000 OA
BRANCH  22  24
ATOM     24  O   UNL     1      -3.787  13.033  21.964  0.00  0.00    +0.000 OA
ATOM     25  H   UNL     1      -3.576  12.957  21.014  0.00  0.00    +0.000 HD
ENDBRANCH  22  24
ENDBRANCH  18  22
ENDBRANCH  14  16
TORSDOF 3
ENDMDL
MODEL 9
REMARK VINA RESULT:      -6.4      3.264      4.818
REMARK  Name = 
REMARK  5 active torsions:
REMARK  status: ('A' for Active; 'I' for Inactive)
REMARK    1  A    between atoms: C_1  and  C_2
REMARK    2  A    between atoms: C_11  and  C_12
REMARK    3  A    between atoms: C_14  and  C_16
REMARK    4  A    between atoms: C_18  and  C_19
REMARK    5  A    between atoms: C_19  and  O_21
REMARK                            x       y       z     vdW  Elec       q    Type
REMARK                         _______ _______ _______ _____ _____    ______ ____
ROOT
ATOM      1  C   UNL     1      -1.494  11.502  19.537  0.00  0.00    +0.000 C 
ATOM      2  C   UNL     1      -0.606  10.290  19.774  0.00  0.00    +0.000 C 
ATOM      3  C   UNL     1       0.633  10.436  18.877  0.00  0.00    +0.000 C 
ATOM      4  C   UNL     1       1.447   9.173  18.864  0.00  0.00    +0.000 A 
ATOM      5  C   UNL     1       2.294   8.914  17.776  0.00  0.00    +0.000 A 
ATOM      6  C   UNL     1       3.076   7.769  17.763  0.00  0.00    +0.000 A 
ATOM      7  F   UNL     1       3.871   7.525  16.715  0.00  0.00    +0.000 F 
ATOM      8  C   UNL     1       3.048   6.876  18.826  0.00  0.00    +0.000 A 
ATOM      9  C   UNL     1       2.213   7.130  19.916  0.00  0.00    +0.000 A 
ATOM     10  C   UNL     1       1.392   8.274  19.945  0.00  0.00    +0.000 A 
ATOM     11  C   UNL     1       0.460   8.512  21.137  0.00  0.00    +0.000 C 
ATOM     12  C   UNL     1      -0.626   7.428  21.220  0.00  0.00    +0.000 C 
ATOM     13  N   UNL     1      -0.173   9.861  21.134  0.00  0.00    +0.000 N 
ATOM     14  C   UNL     1      -0.058  10.577  22.345  0.00  0.00    +0.000 C 
ATOM     15  O   UNL     1       0.617  10.142  23.293  0.00  0.00    +0.000 OA
ENDROOT
BRANCH  14  16
ATOM     16  C   UNL     1      -0.751  11.869  22.647  0.00  0.00    +0.000 A 
ATOM     17  C   UNL     1      -2.068  11.835  23.093  0.00  0.00    +0.000 A 
ATOM     18  C   UNL     1      -2.743  13.049  23.230  0.00  0.00    +0.000 A 
ATOM     19  C   UNL     1      -2.076  14.251  23.020  0.00  0.00    +0.000 A 
ATOM     20  C   UNL     1      -0.782  14.185  22.561  0.00  0.00    +0.000 A 
ATOM     21  N   UNL     1      -0.141  13.023  22.313  0.00  0.00    +0.000 NA
BRANCH  18  22
ATOM     22  C   UNL     1      -4.179  13.112  23.574  0.00  0.00    +0.000 C 
ATOM     23  O   UNL     1      -5.005  12.352  23.099  0.00  0.00    +0.000 OA
BRANCH  22  24
ATOM     24  O   UNL     1      -4.462  14.023  24.527  0.00  0.00    +0.000 OA
ATOM     25  H   UNL     1      -4.414  14.959  24.254  0.00  0.00    +0.000 HD
ENDBRANCH  22  24
ENDBRANCH  18  22
ENDBRANCH  14  16
TORSDOF 3
ENDMDL
