MODEL 1
REMARK VINA RESULT:      -7.8      0.000      0.000
REMARK  Name = 
REMARK  2 active torsions:
REMARK  status: ('A' for Active; 'I' for Inactive)
REMARK    1  A    between atoms: C_7  and  S_8
REMARK    2  A    between atoms: S_8  and  N_11
REMARK                            x       y       z     vdW  Elec       q    Type
REMARK                         _______ _______ _______ _____ _____    ______ ____
ROOT
ATOM      1  O   UNL     1       8.522   5.881  12.622  0.00  0.00    +0.000 OA
ATOM      2  C   UNL     1       7.771   5.310  13.402  0.00  0.00    +0.000 A 
ATOM      3  C   UNL     1       6.758   4.355  12.918  0.00  0.00    +0.000 A 
ATOM      4  C   UNL     1       5.892   3.744  13.732  0.00  0.00    +0.000 A 
ATOM      5  C   UNL     1       5.930   4.027  15.159  0.00  0.00    +0.000 A 
ATOM      6  C   UNL     1       5.022   3.456  16.055  0.00  0.00    +0.000 A 
ATOM      7  C   UNL     1       5.105   3.772  17.420  0.00  0.00    +0.000 A 
ATOM      8  C   UNL     1       6.118   4.613  17.901  0.00  0.00    +0.000 A 
ATOM      9  C   UNL     1       7.026   5.178  17.006  0.00  0.00    +0.000 A 
ATOM     10  C   UNL     1       6.913   4.888  15.648  0.00  0.00    +0.000 A 
ATOM     11  O   UNL     1       7.834   5.506  14.778  0.00  0.00    +0.000 OA
ENDROOT
BRANCH   7  12
ATOM     12  S   UNL     1       4.024   2.956  18.576  0.00  0.00    +0.000 S 
ATOM     13  O   UNL     1       3.257   1.984  17.826  0.00  0.00    +0.000 OA
ATOM     14  O   UNL     1       4.830   2.552  19.707  0.00  0.00    +0.000 OA
BRANCH  12  15
ATOM     15  N   UNL     1       2.984   4.152  19.082  0.00  0.00    +0.000 NA
ATOM     16  C   UNL     1       2.654   5.334  18.262  0.00  0.00    +0.000 C 
ATOM     17  C   UNL     1       2.652   6.566  19.190  0.00  0.00    +0.000 C 
ATOM     18  O   UNL     1       1.778   6.386  20.322  0.00  0.00    +0.000 OA
ATOM     19  C   UNL     1       2.151   5.219  21.081  0.00  0.00    +0.000 C 
ATOM     20  C   UNL     1       2.050   3.963  20.205  0.00  0.00    +0.000 C 
ENDBRANCH  12  15
ENDBRANCH   7  12
TORSDOF 2
ENDMDL
MODEL 2
REMARK VINA RESULT:      -7.7      1.872      6.311
REMARK  Name = 
REMARK  2 active torsions:
REMARK  status: ('A' for Active; 'I' for Inactive)
REMARK    1  A    between atoms: C_7  and  S_8
REMARK    2  A    between atoms: S_8  and  N_11
REMARK                            x       y       z     vdW  Elec       q    Type
REMARK                         _______ _______ _______ _____ _____    ______ ____
ROOT
ATOM      1  O   UNL     1       0.431  10.282  20.014  0.00  0.00    +0.000 OA
ATOM      2  C   UNL     1       1.119   9.359  19.600  0.00  0.00    +0.000 A 
ATOM      3  C   UNL     1       1.846   9.469  18.321  0.00  0.00    +0.000 A 
ATOM      4  C   UNL     1       2.572   8.468  17.814  0.00  0.00    +0.000 A 
ATOM      5  C   UNL     1       2.654   7.207  18.534  0.00  0.00    +0.000 A 
ATOM      6  C   UNL     1       3.359   6.109  18.033  0.00  0.00    +0.000 A 
ATOM      7  C   UNL     1       3.398   4.916  18.771  0.00  0.00    +0.000 A 
ATOM      8  C   UNL     1       2.780   4.830  20.027  0.00  0.00    +0.000 A 
ATOM      9  C   UNL     1       2.081   5.928  20.527  0.00  0.00    +0.000 A 
ATOM     10  C   UNL     1       2.017   7.096  19.771  0.00  0.00    +0.000 A 
ATOM     11  O   UNL     1       1.275   8.169  20.304  0.00  0.00    +0.000 OA
ENDROOT
BRANCH   7  12
ATOM     12  S   UNL     1       4.391   3.557  18.190  0.00  0.00    +0.000 S 
ATOM     13  O   UNL     1       5.021   2.965  19.351  0.00  0.00    +0.000 OA
ATOM     14  O   UNL     1       3.561   2.765  17.310  0.00  0.00    +0.000 OA
BRANCH  12  15
ATOM     15  N   UNL     1       5.578   4.277  17.272  0.00  0.00    +0.000 NA
ATOM     16  C   UNL     1       6.911   4.619  17.804  0.00  0.00    +0.000 C 
ATOM     17  C   UNL     1       7.289   6.015  17.267  0.00  0.00    +0.000 C 
ATOM     18  O   UNL     1       7.206   6.080  15.830  0.00  0.00    +0.000 OA
ATOM     19  C   UNL     1       5.884   5.736  15.374  0.00  0.00    +0.000 C 
ATOM     20  C   UNL     1       5.531   4.305  15.800  0.00  0.00    +0.000 C 
ENDBRANCH  12  15
ENDBRANCH   7  12
TORSDOF 2
ENDMDL
MODEL 3
REMARK VINA RESULT:      -7.6      0.643      1.233
REMARK  Name = 
REMARK  2 active torsions:
REMARK  status: ('A' for Active; 'I' for Inactive)
REMARK    1  A    between atoms: C_7  and  S_8
REMARK    2  A    between atoms: S_8  and  N_11
REMARK                            x       y       z     vdW  Elec       q    Type
REMARK                         _______ _______ _______ _____ _____    ______ ____
ROOT
ATOM      1  O   UNL     1       8.262   5.759  12.765  0.00  0.00    +0.000 OA
ATOM      2  C   UNL     1       7.550   5.241  13.615  0.00  0.00    +0.000 A 
ATOM      3  C   UNL     1       6.399   4.403  13.231  0.00  0.00    +0.000 A 
ATOM      4  C   UNL     1       5.572   3.856  14.127  0.00  0.00    +0.000 A 
ATOM      5  C   UNL     1       5.796   4.092  15.545  0.00  0.00    +0.000 A 
ATOM      6  C   UNL     1       4.940   3.586  16.528  0.00  0.00    +0.000 A 
ATOM      7  C   UNL     1       5.206   3.852  17.880  0.00  0.00    +0.000 A 
ATOM      8  C   UNL     1       6.345   4.577  18.258  0.00  0.00    +0.000 A 
ATOM      9  C   UNL     1       7.200   5.078  17.276  0.00  0.00    +0.000 A 
ATOM     10  C   UNL     1       6.909   4.839  15.935  0.00  0.00    +0.000 A 
ATOM     11  O   UNL     1       7.785   5.390  14.978  0.00  0.00    +0.000 OA
ENDROOT
BRANCH   7  12
ATOM     12  S   UNL     1       4.184   3.112  19.136  0.00  0.00    +0.000 S 
ATOM     13  O   UNL     1       3.204   2.291  18.456  0.00  0.00    +0.000 OA
ATOM     14  O   UNL     1       5.068   2.544  20.130  0.00  0.00    +0.000 OA
BRANCH  12  15
ATOM     15  N   UNL     1       3.385   4.398  19.828  0.00  0.00    +0.000 NA
ATOM     16  C   UNL     1       2.459   4.252  20.967  0.00  0.00    +0.000 C 
ATOM     17  C   UNL     1       1.235   5.151  20.698  0.00  0.00    +0.000 C 
ATOM     18  O   UNL     1       1.617   6.516  20.434  0.00  0.00    +0.000 OA
ATOM     19  C   UNL     1       2.519   6.591  19.313  0.00  0.00    +0.000 C 
ATOM     20  C   UNL     1       3.798   5.795  19.608  0.00  0.00    +0.000 C 
ENDBRANCH  12  15
ENDBRANCH   7  12
TORSDOF 2
ENDMDL
MODEL 4
REMARK VINA RESULT:      -7.5      2.160      6.731
REMARK  Name = 
REMARK  2 active torsions:
REMARK  status: ('A' for Active; 'I' for Inactive)
REMARK    1  A    between atoms: C_7  and  S_8
REMARK    2  A    between atoms: S_8  and  N_11
REMARK                            x       y       z     vdW  Elec       q    Type
REMARK                         _______ _______ _______ _____ _____    ______ ____
ROOT
ATOM      1  O   UNL     1       0.319  10.736  20.162  0.00  0.00    +0.000 OA
ATOM      2  C   UNL     1       0.851   9.642  20.030  0.00  0.00    +0.000 A 
ATOM      3  C   UNL     1       0.704   8.599  21.062  0.00  0.00    +0.000 A 
ATOM      4  C   UNL     1       1.303   7.407  20.975  0.00  0.00    +0.000 A 
ATOM      5  C   UNL     1       2.146   7.112  19.827  0.00  0.00    +0.000 A 
ATOM      6  C   UNL     1       2.836   5.903  19.702  0.00  0.00    +0.000 A 
ATOM      7  C   UNL     1       3.638   5.677  18.573  0.00  0.00    +0.000 A 
ATOM      8  C   UNL     1       3.717   6.630  17.547  0.00  0.00    +0.000 A 
ATOM      9  C   UNL     1       3.024   7.834  17.671  0.00  0.00    +0.000 A 
ATOM     10  C   UNL     1       2.259   8.064  18.813  0.00  0.00    +0.000 A 
ATOM     11  O   UNL     1       1.601   9.307  18.908  0.00  0.00    +0.000 OA
ENDROOT
BRANCH   7  12
ATOM     12  S   UNL     1       4.423   4.094  18.357  0.00  0.00    +0.000 S 
ATOM     13  O   UNL     1       5.009   3.734  19.630  0.00  0.00    +0.000 OA
ATOM     14  O   UNL     1       3.467   3.225  17.707  0.00  0.00    +0.000 OA
BRANCH  12  15
ATOM     15  N   UNL     1       5.663   4.391  17.286  0.00  0.00    +0.000 NA
ATOM     16  C   UNL     1       6.976   4.921  17.701  0.00  0.00    +0.000 C 
ATOM     17  C   UNL     1       7.401   5.987  16.671  0.00  0.00    +0.000 C 
ATOM     18  O   UNL     1       7.385   5.471  15.325  0.00  0.00    +0.000 OA
ATOM     19  C   UNL     1       6.079   4.970  14.981  0.00  0.00    +0.000 C 
ATOM     20  C   UNL     1       5.683   3.827  15.926  0.00  0.00    +0.000 C 
ENDBRANCH  12  15
ENDBRANCH   7  12
TORSDOF 2
ENDMDL
MODEL 5
REMARK VINA RESULT:      -7.3      3.582      6.099
REMARK  Name = 
REMARK  2 active torsions:
REMARK  status: ('A' for Active; 'I' for Inactive)
REMARK    1  A    between atoms: C_7  and  S_8
REMARK    2  A    between atoms: S_8  and  N_11
REMARK                            x       y       z     vdW  Elec       q    Type
REMARK                         _______ _______ _______ _____ _____    ______ ____
ROOT
ATOM      1  O   UNL     1       0.354  10.971  19.717  0.00  0.00    +0.000 OA
ATOM      2  C   UNL     1       0.908   9.881  19.668  0.00  0.00    +0.000 A 
ATOM      3  C   UNL     1       0.785   8.917  20.777  0.00  0.00    +0.000 A 
ATOM      4  C   UNL     1       1.409   7.735  20.780  0.00  0.00    +0.000 A 
ATOM      5  C   UNL     1       2.256   7.370  19.656  0.00  0.00    +0.000 A 
ATOM      6  C   UNL     1       2.970   6.169  19.621  0.00  0.00    +0.000 A 
ATOM      7  C   UNL     1       3.775   5.875  18.510  0.00  0.00    +0.000 A 
ATOM      8  C   UNL     1       3.832   6.747  17.414  0.00  0.00    +0.000 A 
ATOM      9  C   UNL     1       3.115   7.943  17.448  0.00  0.00    +0.000 A 
ATOM     10  C   UNL     1       2.347   8.243  18.571  0.00  0.00    +0.000 A 
ATOM     11  O   UNL     1       1.664   9.476  18.572  0.00  0.00    +0.000 OA
ENDROOT
BRANCH   7  12
ATOM     12  S   UNL     1       4.593   4.296  18.414  0.00  0.00    +0.000 S 
ATOM     13  O   UNL     1       4.761   3.990  17.009  0.00  0.00    +0.000 OA
ATOM     14  O   UNL     1       5.730   4.345  19.306  0.00  0.00    +0.000 OA
BRANCH  12  15
ATOM     15  N   UNL     1       3.488   3.221  19.044  0.00  0.00    +0.000 NA
ATOM     16  C   UNL     1       2.464   2.545  18.225  0.00  0.00    +0.000 C 
ATOM     17  C   UNL     1       1.142   2.558  19.019  0.00  0.00    +0.000 C 
ATOM     18  O   UNL     1       1.298   1.989  20.335  0.00  0.00    +0.000 OA
ATOM     19  C   UNL     1       2.310   2.691  21.083  0.00  0.00    +0.000 C 
ATOM     20  C   UNL     1       3.663   2.593  20.365  0.00  0.00    +0.000 C 
ENDBRANCH  12  15
ENDBRANCH   7  12
TORSDOF 2
ENDMDL
MODEL 6
REMARK VINA RESULT:      -7.2      2.720      3.403
REMARK  Name = 
REMARK  2 active torsions:
REMARK  status: ('A' for Active; 'I' for Inactive)
REMARK    1  A    between atoms: C_7  and  S_8
REMARK    2  A    between atoms: S_8  and  N_11
REMARK                            x       y       z     vdW  Elec       q    Type
REMARK                         _______ _______ _______ _____ _____    ______ ____
ROOT
ATOM      1  O   UNL     1       8.027   8.936  17.078  0.00  0.00    +0.000 OA
ATOM      2  C   UNL     1       7.559   7.907  17.546  0.00  0.00    +0.000 A 
ATOM      3  C   UNL     1       8.238   7.198  18.646  0.00  0.00    +0.000 A 
ATOM      4  C   UNL     1       7.782   6.049  19.156  0.00  0.00    +0.000 A 
ATOM      5  C   UNL     1       6.573   5.454  18.610  0.00  0.00    +0.000 A 
ATOM      6  C   UNL     1       6.072   4.232  19.068  0.00  0.00    +0.000 A 
ATOM      7  C   UNL     1       4.903   3.705  18.498  0.00  0.00    +0.000 A 
ATOM      8  C   UNL     1       4.205   4.414  17.510  0.00  0.00    +0.000 A 
ATOM      9  C   UNL     1       4.703   5.635  17.057  0.00  0.00    +0.000 A 
ATOM     10  C   UNL     1       5.884   6.132  17.603  0.00  0.00    +0.000 A 
ATOM     11  O   UNL     1       6.365   7.355  17.093  0.00  0.00    +0.000 OA
ENDROOT
BRANCH   7  12
ATOM     12  S   UNL     1       4.201   2.209  19.161  0.00  0.00    +0.000 S 
ATOM     13  O   UNL     1       3.953   1.325  18.042  0.00  0.00    +0.000 OA
ATOM     14  O   UNL     1       5.038   1.794  20.264  0.00  0.00    +0.000 OA
BRANCH  12  15
ATOM     15  N   UNL     1       2.729   2.682  19.778  0.00  0.00    +0.000 NA
ATOM     16  C   UNL     1       1.444   2.124  19.314  0.00  0.00    +0.000 C 
ATOM     17  C   UNL     1       0.443   3.290  19.186  0.00  0.00    +0.000 C 
ATOM     18  O   UNL     1       0.337   4.046  20.409  0.00  0.00    +0.000 OA
ATOM     19  C   UNL     1       1.622   4.562  20.808  0.00  0.00    +0.000 C 
ATOM     20  C   UNL     1       2.605   3.409  21.053  0.00  0.00    +0.000 C 
ENDBRANCH  12  15
ENDBRANCH   7  12
TORSDOF 2
ENDMDL
MODEL 7
REMARK VINA RESULT:      -7.2      2.228      6.676
REMARK  Name = 
REMARK  2 active torsions:
REMARK  status: ('A' for Active; 'I' for Inactive)
REMARK    1  A    between atoms: C_7  and  S_8
REMARK    2  A    between atoms: S_8  and  N_11
REMARK                            x       y       z     vdW  Elec       q    Type
REMARK                         _______ _______ _______ _____ _____    ______ ____
ROOT
ATOM      1  O   UNL     1       0.042  10.832  20.285  0.00  0.00    +0.000 OA
ATOM      2  C   UNL     1       0.711   9.931  19.797  0.00  0.00    +0.000 A 
ATOM      3  C   UNL     1       1.276  10.055  18.441  0.00  0.00    +0.000 A 
ATOM      4  C   UNL     1       1.975   9.077  17.856  0.00  0.00    +0.000 A 
ATOM      5  C   UNL     1       2.189   7.827  18.568  0.00  0.00    +0.000 A 
ATOM      6  C   UNL     1       2.871   6.751  17.993  0.00  0.00    +0.000 A 
ATOM      7  C   UNL     1       3.042   5.568  18.728  0.00  0.00    +0.000 A 
ATOM      8  C   UNL     1       2.581   5.471  20.049  0.00  0.00    +0.000 A 
ATOM      9  C   UNL     1       1.905   6.547  20.622  0.00  0.00    +0.000 A 
ATOM     10  C   UNL     1       1.708   7.705  19.872  0.00  0.00    +0.000 A 
ATOM     11  O   UNL     1       0.993   8.755  20.483  0.00  0.00    +0.000 OA
ENDROOT
BRANCH   7  12
ATOM     12  S   UNL     1       4.010   4.241  18.041  0.00  0.00    +0.000 S 
ATOM     13  O   UNL     1       4.663   3.575  19.147  0.00  0.00    +0.000 OA
ATOM     14  O   UNL     1       3.154   3.509  17.134  0.00  0.00    +0.000 OA
BRANCH  12  15
ATOM     15  N   UNL     1       5.181   5.009  17.140  0.00  0.00    +0.000 NA
ATOM     16  C   UNL     1       5.286   4.877  15.675  0.00  0.00    +0.000 C 
ATOM     17  C   UNL     1       6.778   4.721  15.321  0.00  0.00    +0.000 C 
ATOM     18  O   UNL     1       7.576   5.792  15.863  0.00  0.00    +0.000 OA
ATOM     19  C   UNL     1       7.431   5.868  17.294  0.00  0.00    +0.000 C 
ATOM     20  C   UNL     1       5.967   6.138  17.666  0.00  0.00    +0.000 C 
ENDBRANCH  12  15
ENDBRANCH   7  12
TORSDOF 2
ENDMDL
MODEL 8
REMARK VINA RESULT:      -7.2      1.495      2.130
REMARK  Name = 
REMARK  2 active torsions:
REMARK  status: ('A' for Active; 'I' for Inactive)
REMARK    1  A    between atoms: C_7  and  S_8
REMARK    2  A    between atoms: S_8  and  N_11
REMARK                            x       y       z     vdW  Elec       q    Type
REMARK                         _______ _______ _______ _____ _____    ______ ____
ROOT
ATOM      1  O   UNL     1       8.157   5.395  12.262  0.00  0.00    +0.000 OA
ATOM      2  C   UNL     1       7.525   5.049  13.251  0.00  0.00    +0.000 A 
ATOM      3  C   UNL     1       6.516   3.977  13.169  0.00  0.00    +0.000 A 
ATOM      4  C   UNL     1       5.775   3.600  14.216  0.00  0.00    +0.000 A 
ATOM      5  C   UNL     1       5.950   4.270  15.495  0.00  0.00    +0.000 A 
ATOM      6  C   UNL     1       5.174   3.954  16.613  0.00  0.00    +0.000 A 
ATOM      7  C   UNL     1       5.386   4.639  17.820  0.00  0.00    +0.000 A 
ATOM      8  C   UNL     1       6.400   5.601  17.929  0.00  0.00    +0.000 A 
ATOM      9  C   UNL     1       7.177   5.913  16.813  0.00  0.00    +0.000 A 
ATOM     10  C   UNL     1       6.935   5.253  15.611  0.00  0.00    +0.000 A 
ATOM     11  O   UNL     1       7.724   5.622  14.503  0.00  0.00    +0.000 OA
ENDROOT
BRANCH   7  12
ATOM     12  S   UNL     1       4.479   4.156  19.273  0.00  0.00    +0.000 S 
ATOM     13  O   UNL     1       5.258   3.134  19.940  0.00  0.00    +0.000 OA
ATOM     14  O   UNL     1       4.096   5.368  19.964  0.00  0.00    +0.000 OA
BRANCH  12  15
ATOM     15  N   UNL     1       3.097   3.442  18.679  0.00  0.00    +0.000 NA
ATOM     16  C   UNL     1       1.978   4.210  18.100  0.00  0.00    +0.000 C 
ATOM     17  C   UNL     1       0.664   3.593  18.620  0.00  0.00    +0.000 C 
ATOM     18  O   UNL     1       0.592   2.178  18.355  0.00  0.00    +0.000 OA
ATOM     19  C   UNL     1       1.710   1.485  18.944  0.00  0.00    +0.000 C 
ATOM     20  C   UNL     1       3.027   2.007  18.355  0.00  0.00    +0.000 C 
ENDBRANCH  12  15
ENDBRANCH   7  12
TORSDOF 2
ENDMDL
MODEL 9
REMARK VINA RESULT:      -7.1      2.757      6.499
REMARK  Name = 
REMARK  2 active torsions:
REMARK  status: ('A' for Active; 'I' for Inactive)
REMARK    1  A    between atoms: C_7  and  S_8
REMARK    2  A    between atoms: S_8  and  N_11
REMARK                            x       y       z     vdW  Elec       q    Type
REMARK                         _______ _______ _______ _____ _____    ______ ____
ROOT
ATOM      1  O   UNL     1       0.737   2.640  21.399  0.00  0.00    +0.000 OA
ATOM      2  C   UNL     1       1.485   3.263  20.659  0.00  0.00    +0.000 A 
ATOM      3  C   UNL     1       1.695   4.712  20.839  0.00  0.00    +0.000 A 
ATOM      4  C   UNL     1       2.470   5.437  20.026  0.00  0.00    +0.000 A 
ATOM      5  C   UNL     1       3.136   4.789  18.907  0.00  0.00    +0.000 A 
ATOM      6  C   UNL     1       3.921   5.500  17.995  0.00  0.00    +0.000 A 
ATOM      7  C   UNL     1       4.535   4.821  16.932  0.00  0.00    +0.000 A 
ATOM      8  C   UNL     1       4.409   3.430  16.802  0.00  0.00    +0.000 A 
ATOM      9  C   UNL     1       3.628   2.721  17.715  0.00  0.00    +0.000 A 
ATOM     10  C   UNL     1       2.994   3.410  18.746  0.00  0.00    +0.000 A 
ATOM     11  O   UNL     1       2.192   2.656  19.627  0.00  0.00    +0.000 OA
ENDROOT
BRANCH   7  12
ATOM     12  S   UNL     1       5.628   5.705  15.840  0.00  0.00    +0.000 S 
ATOM     13  O   UNL     1       6.136   4.748  14.881  0.00  0.00    +0.000 OA
ATOM     14  O   UNL     1       4.931   6.895  15.405  0.00  0.00    +0.000 OA
BRANCH  12  15
ATOM     15  N   UNL     1       6.893   6.175  16.815  0.00  0.00    +0.000 NA
ATOM     16  C   UNL     1       7.605   5.246  17.714  0.00  0.00    +0.000 C 
ATOM     17  C   UNL     1       7.842   5.974  19.052  0.00  0.00    +0.000 C 
ATOM     18  O   UNL     1       8.518   7.234  18.869  0.00  0.00    +0.000 OA
ATOM     19  C   UNL     1       7.774   8.094  17.984  0.00  0.00    +0.000 C 
ATOM     20  C   UNL     1       7.625   7.436  16.606  0.00  0.00    +0.000 C 
ENDBRANCH  12  15
ENDBRANCH   7  12
TORSDOF 2
ENDMDL
