MODEL 1
REMARK VINA RESULT:      -8.8      0.000      0.000
REMARK  Name = 
REMARK  9 active torsions:
REMARK  status: ('A' for Active; 'I' for Inactive)
REMARK    1  A    between atoms: C_1  and  C_2
REMARK    2  A    between atoms: C_2  and  C_3
REMARK    3  A    between atoms: C_2  and  O_4
REMARK    4  A    between atoms: O_4  and  C_5
REMARK    5  A    between atoms: C_8  and  C_9
REMARK    6  A    between atoms: C_11  and  C_12
REMARK    7  A    between atoms: C_17  and  C_18
REMARK    8  A    between atoms: C_18  and  C_19
REMARK    9  A    between atoms: C_19  and  C_20
REMARK                            x       y       z     vdW  Elec       q    Type
REMARK                         _______ _______ _______ _____ _____    ______ ____
ROOT
ATOM      1  C   UNL     1       6.612   6.104  16.965  0.00  0.00    +0.000 A 
ATOM      2  C   UNL     1       7.004   5.639  15.696  0.00  0.00    +0.000 A 
ATOM      3  C   UNL     1       6.223   4.741  14.976  0.00  0.00    +0.000 A 
ATOM      4  C   UNL     1       5.015   4.279  15.502  0.00  0.00    +0.000 A 
ATOM      5  C   UNL     1       4.585   4.725  16.771  0.00  0.00    +0.000 A 
ATOM      6  C   UNL     1       3.425   4.467  17.572  0.00  0.00    +0.000 A 
ATOM      7  C   UNL     1       3.576   5.195  18.737  0.00  0.00    +0.000 A 
ATOM      8  N   UNL     1       4.756   5.881  18.668  0.00  0.00    +0.000 N 
ATOM      9  C   UNL     1       5.393   5.623  17.475  0.00  0.00    +0.000 A 
ATOM     10  H   UNL     1       5.128   6.497  19.381  0.00  0.00    +0.000 HD
ENDROOT
BRANCH   1  13
ATOM     11  C   UNL     1       8.316   8.891  18.207  0.00  0.00    +0.000 A 
ATOM     12  N   UNL     1       7.476   8.363  17.345  0.00  0.00    +0.000 NA
ATOM     13  C   UNL     1       7.439   7.045  17.708  0.00  0.00    +0.000 A 
ATOM     14  N   UNL     1       8.215   6.750  18.768  0.00  0.00    +0.000 NA
ATOM     15  O   UNL     1       8.803   7.982  19.098  0.00  0.00    +0.000 OA
BRANCH  11  19
ATOM     16  C   UNL     1       9.763  12.914  18.558  0.00  0.00    +0.000 A 
ATOM     17  C   UNL     1       8.694  12.633  17.688  0.00  0.00    +0.000 A 
ATOM     18  C   UNL     1       8.187  11.329  17.543  0.00  0.00    +0.000 A 
ATOM     19  C   UNL     1       8.750  10.280  18.271  0.00  0.00    +0.000 A 
ATOM     20  C   UNL     1       9.797  10.573  19.157  0.00  0.00    +0.000 A 
ATOM     21  C   UNL     1      10.277  11.873  19.334  0.00  0.00    +0.000 A 
ATOM     22 CL   UNL     1      11.423  12.049  20.613  0.00  0.00    +0.000 Cl
BRANCH  16  23
ATOM     23  O   UNL     1      10.122  14.236  18.595  0.00  0.00    +0.000 OA
BRANCH  23  25
ATOM     24  C   UNL     1      10.039  16.397  17.535  0.00  0.00    +0.000 C 
ATOM     25  C   UNL     1      10.355  14.916  17.350  0.00  0.00    +0.000 C 
ATOM     26  C   UNL     1      11.826  14.752  16.978  0.00  0.00    +0.000 C 
ENDBRANCH  23  25
ENDBRANCH  16  23
ENDBRANCH  11  19
ENDBRANCH   1  13
BRANCH   6  27
ATOM     27  C   UNL     1       2.265   3.586  17.211  0.00  0.00    +0.000 C 
BRANCH  27  28
ATOM     28  C   UNL     1       1.157   3.533  18.258  0.00  0.00    +0.000 C 
BRANCH  28  29
ATOM     29  C   UNL     1       1.373   2.496  19.339  0.00  0.00    +0.000 C 
ATOM     30  N   UNL     1       1.902   1.306  18.942  0.00  0.00    +0.000 N 
ATOM     31  O   UNL     1       1.050   2.677  20.509  0.00  0.00    +0.000 OA
ATOM     32  H   UNL     1       2.373   1.198  18.055  0.00  0.00    +0.000 HD
ATOM     33  H   UNL     1       2.109   0.630  19.666  0.00  0.00    +0.000 HD
ENDBRANCH  28  29
ENDBRANCH  27  28
ENDBRANCH   6  27
TORSDOF 7
ENDMDL
MODEL 2
REMARK VINA RESULT:      -8.7      0.939      1.085
REMARK  Name = 
REMARK  9 active torsions:
REMARK  status: ('A' for Active; 'I' for Inactive)
REMARK    1  A    between atoms: C_1  and  C_2
REMARK    2  A    between atoms: C_2  and  C_3
REMARK    3  A    between atoms: C_2  and  O_4
REMARK    4  A    between atoms: O_4  and  C_5
REMARK    5  A    between atoms: C_8  and  C_9
REMARK    6  A    between atoms: C_11  and  C_12
REMARK    7  A    between atoms: C_17  and  C_18
REMARK    8  A    between atoms: C_18  and  C_19
REMARK    9  A    between atoms: C_19  and  C_20
REMARK                            x       y       z     vdW  Elec       q    Type
REMARK                         _______ _______ _______ _____ _____    ______ ____
ROOT
ATOM      1  C   UNL     1       6.461   6.090  17.096  0.00  0.00    +0.000 A 
ATOM      2  C   UNL     1       6.858   5.434  15.915  0.00  0.00    +0.000 A 
ATOM      3  C   UNL     1       6.022   4.530  15.269  0.00  0.00    +0.000 A 
ATOM      4  C   UNL     1       4.753   4.254  15.781  0.00  0.00    +0.000 A 
ATOM      5  C   UNL     1       4.316   4.895  16.962  0.00  0.00    +0.000 A 
ATOM      6  C   UNL     1       3.104   4.850  17.724  0.00  0.00    +0.000 A 
ATOM      7  C   UNL     1       3.278   5.701  18.798  0.00  0.00    +0.000 A 
ATOM      8  N   UNL     1       4.522   6.259  18.711  0.00  0.00    +0.000 N 
ATOM      9  C   UNL     1       5.181   5.794  17.594  0.00  0.00    +0.000 A 
ATOM     10  H   UNL     1       4.924   6.922  19.363  0.00  0.00    +0.000 HD
ENDROOT
BRANCH   1  13
ATOM     11  C   UNL     1       8.281   8.878  18.159  0.00  0.00    +0.000 A 
ATOM     12  N   UNL     1       7.382   8.343  17.363  0.00  0.00    +0.000 NA
ATOM     13  C   UNL     1       7.346   7.035  17.762  0.00  0.00    +0.000 A 
ATOM     14  N   UNL     1       8.181   6.755  18.782  0.00  0.00    +0.000 NA
ATOM     15  O   UNL     1       8.807   7.984  19.043  0.00  0.00    +0.000 OA
BRANCH  11  19
ATOM     16  C   UNL     1       9.825  12.878  18.292  0.00  0.00    +0.000 A 
ATOM     17  C   UNL     1       8.618  12.621  17.618  0.00  0.00    +0.000 A 
ATOM     18  C   UNL     1       8.074  11.325  17.550  0.00  0.00    +0.000 A 
ATOM     19  C   UNL     1       8.740  10.261  18.160  0.00  0.00    +0.000 A 
ATOM     20  C   UNL     1       9.929  10.530  18.854  0.00  0.00    +0.000 A 
ATOM     21  C   UNL     1      10.451  11.821  18.957  0.00  0.00    +0.000 A 
ATOM     22 CL   UNL     1      11.803  11.968  20.020  0.00  0.00    +0.000 Cl
BRANCH  16  23
ATOM     23  O   UNL     1      10.204  14.195  18.279  0.00  0.00    +0.000 OA
BRANCH  23  25
ATOM     24  C   UNL     1      11.333  15.757  19.724  0.00  0.00    +0.000 C 
ATOM     25  C   UNL     1      10.052  14.961  19.486  0.00  0.00    +0.000 C 
ATOM     26  C   UNL     1       8.882  15.924  19.302  0.00  0.00    +0.000 C 
ENDBRANCH  23  25
ENDBRANCH  16  23
ENDBRANCH  11  19
ENDBRANCH   1  13
BRANCH   6  27
ATOM     27  C   UNL     1       1.879   4.043  17.411  0.00  0.00    +0.000 C 
BRANCH  27  28
ATOM     28  C   UNL     1       1.345   3.217  18.578  0.00  0.00    +0.000 C 
BRANCH  28  29
ATOM     29  C   UNL     1       2.379   2.325  19.231  0.00  0.00    +0.000 C 
ATOM     30  N   UNL     1       2.987   1.411  18.426  0.00  0.00    +0.000 N 
ATOM     31  O   UNL     1       2.634   2.369  20.430  0.00  0.00    +0.000 OA
ATOM     32  H   UNL     1       2.968   1.486  17.418  0.00  0.00    +0.000 HD
ATOM     33  H   UNL     1       3.725   0.853  18.838  0.00  0.00    +0.000 HD
ENDBRANCH  28  29
ENDBRANCH  27  28
ENDBRANCH   6  27
TORSDOF 7
ENDMDL
MODEL 3
REMARK VINA RESULT:      -8.7      1.348      1.530
REMARK  Name = 
REMARK  9 active torsions:
REMARK  status: ('A' for Active; 'I' for Inactive)
REMARK    1  A    between atoms: C_1  and  C_2
REMARK    2  A    between atoms: C_2  and  C_3
REMARK    3  A    between atoms: C_2  and  O_4
REMARK    4  A    between atoms: O_4  and  C_5
REMARK    5  A    between atoms: C_8  and  C_9
REMARK    6  A    between atoms: C_11  and  C_12
REMARK    7  A    between atoms: C_17  and  C_18
REMARK    8  A    between atoms: C_18  and  C_19
REMARK    9  A    between atoms: C_19  and  C_20
REMARK                            x       y       z     vdW  Elec       q    Type
REMARK                         _______ _______ _______ _____ _____    ______ ____
ROOT
ATOM      1  C   UNL     1       6.537   5.909  17.054  0.00  0.00    +0.000 A 
ATOM      2  C   UNL     1       6.448   5.906  15.649  0.00  0.00    +0.000 A 
ATOM      3  C   UNL     1       5.658   4.982  14.972  0.00  0.00    +0.000 A 
ATOM      4  C   UNL     1       4.923   4.031  15.680  0.00  0.00    +0.000 A 
ATOM      5  C   UNL     1       4.982   4.004  17.092  0.00  0.00    +0.000 A 
ATOM      6  C   UNL     1       4.360   3.192  18.094  0.00  0.00    +0.000 A 
ATOM      7  C   UNL     1       4.822   3.644  19.315  0.00  0.00    +0.000 A 
ATOM      8  N   UNL     1       5.677   4.688  19.094  0.00  0.00    +0.000 N 
ATOM      9  C   UNL     1       5.790   4.939  17.745  0.00  0.00    +0.000 A 
ATOM     10  H   UNL     1       6.167   5.216  19.806  0.00  0.00    +0.000 HD
ENDROOT
BRANCH   1  13
ATOM     11  C   UNL     1       8.241   8.750  18.168  0.00  0.00    +0.000 A 
ATOM     12  N   UNL     1       7.394   8.185  17.336  0.00  0.00    +0.000 NA
ATOM     13  C   UNL     1       7.366   6.882  17.751  0.00  0.00    +0.000 A 
ATOM     14  N   UNL     1       8.155   6.632  18.814  0.00  0.00    +0.000 NA
ATOM     15  O   UNL     1       8.741   7.879  19.090  0.00  0.00    +0.000 OA
BRANCH  11  19
ATOM     16  C   UNL     1       9.682  12.787  18.334  0.00  0.00    +0.000 A 
ATOM     17  C   UNL     1       8.556  12.482  17.548  0.00  0.00    +0.000 A 
ATOM     18  C   UNL     1       8.049  11.173  17.466  0.00  0.00    +0.000 A 
ATOM     19  C   UNL     1       8.669  10.142  18.173  0.00  0.00    +0.000 A 
ATOM     20  C   UNL     1       9.774  10.459  18.977  0.00  0.00    +0.000 A 
ATOM     21  C   UNL     1      10.257  11.764  19.093  0.00  0.00    +0.000 A 
ATOM     22 CL   UNL     1      11.488  11.973  20.284  0.00  0.00    +0.000 Cl
BRANCH  16  23
ATOM     23  O   UNL     1      10.034  14.111  18.319  0.00  0.00    +0.000 OA
BRANCH  23  25
ATOM     24  C   UNL     1       9.716  16.376  19.075  0.00  0.00    +0.000 C 
ATOM     25  C   UNL     1       9.752  14.906  19.484  0.00  0.00    +0.000 C 
ATOM     26  C   UNL     1       8.387  14.496  20.030  0.00  0.00    +0.000 C 
ENDBRANCH  23  25
ENDBRANCH  16  23
ENDBRANCH  11  19
ENDBRANCH   1  13
BRANCH   6  27
ATOM     27  C   UNL     1       3.386   2.074  17.865  0.00  0.00    +0.000 C 
BRANCH  27  28
ATOM     28  C   UNL     1       2.092   2.183  18.666  0.00  0.00    +0.000 C 
BRANCH  28  29
ATOM     29  C   UNL     1       1.392   3.519  18.535  0.00  0.00    +0.000 C 
ATOM     30  N   UNL     1       1.036   4.135  19.696  0.00  0.00    +0.000 N 
ATOM     31  O   UNL     1       1.104   4.015  17.450  0.00  0.00    +0.000 OA
ATOM     32  H   UNL     1       1.438   3.875  20.586  0.00  0.00    +0.000 HD
ATOM     33  H   UNL     1       0.625   5.057  19.620  0.00  0.00    +0.000 HD
ENDBRANCH  28  29
ENDBRANCH  27  28
ENDBRANCH   6  27
TORSDOF 7
ENDMDL
MODEL 4
REMARK VINA RESULT:      -8.6      8.893     10.352
REMARK  Name = 
REMARK  9 active torsions:
REMARK  status: ('A' for Active; 'I' for Inactive)
REMARK    1  A    between atoms: C_1  and  C_2
REMARK    2  A    between atoms: C_2  and  C_3
REMARK    3  A    between atoms: C_2  and  O_4
REMARK    4  A    between atoms: O_4  and  C_5
REMARK    5  A    between atoms: C_8  and  C_9
REMARK    6  A    between atoms: C_11  and  C_12
REMARK    7  A    between atoms: C_17  and  C_18
REMARK    8  A    between atoms: C_18  and  C_19
REMARK    9  A    between atoms: C_19  and  C_20
REMARK                            x       y       z     vdW  Elec       q    Type
REMARK                         _______ _______ _______ _____ _____    ______ ____
ROOT
ATOM      1  C   UNL     1       1.162   9.450  20.112  0.00  0.00    +0.000 A 
ATOM      2  C   UNL     1       1.277  10.241  18.953  0.00  0.00    +0.000 A 
ATOM      3  C   UNL     1       1.853   9.745  17.788  0.00  0.00    +0.000 A 
ATOM      4  C   UNL     1       2.329   8.434  17.740  0.00  0.00    +0.000 A 
ATOM      5  C   UNL     1       2.228   7.607  18.881  0.00  0.00    +0.000 A 
ATOM      6  C   UNL     1       2.594   6.250  19.158  0.00  0.00    +0.000 A 
ATOM      7  C   UNL     1       2.250   6.005  20.472  0.00  0.00    +0.000 A 
ATOM      8  N   UNL     1       1.688   7.138  20.991  0.00  0.00    +0.000 N 
ATOM      9  C   UNL     1       1.652   8.134  20.041  0.00  0.00    +0.000 A 
ATOM     10  H   UNL     1       1.341   7.251  21.936  0.00  0.00    +0.000 HD
ENDROOT
BRANCH   1  13
ATOM     11  C   UNL     1      -0.582  11.285  22.522  0.00  0.00    +0.000 A 
ATOM     12  N   UNL     1      -0.235  11.095  21.268  0.00  0.00    +0.000 NA
ATOM     13  C   UNL     1       0.557   9.981  21.325  0.00  0.00    +0.000 A 
ATOM     14  N   UNL     1       0.695   9.475  22.566  0.00  0.00    +0.000 NA
ATOM     15  O   UNL     1      -0.062  10.347  23.364  0.00  0.00    +0.000 OA
BRANCH  11  19
ATOM     16  C   UNL     1      -3.204  14.276  24.127  0.00  0.00    +0.000 A 
ATOM     17  C   UNL     1      -1.951  14.654  23.612  0.00  0.00    +0.000 A 
ATOM     18  C   UNL     1      -1.061  13.706  23.075  0.00  0.00    +0.000 A 
ATOM     19  C   UNL     1      -1.415  12.357  23.049  0.00  0.00    +0.000 A 
ATOM     20  C   UNL     1      -2.677  11.991  23.539  0.00  0.00    +0.000 A 
ATOM     21  C   UNL     1      -3.581  12.934  24.036  0.00  0.00    +0.000 A 
ATOM     22 CL   UNL     1      -5.148  12.307  24.398  0.00  0.00    +0.000 Cl
BRANCH  16  23
ATOM     23  O   UNL     1      -3.956  15.322  24.594  0.00  0.00    +0.000 OA
BRANCH  23  25
ATOM     24  C   UNL     1      -6.216  15.883  23.979  0.00  0.00    +0.000 C 
ATOM     25  C   UNL     1      -4.738  16.075  23.652  0.00  0.00    +0.000 C 
ATOM     26  C   UNL     1      -4.373  17.551  23.792  0.00  0.00    +0.000 C 
ENDBRANCH  23  25
ENDBRANCH  16  23
ENDBRANCH  11  19
ENDBRANCH   1  13
BRANCH   6  27
ATOM     27  C   UNL     1       3.221   5.279  18.201  0.00  0.00    +0.000 C 
BRANCH  27  28
ATOM     28  C   UNL     1       4.729   5.437  18.029  0.00  0.00    +0.000 C 
BRANCH  28  29
ATOM     29  C   UNL     1       5.552   4.691  19.058  0.00  0.00    +0.000 C 
ATOM     30  N   UNL     1       5.201   3.397  19.294  0.00  0.00    +0.000 N 
ATOM     31  O   UNL     1       6.459   5.219  19.693  0.00  0.00    +0.000 OA
ATOM     32  H   UNL     1       4.621   2.873  18.654  0.00  0.00    +0.000 HD
ATOM     33  H   UNL     1       5.785   2.871  19.932  0.00  0.00    +0.000 HD
ENDBRANCH  28  29
ENDBRANCH  27  28
ENDBRANCH   6  27
TORSDOF 7
ENDMDL
MODEL 5
REMARK VINA RESULT:      -8.4      6.595      9.010
REMARK  Name = 
REMARK  9 active torsions:
REMARK  status: ('A' for Active; 'I' for Inactive)
REMARK    1  A    between atoms: C_1  and  C_2
REMARK    2  A    between atoms: C_2  and  C_3
REMARK    3  A    between atoms: C_2  and  O_4
REMARK    4  A    between atoms: O_4  and  C_5
REMARK    5  A    between atoms: C_8  and  C_9
REMARK    6  A    between atoms: C_11  and  C_12
REMARK    7  A    between atoms: C_17  and  C_18
REMARK    8  A    between atoms: C_18  and  C_19
REMARK    9  A    between atoms: C_19  and  C_20
REMARK                            x       y       z     vdW  Elec       q    Type
REMARK                         _______ _______ _______ _____ _____    ______ ____
ROOT
ATOM      1  C   UNL     1       2.760   6.537  18.987  0.00  0.00    +0.000 A 
ATOM      2  C   UNL     1       2.453   5.434  19.806  0.00  0.00    +0.000 A 
ATOM      3  C   UNL     1       3.080   4.204  19.636  0.00  0.00    +0.000 A 
ATOM      4  C   UNL     1       4.045   4.036  18.642  0.00  0.00    +0.000 A 
ATOM      5  C   UNL     1       4.384   5.120  17.801  0.00  0.00    +0.000 A 
ATOM      6  C   UNL     1       5.313   5.286  16.724  0.00  0.00    +0.000 A 
ATOM      7  C   UNL     1       5.182   6.588  16.282  0.00  0.00    +0.000 A 
ATOM      8  N   UNL     1       4.234   7.210  17.045  0.00  0.00    +0.000 N 
ATOM      9  C   UNL     1       3.732   6.343  17.990  0.00  0.00    +0.000 A 
ATOM     10  H   UNL     1       3.928   8.171  16.948  0.00  0.00    +0.000 HD
ENDROOT
BRANCH   1  13
ATOM     11  C   UNL     1       0.986   9.309  20.163  0.00  0.00    +0.000 A 
ATOM     12  N   UNL     1       1.473   8.104  20.359  0.00  0.00    +0.000 NA
ATOM     13  C   UNL     1       2.096   7.819  19.175  0.00  0.00    +0.000 A 
ATOM     14  N   UNL     1       2.019   8.811  18.267  0.00  0.00    +0.000 NA
ATOM     15  O   UNL     1       1.275   9.803  18.926  0.00  0.00    +0.000 OA
BRANCH  11  19
ATOM     16  C   UNL     1      -1.314  11.827  22.765  0.00  0.00    +0.000 A 
ATOM     17  C   UNL     1      -1.025  10.505  23.152  0.00  0.00    +0.000 A 
ATOM     18  C   UNL     1      -0.274   9.646  22.330  0.00  0.00    +0.000 A 
ATOM     19  C   UNL     1       0.201  10.100  21.100  0.00  0.00    +0.000 A 
ATOM     20  C   UNL     1      -0.067  11.428  20.733  0.00  0.00    +0.000 A 
ATOM     21  C   UNL     1      -0.779  12.297  21.563  0.00  0.00    +0.000 A 
ATOM     22 CL   UNL     1      -0.823  13.935  21.021  0.00  0.00    +0.000 Cl
BRANCH  16  23
ATOM     23  O   UNL     1      -2.040  12.535  23.687  0.00  0.00    +0.000 OA
BRANCH  23  25
ATOM     24  C   UNL     1      -4.267  12.437  24.597  0.00  0.00    +0.000 C 
ATOM     25  C   UNL     1      -3.416  12.829  23.393  0.00  0.00    +0.000 C 
ATOM     26  C   UNL     1      -3.546  14.329  23.144  0.00  0.00    +0.000 C 
ENDBRANCH  23  25
ENDBRANCH  16  23
ENDBRANCH  11  19
ENDBRANCH   1  13
BRANCH   6  27
ATOM     27  C   UNL     1       6.255   4.250  16.186  0.00  0.00    +0.000 C 
BRANCH  27  28
ATOM     28  C   UNL     1       5.963   3.805  14.755  0.00  0.00    +0.000 C 
BRANCH  28  29
ATOM     29  C   UNL     1       6.880   4.416  13.716  0.00  0.00    +0.000 C 
ATOM     30  N   UNL     1       7.709   5.407  14.145  0.00  0.00    +0.000 N 
ATOM     31  O   UNL     1       6.859   4.085  12.535  0.00  0.00    +0.000 OA
ATOM     32  H   UNL     1       7.909   5.553  15.124  0.00  0.00    +0.000 HD
ATOM     33  H   UNL     1       8.370   5.777  13.473  0.00  0.00    +0.000 HD
ENDBRANCH  28  29
ENDBRANCH  27  28
ENDBRANCH   6  27
TORSDOF 7
ENDMDL
MODEL 6
REMARK VINA RESULT:      -8.4      2.890      4.185
REMARK  Name = 
REMARK  9 active torsions:
REMARK  status: ('A' for Active; 'I' for Inactive)
REMARK    1  A    between atoms: C_1  and  C_2
REMARK    2  A    between atoms: C_2  and  C_3
REMARK    3  A    between atoms: C_2  and  O_4
REMARK    4  A    between atoms: O_4  and  C_5
REMARK    5  A    between atoms: C_8  and  C_9
REMARK    6  A    between atoms: C_11  and  C_12
REMARK    7  A    between atoms: C_17  and  C_18
REMARK    8  A    between atoms: C_18  and  C_19
REMARK    9  A    between atoms: C_19  and  C_20
REMARK                            x       y       z     vdW  Elec       q    Type
REMARK                         _______ _______ _______ _____ _____    ______ ____
ROOT
ATOM      1  C   UNL     1       6.207   6.117  17.209  0.00  0.00    +0.000 A 
ATOM      2  C   UNL     1       5.010   5.790  17.872  0.00  0.00    +0.000 A 
ATOM      3  C   UNL     1       4.077   4.927  17.307  0.00  0.00    +0.000 A 
ATOM      4  C   UNL     1       4.313   4.354  16.057  0.00  0.00    +0.000 A 
ATOM      5  C   UNL     1       5.506   4.654  15.360  0.00  0.00    +0.000 A 
ATOM      6  C   UNL     1       6.050   4.239  14.102  0.00  0.00    +0.000 A 
ATOM      7  C   UNL     1       7.261   4.888  13.959  0.00  0.00    +0.000 A 
ATOM      8  N   UNL     1       7.473   5.658  15.068  0.00  0.00    +0.000 N 
ATOM      9  C   UNL     1       6.422   5.531  15.949  0.00  0.00    +0.000 A 
ATOM     10  H   UNL     1       8.280   6.245  15.239  0.00  0.00    +0.000 HD
ENDROOT
BRANCH   1  13
ATOM     11  C   UNL     1       8.193   8.831  18.163  0.00  0.00    +0.000 A 
ATOM     12  N   UNL     1       7.208   8.339  17.443  0.00  0.00    +0.000 NA
ATOM     13  C   UNL     1       7.176   7.022  17.811  0.00  0.00    +0.000 A 
ATOM     14  N   UNL     1       8.095   6.693  18.739  0.00  0.00    +0.000 NA
ATOM     15  O   UNL     1       8.776   7.900  18.971  0.00  0.00    +0.000 OA
BRANCH  11  19
ATOM     16  C   UNL     1       9.821  12.797  18.293  0.00  0.00    +0.000 A 
ATOM     17  C   UNL     1       8.687  12.536  17.503  0.00  0.00    +0.000 A 
ATOM     18  C   UNL     1       8.119  11.251  17.431  0.00  0.00    +0.000 A 
ATOM     19  C   UNL     1       8.685  10.201  18.155  0.00  0.00    +0.000 A 
ATOM     20  C   UNL     1       9.799  10.475  18.963  0.00  0.00    +0.000 A 
ATOM     21  C   UNL     1      10.342  11.758  19.068  0.00  0.00    +0.000 A 
ATOM     22 CL   UNL     1      11.574  11.922  20.265  0.00  0.00    +0.000 Cl
BRANCH  16  23
ATOM     23  O   UNL     1      10.234  14.103  18.266  0.00  0.00    +0.000 OA
BRANCH  23  25
ATOM     24  C   UNL     1      11.266  15.662  19.784  0.00  0.00    +0.000 C 
ATOM     25  C   UNL     1       9.981  14.924  19.418  0.00  0.00    +0.000 C 
ATOM     26  C   UNL     1       8.896  15.937  19.061  0.00  0.00    +0.000 C 
ENDBRANCH  23  25
ENDBRANCH  16  23
ENDBRANCH  11  19
ENDBRANCH   1  13
BRANCH   6  27
ATOM     27  C   UNL     1       5.430   3.276  13.132  0.00  0.00    +0.000 C 
BRANCH  27  28
ATOM     28  C   UNL     1       6.052   3.289  11.738  0.00  0.00    +0.000 C 
BRANCH  28  29
ATOM     29  C   UNL     1       6.715   1.987  11.343  0.00  0.00    +0.000 C 
ATOM     30  N   UNL     1       5.946   0.867  11.414  0.00  0.00    +0.000 N 
ATOM     31  O   UNL     1       7.897   1.914  11.020  0.00  0.00    +0.000 OA
ATOM     32  H   UNL     1       4.937   0.911  11.461  0.00  0.00    +0.000 HD
ATOM     33  H   UNL     1       6.360   0.002  11.091  0.00  0.00    +0.000 HD
ENDBRANCH  28  29
ENDBRANCH  27  28
ENDBRANCH   6  27
TORSDOF 7
ENDMDL
MODEL 7
REMARK VINA RESULT:      -8.3      1.413      1.714
REMARK  Name = 
REMARK  9 active torsions:
REMARK  status: ('A' for Active; 'I' for Inactive)
REMARK    1  A    between atoms: C_1  and  C_2
REMARK    2  A    between atoms: C_2  and  C_3
REMARK    3  A    between atoms: C_2  and  O_4
REMARK    4  A    between atoms: O_4  and  C_5
REMARK    5  A    between atoms: C_8  and  C_9
REMARK    6  A    between atoms: C_11  and  C_12
REMARK    7  A    between atoms: C_17  and  C_18
REMARK    8  A    between atoms: C_18  and  C_19
REMARK    9  A    between atoms: C_19  and  C_20
REMARK                            x       y       z     vdW  Elec       q    Type
REMARK                         _______ _______ _______ _____ _____    ______ ____
ROOT
ATOM      1  C   UNL     1       6.516   6.138  17.120  0.00  0.00    +0.000 A 
ATOM      2  C   UNL     1       6.919   5.434  15.968  0.00  0.00    +0.000 A 
ATOM      3  C   UNL     1       6.082   4.511  15.350  0.00  0.00    +0.000 A 
ATOM      4  C   UNL     1       4.807   4.263  15.860  0.00  0.00    +0.000 A 
ATOM      5  C   UNL     1       4.364   4.951  17.011  0.00  0.00    +0.000 A 
ATOM      6  C   UNL     1       3.145   4.944  17.763  0.00  0.00    +0.000 A 
ATOM      7  C   UNL     1       3.314   5.834  18.806  0.00  0.00    +0.000 A 
ATOM      8  N   UNL     1       4.563   6.380  18.708  0.00  0.00    +0.000 N 
ATOM      9  C   UNL     1       5.229   5.869  17.617  0.00  0.00    +0.000 A 
ATOM     10  H   UNL     1       4.964   7.066  19.338  0.00  0.00    +0.000 HD
ENDROOT
BRANCH   1  13
ATOM     11  C   UNL     1       8.378   8.940  18.064  0.00  0.00    +0.000 A 
ATOM     12  N   UNL     1       7.498   8.376  17.267  0.00  0.00    +0.000 NA
ATOM     13  C   UNL     1       7.401   7.102  17.757  0.00  0.00    +0.000 A 
ATOM     14  N   UNL     1       8.179   6.872  18.832  0.00  0.00    +0.000 NA
ATOM     15  O   UNL     1       8.834   8.098  19.034  0.00  0.00    +0.000 OA
BRANCH  11  19
ATOM     16  C   UNL     1       9.629  13.036  17.822  0.00  0.00    +0.000 A 
ATOM     17  C   UNL     1      10.594  12.020  17.946  0.00  0.00    +0.000 A 
ATOM     18  C   UNL     1      10.229  10.665  18.027  0.00  0.00    +0.000 A 
ATOM     19  C   UNL     1       8.881  10.305  17.988  0.00  0.00    +0.000 A 
ATOM     20  C   UNL     1       7.926  11.321  17.836  0.00  0.00    +0.000 A 
ATOM     21  C   UNL     1       8.286  12.665  17.714  0.00  0.00    +0.000 A 
ATOM     22 CL   UNL     1       6.982  13.729  17.332  0.00  0.00    +0.000 Cl
BRANCH  16  23
ATOM     23  O   UNL     1      10.153  14.299  17.736  0.00  0.00    +0.000 OA
BRANCH  23  25
ATOM     24  C   UNL     1      11.367  15.564  19.387  0.00  0.00    +0.000 C 
ATOM     25  C   UNL     1       9.987  15.185  18.856  0.00  0.00    +0.000 C 
ATOM     26  C   UNL     1       9.264  16.441  18.377  0.00  0.00    +0.000 C 
ENDBRANCH  23  25
ENDBRANCH  16  23
ENDBRANCH  11  19
ENDBRANCH   1  13
BRANCH   6  27
ATOM     27  C   UNL     1       1.917   4.133  17.470  0.00  0.00    +0.000 C 
BRANCH  27  28
ATOM     28  C   UNL     1       1.550   3.120  18.550  0.00  0.00    +0.000 C 
BRANCH  28  29
ATOM     29  C   UNL     1       2.723   2.316  19.071  0.00  0.00    +0.000 C 
ATOM     30  N   UNL     1       3.215   1.354  18.242  0.00  0.00    +0.000 N 
ATOM     31  O   UNL     1       3.188   2.470  20.195  0.00  0.00    +0.000 OA
ATOM     32  H   UNL     1       3.011   1.343  17.253  0.00  0.00    +0.000 HD
ATOM     33  H   UNL     1       4.039   0.855  18.555  0.00  0.00    +0.000 HD
ENDBRANCH  28  29
ENDBRANCH  27  28
ENDBRANCH   6  27
TORSDOF 7
ENDMDL
MODEL 8
REMARK VINA RESULT:      -8.2      6.319      8.438
REMARK  Name = 
REMARK  9 active torsions:
REMARK  status: ('A' for Active; 'I' for Inactive)
REMARK    1  A    between atoms: C_1  and  C_2
REMARK    2  A    between atoms: C_2  and  C_3
REMARK    3  A    between atoms: C_2  and  O_4
REMARK    4  A    between atoms: O_4  and  C_5
REMARK    5  A    between atoms: C_8  and  C_9
REMARK    6  A    between atoms: C_11  and  C_12
REMARK    7  A    between atoms: C_17  and  C_18
REMARK    8  A    between atoms: C_18  and  C_19
REMARK    9  A    between atoms: C_19  and  C_20
REMARK                            x       y       z     vdW  Elec       q    Type
REMARK                         _______ _______ _______ _____ _____    ______ ____
ROOT
ATOM      1  C   UNL     1       2.919   6.206  18.156  0.00  0.00    +0.000 A 
ATOM      2  C   UNL     1       2.462   5.075  18.859  0.00  0.00    +0.000 A 
ATOM      3  C   UNL     1       2.944   3.801  18.579  0.00  0.00    +0.000 A 
ATOM      4  C   UNL     1       3.908   3.614  17.587  0.00  0.00    +0.000 A 
ATOM      5  C   UNL     1       4.395   4.724  16.862  0.00  0.00    +0.000 A 
ATOM      6  C   UNL     1       5.365   4.879  15.819  0.00  0.00    +0.000 A 
ATOM      7  C   UNL     1       5.401   6.224  15.505  0.00  0.00    +0.000 A 
ATOM      8  N   UNL     1       4.513   6.879  16.311  0.00  0.00    +0.000 N 
ATOM      9  C   UNL     1       3.887   5.993  17.159  0.00  0.00    +0.000 A 
ATOM     10  H   UNL     1       4.326   7.875  16.304  0.00  0.00    +0.000 HD
ENDROOT
BRANCH   1  13
ATOM     11  C   UNL     1       1.463   9.049  19.575  0.00  0.00    +0.000 A 
ATOM     12  N   UNL     1       1.803   7.782  19.662  0.00  0.00    +0.000 NA
ATOM     13  C   UNL     1       2.407   7.535  18.459  0.00  0.00    +0.000 A 
ATOM     14  N   UNL     1       2.460   8.608  17.646  0.00  0.00    +0.000 NA
ATOM     15  O   UNL     1       1.827   9.616  18.391  0.00  0.00    +0.000 OA
BRANCH  11  19
ATOM     16  C   UNL     1      -0.560  11.573  22.392  0.00  0.00    +0.000 A 
ATOM     17  C   UNL     1      -0.468  10.191  22.638  0.00  0.00    +0.000 A 
ATOM     18  C   UNL     1       0.187   9.327  21.742  0.00  0.00    +0.000 A 
ATOM     19  C   UNL     1       0.762   9.838  20.578  0.00  0.00    +0.000 A 
ATOM     20  C   UNL     1       0.690  11.221  20.353  0.00  0.00    +0.000 A 
ATOM     21  C   UNL     1       0.075  12.088  21.260  0.00  0.00    +0.000 A 
ATOM     22 CL   UNL     1       0.273  13.765  20.900  0.00  0.00    +0.000 Cl
BRANCH  16  23
ATOM     23  O   UNL     1      -1.214  12.273  23.372  0.00  0.00    +0.000 OA
BRANCH  23  25
ATOM     24  C   UNL     1      -3.463  12.517  22.547  0.00  0.00    +0.000 C 
ATOM     25  C   UNL     1      -2.194  13.248  22.976  0.00  0.00    +0.000 C 
ATOM     26  C   UNL     1      -2.502  14.139  24.177  0.00  0.00    +0.000 C 
ENDBRANCH  23  25
ENDBRANCH  16  23
ENDBRANCH  11  19
ENDBRANCH   1  13
BRANCH   6  27
ATOM     27  C   UNL     1       6.192   3.793  15.197  0.00  0.00    +0.000 C 
BRANCH  27  28
ATOM     28  C   UNL     1       6.668   4.090  13.777  0.00  0.00    +0.000 C 
BRANCH  28  29
ATOM     29  C   UNL     1       5.873   3.388  12.697  0.00  0.00    +0.000 C 
ATOM     30  N   UNL     1       6.541   2.462  11.956  0.00  0.00    +0.000 N 
ATOM     31  O   UNL     1       4.702   3.660  12.450  0.00  0.00    +0.000 OA
ATOM     32  H   UNL     1       7.418   2.062  12.261  0.00  0.00    +0.000 HD
ATOM     33  H   UNL     1       6.003   1.943  11.274  0.00  0.00    +0.000 HD
ENDBRANCH  28  29
ENDBRANCH  27  28
ENDBRANCH   6  27
TORSDOF 7
ENDMDL
MODEL 9
REMARK VINA RESULT:      -8.2      5.880      7.512
REMARK  Name = 
REMARK  9 active torsions:
REMARK  status: ('A' for Active; 'I' for Inactive)
REMARK    1  A    between atoms: C_1  and  C_2
REMARK    2  A    between atoms: C_2  and  C_3
REMARK    3  A    between atoms: C_2  and  O_4
REMARK    4  A    between atoms: O_4  and  C_5
REMARK    5  A    between atoms: C_8  and  C_9
REMARK    6  A    between atoms: C_11  and  C_12
REMARK    7  A    between atoms: C_17  and  C_18
REMARK    8  A    between atoms: C_18  and  C_19
REMARK    9  A    between atoms: C_19  and  C_20
REMARK                            x       y       z     vdW  Elec       q    Type
REMARK                         _______ _______ _______ _____ _____    ______ ____
ROOT
ATOM      1  C   UNL     1       3.099   5.201  18.544  0.00  0.00    +0.000 A 
ATOM      2  C   UNL     1       2.908   3.829  18.795  0.00  0.00    +0.000 A 
ATOM      3  C   UNL     1       3.539   2.854  18.029  0.00  0.00    +0.000 A 
ATOM      4  C   UNL     1       4.390   3.220  16.985  0.00  0.00    +0.000 A 
ATOM      5  C   UNL     1       4.610   4.588  16.704  0.00  0.00    +0.000 A 
ATOM      6  C   UNL     1       5.410   5.285  15.742  0.00  0.00    +0.000 A 
ATOM      7  C   UNL     1       5.202   6.634  15.955  0.00  0.00    +0.000 A 
ATOM      8  N   UNL     1       4.332   6.778  16.999  0.00  0.00    +0.000 N 
ATOM      9  C   UNL     1       3.957   5.545  17.486  0.00  0.00    +0.000 A 
ATOM     10  H   UNL     1       3.997   7.656  17.378  0.00  0.00    +0.000 HD
ENDROOT
BRANCH   1  13
ATOM     11  C   UNL     1       1.595   8.082  19.830  0.00  0.00    +0.000 A 
ATOM     12  N   UNL     1       2.175   7.450  18.834  0.00  0.00    +0.000 NA
ATOM     13  C   UNL     1       2.433   6.211  19.354  0.00  0.00    +0.000 A 
ATOM     14  N   UNL     1       2.019   6.059  20.627  0.00  0.00    +0.000 NA
ATOM     15  O   UNL     1       1.464   7.309  20.945  0.00  0.00    +0.000 OA
BRANCH  11  19
ATOM     16  C   UNL     1       0.149  12.112  20.090  0.00  0.00    +0.000 A 
ATOM     17  C   UNL     1       0.670  11.637  18.873  0.00  0.00    +0.000 A 
ATOM     18  C   UNL     1       1.154  10.323  18.742  0.00  0.00    +0.000 A 
ATOM     19  C   UNL     1       1.124   9.460  19.839  0.00  0.00    +0.000 A 
ATOM     20  C   UNL     1       0.578   9.932  21.042  0.00  0.00    +0.000 A 
ATOM     21  C   UNL     1       0.060  11.224  21.164  0.00  0.00    +0.000 A 
ATOM     22 CL   UNL     1      -0.747  11.536  22.658  0.00  0.00    +0.000 Cl
BRANCH  16  23
ATOM     23  O   UNL     1      -0.296  13.407  20.042  0.00  0.00    +0.000 OA
BRANCH  23  25
ATOM     24  C   UNL     1      -0.123  15.699  19.321  0.00  0.00    +0.000 C 
ATOM     25  C   UNL     1       0.648  14.442  19.715  0.00  0.00    +0.000 C 
ATOM     26  C   UNL     1       1.495  14.731  20.951  0.00  0.00    +0.000 C 
ENDBRANCH  23  25
ENDBRANCH  16  23
ENDBRANCH  11  19
ENDBRANCH   1  13
BRANCH   6  27
ATOM     27  C   UNL     1       6.308   4.671  14.709  0.00  0.00    +0.000 C 
BRANCH  27  28
ATOM     28  C   UNL     1       5.582   3.882  13.623  0.00  0.00    +0.000 C 
BRANCH  28  29
ATOM     29  C   UNL     1       6.445   3.531  12.429  0.00  0.00    +0.000 C 
ATOM     30  N   UNL     1       6.265   2.293  11.893  0.00  0.00    +0.000 N 
ATOM     31  O   UNL     1       7.302   4.287  11.983  0.00  0.00    +0.000 OA
ATOM     32  H   UNL     1       5.442   1.739  12.085  0.00  0.00    +0.000 HD
ATOM     33  H   UNL     1       6.791   2.073  11.056  0.00  0.00    +0.000 HD
ENDBRANCH  28  29
ENDBRANCH  27  28
ENDBRANCH   6  27
TORSDOF 7
ENDMDL
