MODEL 1
REMARK VINA RESULT:      -7.2      0.000      0.000
REMARK  Name = 
REMARK  8 active torsions:
REMARK  status: ('A' for Active; 'I' for Inactive)
REMARK    1  A    between atoms: C_1  and  O_2
REMARK    2  A    between atoms: O_2  and  C_3
REMARK    3  A    between atoms: N_16  and  C_17
REMARK    4  A    between atoms: N_20  and  C_21
REMARK    5  A    between atoms: C_21  and  C_22
REMARK    6  A    between atoms: C_27  and  C_28
REMARK    7  A    between atoms: C_33  and  O_34
REMARK    8  A    between atoms: O_34  and  C_35
REMARK                            x       y       z     vdW  Elec       q    Type
REMARK                         _______ _______ _______ _____ _____    ______ ____
ROOT
ATOM      1  C   UNL     1       3.385  15.874  20.376  0.00  0.00    +0.000 A 
ATOM      2  C   UNL     1       3.863  14.989  21.350  0.00  0.00    +0.000 A 
ATOM      3  C   UNL     1       5.179  14.539  21.400  0.00  0.00    +0.000 A 
ATOM      4  N   UNL     1       5.490  13.683  22.380  0.00  0.00    +0.000 NA
ATOM      5  C   UNL     1       6.751  13.262  22.492  0.00  0.00    +0.000 A 
ATOM      6  N   UNL     1       7.076  12.369  23.490  0.00  0.00    +0.000 N 
ATOM      7  C   UNL     1       6.069  11.635  24.245  0.00  0.00    +0.000 C 
ATOM      8  C   UNL     1       6.116  12.017  25.727  0.00  0.00    +0.000 C 
ATOM      9  C   UNL     1       7.539  11.978  26.290  0.00  0.00    +0.000 C 
ATOM     10  C   UNL     1       8.499  12.779  25.410  0.00  0.00    +0.000 C 
ATOM     11  C   UNL     1       8.447  12.284  23.965  0.00  0.00    +0.000 C 
ATOM     12  N   UNL     1       7.715  13.685  21.660  0.00  0.00    +0.000 NA
ATOM     13  C   UNL     1       7.413  14.531  20.652  0.00  0.00    +0.000 A 
ATOM     14  N   UNL     1       8.540  14.823  19.876  0.00  0.00    +0.000 N 
ATOM     15  C   UNL     1       6.097  14.994  20.443  0.00  0.00    +0.000 A 
ATOM     16  C   UNL     1       5.599  15.831  19.397  0.00  0.00    +0.000 A 
ATOM     17  C   UNL     1       4.269  16.301  19.387  0.00  0.00    +0.000 A 
ATOM     18  H   UNL     1       9.270  14.283  20.348  0.00  0.00    +0.000 HD
ENDROOT
BRANCH  14  19
ATOM     19  C   UNL     1       9.028  16.198  19.649  0.00  0.00    +0.000 C 
ATOM     20  C   UNL     1       9.087  16.536  18.139  0.00  0.00    +0.000 C 
ATOM     21  C   UNL     1      10.327  16.019  17.385  0.00  0.00    +0.000 C 
ATOM     22  N   UNL     1      11.288  15.261  18.157  0.00  0.00    +0.000 NA
ATOM     23  C   UNL     1      11.481  15.574  19.565  0.00  0.00    +0.000 C 
ATOM     24  C   UNL     1      10.419  16.478  20.199  0.00  0.00    +0.000 C 
BRANCH  22  25
ATOM     25  C   UNL     1      11.592  13.902  17.700  0.00  0.00    +0.000 C 
BRANCH  25  26
ATOM     26  C   UNL     1      10.661  12.806  18.215  0.00  0.00    +0.000 A 
ATOM     27  C   UNL     1       9.404  12.624  17.579  0.00  0.00    +0.000 A 
ATOM     28  C   UNL     1       8.558  11.573  17.921  0.00  0.00    +0.000 A 
ATOM     29  C   UNL     1       8.928  10.666  18.903  0.00  0.00    +0.000 A 
ATOM     30  C   UNL     1      10.156  10.817  19.551  0.00  0.00    +0.000 A 
ATOM     31  C   UNL     1      11.039  11.862  19.205  0.00  0.00    +0.000 A 
ATOM     32  C   UNL     1      12.332  11.925  19.976  0.00  0.00    +0.000 C 
ENDBRANCH  25  26
ENDBRANCH  22  25
ENDBRANCH  14  19
BRANCH   1  34
ATOM     33  C   UNL     1       1.637  16.555  21.887  0.00  0.00    +0.000 C 
ATOM     34  O   UNL     1       2.081  16.232  20.578  0.00  0.00    +0.000 OA
ENDBRANCH   1  34
BRANCH  17  35
ATOM     35  O   UNL     1       3.904  17.110  18.346  0.00  0.00    +0.000 OA
ATOM     36  C   UNL     1       3.363  16.376  17.244  0.00  0.00    +0.000 C 
ENDBRANCH  17  35
TORSDOF 5
ENDMDL
MODEL 2
REMARK VINA RESULT:      -7.0      0.999      1.362
REMARK  Name = 
REMARK  8 active torsions:
REMARK  status: ('A' for Active; 'I' for Inactive)
REMARK    1  A    between atoms: C_1  and  O_2
REMARK    2  A    between atoms: O_2  and  C_3
REMARK    3  A    between atoms: N_16  and  C_17
REMARK    4  A    between atoms: N_20  and  C_21
REMARK    5  A    between atoms: C_21  and  C_22
REMARK    6  A    between atoms: C_27  and  C_28
REMARK    7  A    between atoms: C_33  and  O_34
REMARK    8  A    between atoms: O_34  and  C_35
REMARK                            x       y       z     vdW  Elec       q    Type
REMARK                         _______ _______ _______ _____ _____    ______ ____
ROOT
ATOM      1  C   UNL     1       3.151  15.330  20.555  0.00  0.00    +0.000 A 
ATOM      2  C   UNL     1       3.639  14.552  21.611  0.00  0.00    +0.000 A 
ATOM      3  C   UNL     1       4.978  14.199  21.752  0.00  0.00    +0.000 A 
ATOM      4  N   UNL     1       5.297  13.438  22.805  0.00  0.00    +0.000 NA
ATOM      5  C   UNL     1       6.576  13.116  23.003  0.00  0.00    +0.000 A 
ATOM      6  N   UNL     1       6.911  12.320  24.077  0.00  0.00    +0.000 N 
ATOM      7  C   UNL     1       5.919  11.572  24.839  0.00  0.00    +0.000 C 
ATOM      8  C   UNL     1       5.869  12.060  26.289  0.00  0.00    +0.000 C 
ATOM      9  C   UNL     1       7.262  12.161  26.916  0.00  0.00    +0.000 C 
ATOM     10  C   UNL     1       8.208  12.963  26.022  0.00  0.00    +0.000 C 
ATOM     11  C   UNL     1       8.259  12.365  24.616  0.00  0.00    +0.000 C 
ATOM     12  N   UNL     1       7.550  13.545  22.185  0.00  0.00    +0.000 NA
ATOM     13  C   UNL     1       7.242  14.294  21.105  0.00  0.00    +0.000 A 
ATOM     14  N   UNL     1       8.383  14.609  20.360  0.00  0.00    +0.000 N 
ATOM     15  C   UNL     1       5.909  14.649  20.805  0.00  0.00    +0.000 A 
ATOM     16  C   UNL     1       5.409  15.373  19.679  0.00  0.00    +0.000 A 
ATOM     17  C   UNL     1       4.052  15.747  19.577  0.00  0.00    +0.000 A 
ATOM     18  H   UNL     1       9.124  14.157  20.902  0.00  0.00    +0.000 HD
ENDROOT
BRANCH  14  19
ATOM     19  C   UNL     1       8.789  15.996  20.054  0.00  0.00    +0.000 C 
ATOM     20  C   UNL     1       9.428  16.101  18.647  0.00  0.00    +0.000 C 
ATOM     21  C   UNL     1      10.911  15.694  18.553  0.00  0.00    +0.000 C 
ATOM     22  N   UNL     1      11.539  15.239  19.775  0.00  0.00    +0.000 NA
ATOM     23  C   UNL     1      11.109  15.795  21.049  0.00  0.00    +0.000 C 
ATOM     24  C   UNL     1       9.800  16.591  21.023  0.00  0.00    +0.000 C 
BRANCH  22  25
ATOM     25  C   UNL     1      12.130  13.898  19.766  0.00  0.00    +0.000 C 
BRANCH  25  26
ATOM     26  C   UNL     1      11.147  12.742  19.593  0.00  0.00    +0.000 A 
ATOM     27  C   UNL     1      10.551  12.174  20.751  0.00  0.00    +0.000 A 
ATOM     28  C   UNL     1       9.563  11.198  20.660  0.00  0.00    +0.000 A 
ATOM     29  C   UNL     1       9.129  10.754  19.420  0.00  0.00    +0.000 A 
ATOM     30  C   UNL     1       9.695  11.289  18.260  0.00  0.00    +0.000 A 
ATOM     31  C   UNL     1      10.683  12.295  18.329  0.00  0.00    +0.000 A 
ATOM     32  C   UNL     1      11.221  12.791  17.012  0.00  0.00    +0.000 C 
ENDBRANCH  25  26
ENDBRANCH  22  25
ENDBRANCH  14  19
BRANCH   1  34
ATOM     33  C   UNL     1       0.872  14.830  19.957  0.00  0.00    +0.000 C 
ATOM     34  O   UNL     1       1.818  15.610  20.672  0.00  0.00    +0.000 OA
ENDBRANCH   1  34
BRANCH  17  35
ATOM     35  O   UNL     1       3.686  16.453  18.463  0.00  0.00    +0.000 OA
ATOM     36  C   UNL     1       3.618  15.635  17.292  0.00  0.00    +0.000 C 
ENDBRANCH  17  35
TORSDOF 5
ENDMDL
MODEL 3
REMARK VINA RESULT:      -6.9      7.742     10.814
REMARK  Name = 
REMARK  8 active torsions:
REMARK  status: ('A' for Active; 'I' for Inactive)
REMARK    1  A    between atoms: C_1  and  O_2
REMARK    2  A    between atoms: O_2  and  C_3
REMARK    3  A    between atoms: N_16  and  C_17
REMARK    4  A    between atoms: N_20  and  C_21
REMARK    5  A    between atoms: C_21  and  C_22
REMARK    6  A    between atoms: C_27  and  C_28
REMARK    7  A    between atoms: C_33  and  O_34
REMARK    8  A    between atoms: O_34  and  C_35
REMARK                            x       y       z     vdW  Elec       q    Type
REMARK                         _______ _______ _______ _____ _____    ______ ____
ROOT
ATOM      1  C   UNL     1      -3.656  10.603  16.020  0.00  0.00    +0.000 A 
ATOM      2  C   UNL     1      -2.445   9.987  16.360  0.00  0.00    +0.000 A 
ATOM      3  C   UNL     1      -1.723  10.293  17.509  0.00  0.00    +0.000 A 
ATOM      4  N   UNL     1      -0.574   9.633  17.697  0.00  0.00    +0.000 NA
ATOM      5  C   UNL     1       0.127   9.862  18.808  0.00  0.00    +0.000 A 
ATOM      6  N   UNL     1       1.319   9.198  19.002  0.00  0.00    +0.000 N 
ATOM      7  C   UNL     1       2.000   8.481  17.932  0.00  0.00    +0.000 C 
ATOM      8  C   UNL     1       2.082   6.985  18.248  0.00  0.00    +0.000 C 
ATOM      9  C   UNL     1       2.592   6.720  19.666  0.00  0.00    +0.000 C 
ATOM     10  C   UNL     1       1.802   7.530  20.693  0.00  0.00    +0.000 C 
ATOM     11  C   UNL     1       1.835   9.019  20.348  0.00  0.00    +0.000 C 
ATOM     12  N   UNL     1      -0.296  10.723  19.747  0.00  0.00    +0.000 NA
ATOM     13  C   UNL     1      -1.441  11.414  19.563  0.00  0.00    +0.000 A 
ATOM     14  N   UNL     1      -1.690  12.284  20.629  0.00  0.00    +0.000 N 
ATOM     15  C   UNL     1      -2.222  11.255  18.397  0.00  0.00    +0.000 A 
ATOM     16  C   UNL     1      -3.413  11.949  18.019  0.00  0.00    +0.000 A 
ATOM     17  C   UNL     1      -4.145  11.597  16.865  0.00  0.00    +0.000 A 
ATOM     18  H   UNL     1      -0.892  12.104  21.243  0.00  0.00    +0.000 HD
ENDROOT
BRANCH  14  19
ATOM     19  C   UNL     1      -2.931  12.243  21.430  0.00  0.00    +0.000 C 
ATOM     20  C   UNL     1      -3.805  13.497  21.183  0.00  0.00    +0.000 C 
ATOM     21  C   UNL     1      -3.397  14.762  21.962  0.00  0.00    +0.000 C 
ATOM     22  N   UNL     1      -2.236  14.651  22.819  0.00  0.00    +0.000 NA
ATOM     23  C   UNL     1      -1.943  13.381  23.466  0.00  0.00    +0.000 C 
ATOM     24  C   UNL     1      -2.715  12.168  22.934  0.00  0.00    +0.000 C 
BRANCH  22  25
ATOM     25  C   UNL     1      -1.126  15.574  22.567  0.00  0.00    +0.000 C 
BRANCH  25  26
ATOM     26  C   UNL     1      -0.194  15.191  21.419  0.00  0.00    +0.000 A 
ATOM     27  C   UNL     1       0.837  14.244  21.663  0.00  0.00    +0.000 A 
ATOM     28  C   UNL     1       1.646  13.764  20.636  0.00  0.00    +0.000 A 
ATOM     29  C   UNL     1       1.461  14.204  19.335  0.00  0.00    +0.000 A 
ATOM     30  C   UNL     1       0.458  15.137  19.059  0.00  0.00    +0.000 A 
ATOM     31  C   UNL     1      -0.388  15.620  20.080  0.00  0.00    +0.000 A 
ATOM     32  C   UNL     1      -1.429  16.626  19.662  0.00  0.00    +0.000 C 
ENDBRANCH  25  26
ENDBRANCH  22  25
ENDBRANCH  14  19
BRANCH   1  34
ATOM     33  C   UNL     1      -3.458  10.031  13.689  0.00  0.00    +0.000 C 
ATOM     34  O   UNL     1      -4.218  10.083  14.887  0.00  0.00    +0.000 OA
ENDBRANCH   1  34
BRANCH  17  35
ATOM     35  O   UNL     1      -5.280  12.317  16.607  0.00  0.00    +0.000 OA
ATOM     36  C   UNL     1      -6.062  12.548  17.783  0.00  0.00    +0.000 C 
ENDBRANCH  17  35
TORSDOF 5
ENDMDL
MODEL 4
REMARK VINA RESULT:      -6.9      0.845      1.446
REMARK  Name = 
REMARK  8 active torsions:
REMARK  status: ('A' for Active; 'I' for Inactive)
REMARK    1  A    between atoms: C_1  and  O_2
REMARK    2  A    between atoms: O_2  and  C_3
REMARK    3  A    between atoms: N_16  and  C_17
REMARK    4  A    between atoms: N_20  and  C_21
REMARK    5  A    between atoms: C_21  and  C_22
REMARK    6  A    between atoms: C_27  and  C_28
REMARK    7  A    between atoms: C_33  and  O_34
REMARK    8  A    between atoms: O_34  and  C_35
REMARK                            x       y       z     vdW  Elec       q    Type
REMARK                         _______ _______ _______ _____ _____    ______ ____
ROOT
ATOM      1  C   UNL     1       2.843  15.285  20.585  0.00  0.00    +0.000 A 
ATOM      2  C   UNL     1       3.417  14.495  21.588  0.00  0.00    +0.000 A 
ATOM      3  C   UNL     1       4.782  14.245  21.684  0.00  0.00    +0.000 A 
ATOM      4  N   UNL     1       5.186  13.459  22.688  0.00  0.00    +0.000 NA
ATOM      5  C   UNL     1       6.491  13.232  22.843  0.00  0.00    +0.000 A 
ATOM      6  N   UNL     1       6.914  12.410  23.866  0.00  0.00    +0.000 N 
ATOM      7  C   UNL     1       6.004  11.546  24.606  0.00  0.00    +0.000 C 
ATOM      8  C   UNL     1       5.949  11.952  26.081  0.00  0.00    +0.000 C 
ATOM      9  C   UNL     1       7.343  12.132  26.684  0.00  0.00    +0.000 C 
ATOM     10  C   UNL     1       8.201  13.054  25.818  0.00  0.00    +0.000 C 
ATOM     11  C   UNL     1       8.267  12.537  24.380  0.00  0.00    +0.000 C 
ATOM     12  N   UNL     1       7.408  13.781  22.031  0.00  0.00    +0.000 NA
ATOM     13  C   UNL     1       7.015  14.558  20.999  0.00  0.00    +0.000 A 
ATOM     14  N   UNL     1       8.109  15.003  20.250  0.00  0.00    +0.000 N 
ATOM     15  C   UNL     1       5.651  14.818  20.745  0.00  0.00    +0.000 A 
ATOM     16  C   UNL     1       5.068  15.557  19.669  0.00  0.00    +0.000 A 
ATOM     17  C   UNL     1       3.684  15.824  19.614  0.00  0.00    +0.000 A 
ATOM     18  H   UNL     1       8.896  14.585  20.752  0.00  0.00    +0.000 HD
ENDROOT
BRANCH  14  19
ATOM     19  C   UNL     1       8.395  16.432  20.011  0.00  0.00    +0.000 C 
ATOM     20  C   UNL     1       8.184  16.811  18.525  0.00  0.00    +0.000 C 
ATOM     21  C   UNL     1       9.346  16.466  17.574  0.00  0.00    +0.000 C 
ATOM     22  N   UNL     1      10.495  15.810  18.162  0.00  0.00    +0.000 NA
ATOM     23  C   UNL     1      10.863  16.110  19.538  0.00  0.00    +0.000 C 
ATOM     24  C   UNL     1       9.812  16.864  20.361  0.00  0.00    +0.000 C 
BRANCH  22  25
ATOM     25  C   UNL     1      10.880  14.509  17.608  0.00  0.00    +0.000 C 
BRANCH  25  26
ATOM     26  C   UNL     1      10.593  13.300  18.496  0.00  0.00    +0.000 A 
ATOM     27  C   UNL     1      11.521  12.968  19.520  0.00  0.00    +0.000 A 
ATOM     28  C   UNL     1      11.266  11.952  20.436  0.00  0.00    +0.000 A 
ATOM     29  C   UNL     1      10.083  11.232  20.372  0.00  0.00    +0.000 A 
ATOM     30  C   UNL     1       9.148  11.530  19.378  0.00  0.00    +0.000 A 
ATOM     31  C   UNL     1       9.377  12.570  18.452  0.00  0.00    +0.000 A 
ATOM     32  C   UNL     1       8.299  12.794  17.423  0.00  0.00    +0.000 C 
ENDBRANCH  25  26
ENDBRANCH  22  25
ENDBRANCH  14  19
BRANCH   1  34
ATOM     33  C   UNL     1       0.783  14.594  21.625  0.00  0.00    +0.000 C 
ATOM     34  O   UNL     1       1.494  15.449  20.743  0.00  0.00    +0.000 OA
ENDBRANCH   1  34
BRANCH  17  35
ATOM     35  O   UNL     1       3.236  16.556  18.548  0.00  0.00    +0.000 OA
ATOM     36  C   UNL     1       3.494  15.915  17.295  0.00  0.00    +0.000 C 
ENDBRANCH  17  35
TORSDOF 5
ENDMDL
MODEL 5
REMARK VINA RESULT:      -6.7      9.010     12.941
REMARK  Name = 
REMARK  8 active torsions:
REMARK  status: ('A' for Active; 'I' for Inactive)
REMARK    1  A    between atoms: C_1  and  O_2
REMARK    2  A    between atoms: O_2  and  C_3
REMARK    3  A    between atoms: N_16  and  C_17
REMARK    4  A    between atoms: N_20  and  C_21
REMARK    5  A    between atoms: C_21  and  C_22
REMARK    6  A    between atoms: C_27  and  C_28
REMARK    7  A    between atoms: C_33  and  O_34
REMARK    8  A    between atoms: O_34  and  C_35
REMARK                            x       y       z     vdW  Elec       q    Type
REMARK                         _______ _______ _______ _____ _____    ______ ____
ROOT
ATOM      1  C   UNL     1      -4.424  11.500  16.688  0.00  0.00    +0.000 A 
ATOM      2  C   UNL     1      -3.310  11.234  17.494  0.00  0.00    +0.000 A 
ATOM      3  C   UNL     1      -3.190  11.674  18.809  0.00  0.00    +0.000 A 
ATOM      4  N   UNL     1      -2.062  11.356  19.453  0.00  0.00    +0.000 NA
ATOM      5  C   UNL     1      -1.926  11.718  20.730  0.00  0.00    +0.000 A 
ATOM      6  N   UNL     1      -0.760  11.408  21.397  0.00  0.00    +0.000 N 
ATOM      7  C   UNL     1       0.445  10.964  20.707  0.00  0.00    +0.000 C 
ATOM      8  C   UNL     1       0.815   9.539  21.124  0.00  0.00    +0.000 C 
ATOM      9  C   UNL     1       0.806   9.358  22.643  0.00  0.00    +0.000 C 
ATOM     10  C   UNL     1      -0.505   9.862  23.247  0.00  0.00    +0.000 C 
ATOM     11  C   UNL     1      -0.761  11.315  22.847  0.00  0.00    +0.000 C 
ATOM     12  N   UNL     1      -2.892  12.378  21.386  0.00  0.00    +0.000 NA
ATOM     13  C   UNL     1      -4.027  12.727  20.743  0.00  0.00    +0.000 A 
ATOM     14  N   UNL     1      -4.891  13.438  21.582  0.00  0.00    +0.000 N 
ATOM     15  C   UNL     1      -4.234  12.412  19.383  0.00  0.00    +0.000 A 
ATOM     16  C   UNL     1      -5.337  12.761  18.543  0.00  0.00    +0.000 A 
ATOM     17  C   UNL     1      -5.452  12.274  17.224  0.00  0.00    +0.000 A 
ATOM     18  H   UNL     1      -4.367  13.461  22.460  0.00  0.00    +0.000 HD
ENDROOT
BRANCH  14  19
ATOM     19  C   UNL     1      -6.278  13.011  21.860  0.00  0.00    +0.000 C 
ATOM     20  C   UNL     1      -7.291  14.142  21.558  0.00  0.00    +0.000 C 
ATOM     21  C   UNL     1      -7.447  15.212  22.656  0.00  0.00    +0.000 C 
ATOM     22  N   UNL     1      -6.622  15.059  23.835  0.00  0.00    +0.000 NA
ATOM     23  C   UNL     1      -6.267  13.724  24.291  0.00  0.00    +0.000 C 
ATOM     24  C   UNL     1      -6.535  12.586  23.299  0.00  0.00    +0.000 C 
BRANCH  22  25
ATOM     25  C   UNL     1      -5.729  16.170  24.177  0.00  0.00    +0.000 C 
BRANCH  25  26
ATOM     26  C   UNL     1      -4.252  15.956  23.854  0.00  0.00    +0.000 A 
ATOM     27  C   UNL     1      -3.443  15.256  24.789  0.00  0.00    +0.000 A 
ATOM     28  C   UNL     1      -2.120  14.926  24.507  0.00  0.00    +0.000 A 
ATOM     29  C   UNL     1      -1.555  15.275  23.291  0.00  0.00    +0.000 A 
ATOM     30  C   UNL     1      -2.321  15.965  22.348  0.00  0.00    +0.000 A 
ATOM     31  C   UNL     1      -3.670  16.291  22.604  0.00  0.00    +0.000 A 
ATOM     32  C   UNL     1      -4.393  17.041  21.515  0.00  0.00    +0.000 C 
ENDBRANCH  25  26
ENDBRANCH  22  25
ENDBRANCH  14  19
BRANCH   1  34
ATOM     33  C   UNL     1      -3.095  10.434  14.985  0.00  0.00    +0.000 C 
ATOM     34  O   UNL     1      -4.349  10.899  15.462  0.00  0.00    +0.000 OA
ENDBRANCH   1  34
BRANCH  17  35
ATOM     35  O   UNL     1      -6.557  12.657  16.515  0.00  0.00    +0.000 OA
ATOM     36  C   UNL     1      -7.360  13.607  17.222  0.00  0.00    +0.000 C 
ENDBRANCH  17  35
TORSDOF 5
ENDMDL
MODEL 6
REMARK VINA RESULT:      -6.7      8.082     11.126
REMARK  Name = 
REMARK  8 active torsions:
REMARK  status: ('A' for Active; 'I' for Inactive)
REMARK    1  A    between atoms: C_1  and  O_2
REMARK    2  A    between atoms: O_2  and  C_3
REMARK    3  A    between atoms: N_16  and  C_17
REMARK    4  A    between atoms: N_20  and  C_21
REMARK    5  A    between atoms: C_21  and  C_22
REMARK    6  A    between atoms: C_27  and  C_28
REMARK    7  A    between atoms: C_33  and  O_34
REMARK    8  A    between atoms: O_34  and  C_35
REMARK                            x       y       z     vdW  Elec       q    Type
REMARK                         _______ _______ _______ _____ _____    ______ ____
ROOT
ATOM      1  C   UNL     1      -3.876  10.751  16.087  0.00  0.00    +0.000 A 
ATOM      2  C   UNL     1      -2.642  10.180  16.422  0.00  0.00    +0.000 A 
ATOM      3  C   UNL     1      -1.941  10.491  17.583  0.00  0.00    +0.000 A 
ATOM      4  N   UNL     1      -0.767   9.878  17.765  0.00  0.00    +0.000 NA
ATOM      5  C   UNL     1      -0.084  10.112  18.887  0.00  0.00    +0.000 A 
ATOM      6  N   UNL     1       1.134   9.496  19.075  0.00  0.00    +0.000 N 
ATOM      7  C   UNL     1       1.853   8.832  17.995  0.00  0.00    +0.000 C 
ATOM      8  C   UNL     1       1.997   7.335  18.279  0.00  0.00    +0.000 C 
ATOM      9  C   UNL     1       2.509   7.060  19.695  0.00  0.00    +0.000 C 
ATOM     10  C   UNL     1       1.678   7.813  20.734  0.00  0.00    +0.000 C 
ATOM     11  C   UNL     1       1.648   9.309  20.421  0.00  0.00    +0.000 C 
ATOM     12  N   UNL     1      -0.550  10.933  19.841  0.00  0.00    +0.000 NA
ATOM     13  C   UNL     1      -1.723  11.578  19.663  0.00  0.00    +0.000 A 
ATOM     14  N   UNL     1      -2.016  12.412  20.746  0.00  0.00    +0.000 N 
ATOM     15  C   UNL     1      -2.487  11.412  18.488  0.00  0.00    +0.000 A 
ATOM     16  C   UNL     1      -3.705  12.062  18.116  0.00  0.00    +0.000 A 
ATOM     17  C   UNL     1      -4.413  11.704  16.949  0.00  0.00    +0.000 A 
ATOM     18  H   UNL     1      -1.215  12.254  21.362  0.00  0.00    +0.000 HD
ENDROOT
BRANCH  14  19
ATOM     19  C   UNL     1      -3.260  12.301  21.536  0.00  0.00    +0.000 C 
ATOM     20  C   UNL     1      -4.197  13.508  21.290  0.00  0.00    +0.000 C 
ATOM     21  C   UNL     1      -3.862  14.788  22.081  0.00  0.00    +0.000 C 
ATOM     22  N   UNL     1      -2.704  14.732  22.947  0.00  0.00    +0.000 NA
ATOM     23  C   UNL     1      -2.349  13.474  23.588  0.00  0.00    +0.000 C 
ATOM     24  C   UNL     1      -3.051  12.226  23.042  0.00  0.00    +0.000 C 
BRANCH  22  25
ATOM     25  C   UNL     1      -1.642  15.714  22.710  0.00  0.00    +0.000 C 
BRANCH  25  26
ATOM     26  C   UNL     1      -1.209  15.883  21.256  0.00  0.00    +0.000 A 
ATOM     27  C   UNL     1      -1.907  16.813  20.439  0.00  0.00    +0.000 A 
ATOM     28  C   UNL     1      -1.493  17.100  19.141  0.00  0.00    +0.000 A 
ATOM     29  C   UNL     1      -0.374  16.478  18.609  0.00  0.00    +0.000 A 
ATOM     30  C   UNL     1       0.336  15.557  19.383  0.00  0.00    +0.000 A 
ATOM     31  C   UNL     1      -0.053  15.267  20.708  0.00  0.00    +0.000 A 
ATOM     32  C   UNL     1       0.786  14.254  21.442  0.00  0.00    +0.000 C 
ENDBRANCH  25  26
ENDBRANCH  22  25
ENDBRANCH  14  19
BRANCH   1  34
ATOM     33  C   UNL     1      -3.547   9.886  13.862  0.00  0.00    +0.000 C 
ATOM     34  O   UNL     1      -4.407  10.232  14.938  0.00  0.00    +0.000 OA
ENDBRANCH   1  34
BRANCH  17  35
ATOM     35  O   UNL     1      -5.576  12.380  16.698  0.00  0.00    +0.000 OA
ATOM     36  C   UNL     1      -6.122  12.987  17.873  0.00  0.00    +0.000 C 
ENDBRANCH  17  35
TORSDOF 5
ENDMDL
MODEL 7
REMARK VINA RESULT:      -6.6      8.983     13.090
REMARK  Name = 
REMARK  8 active torsions:
REMARK  status: ('A' for Active; 'I' for Inactive)
REMARK    1  A    between atoms: C_1  and  O_2
REMARK    2  A    between atoms: O_2  and  C_3
REMARK    3  A    between atoms: N_16  and  C_17
REMARK    4  A    between atoms: N_20  and  C_21
REMARK    5  A    between atoms: C_21  and  C_22
REMARK    6  A    between atoms: C_27  and  C_28
REMARK    7  A    between atoms: C_33  and  O_34
REMARK    8  A    between atoms: O_34  and  C_35
REMARK                            x       y       z     vdW  Elec       q    Type
REMARK                         _______ _______ _______ _____ _____    ______ ____
ROOT
ATOM      1  C   UNL     1      -4.441  11.526  16.725  0.00  0.00    +0.000 A 
ATOM      2  C   UNL     1      -3.321  11.287  17.532  0.00  0.00    +0.000 A 
ATOM      3  C   UNL     1      -3.227  11.699  18.858  0.00  0.00    +0.000 A 
ATOM      4  N   UNL     1      -2.091  11.412  19.502  0.00  0.00    +0.000 NA
ATOM      5  C   UNL     1      -1.977  11.748  20.788  0.00  0.00    +0.000 A 
ATOM      6  N   UNL     1      -0.803  11.470  21.456  0.00  0.00    +0.000 N 
ATOM      7  C   UNL     1       0.423  11.096  20.763  0.00  0.00    +0.000 C 
ATOM      8  C   UNL     1       0.851   9.677  21.146  0.00  0.00    +0.000 C 
ATOM      9  C   UNL     1       0.841   9.458  22.661  0.00  0.00    +0.000 C 
ATOM     10  C   UNL     1      -0.493   9.890  23.269  0.00  0.00    +0.000 C 
ATOM     11  C   UNL     1      -0.808  11.341  22.902  0.00  0.00    +0.000 C 
ATOM     12  N   UNL     1      -2.974  12.350  21.455  0.00  0.00    +0.000 NA
ATOM     13  C   UNL     1      -4.120  12.666  20.813  0.00  0.00    +0.000 A 
ATOM     14  N   UNL     1      -5.018  13.319  21.663  0.00  0.00    +0.000 N 
ATOM     15  C   UNL     1      -4.305  12.378  19.444  0.00  0.00    +0.000 A 
ATOM     16  C   UNL     1      -5.417  12.700  18.605  0.00  0.00    +0.000 A 
ATOM     17  C   UNL     1      -5.503  12.242  17.274  0.00  0.00    +0.000 A 
ATOM     18  H   UNL     1      -4.499  13.342  22.545  0.00  0.00    +0.000 HD
ENDROOT
BRANCH  14  19
ATOM     19  C   UNL     1      -6.386  12.826  21.921  0.00  0.00    +0.000 C 
ATOM     20  C   UNL     1      -7.453  13.817  21.395  0.00  0.00    +0.000 C 
ATOM     21  C   UNL     1      -7.761  15.019  22.310  0.00  0.00    +0.000 C 
ATOM     22  N   UNL     1      -7.011  15.104  23.545  0.00  0.00    +0.000 NA
ATOM     23  C   UNL     1      -6.595  13.881  24.215  0.00  0.00    +0.000 C 
ATOM     24  C   UNL     1      -6.712  12.595  23.390  0.00  0.00    +0.000 C 
BRANCH  22  25
ATOM     25  C   UNL     1      -6.224  16.321  23.769  0.00  0.00    +0.000 C 
BRANCH  25  26
ATOM     26  C   UNL     1      -4.906  16.407  23.003  0.00  0.00    +0.000 A 
ATOM     27  C   UNL     1      -4.917  16.919  21.678  0.00  0.00    +0.000 A 
ATOM     28  C   UNL     1      -3.740  17.132  20.967  0.00  0.00    +0.000 A 
ATOM     29  C   UNL     1      -2.512  16.848  21.544  0.00  0.00    +0.000 A 
ATOM     30  C   UNL     1      -2.463  16.341  22.844  0.00  0.00    +0.000 A 
ATOM     31  C   UNL     1      -3.642  16.137  23.592  0.00  0.00    +0.000 A 
ATOM     32  C   UNL     1      -3.464  15.581  24.981  0.00  0.00    +0.000 C 
ENDBRANCH  25  26
ENDBRANCH  22  25
ENDBRANCH  14  19
BRANCH   1  34
ATOM     33  C   UNL     1      -3.089  10.417  15.068  0.00  0.00    +0.000 C 
ATOM     34  O   UNL     1      -4.333  10.960  15.485  0.00  0.00    +0.000 OA
ENDBRANCH   1  34
BRANCH  17  35
ATOM     35  O   UNL     1      -6.620  12.595  16.567  0.00  0.00    +0.000 OA
ATOM     36  C   UNL     1      -6.987  13.963  16.770  0.00  0.00    +0.000 C 
ENDBRANCH  17  35
TORSDOF 5
ENDMDL
MODEL 8
REMARK VINA RESULT:      -6.4      5.894     11.012
REMARK  Name = 
REMARK  8 active torsions:
REMARK  status: ('A' for Active; 'I' for Inactive)
REMARK    1  A    between atoms: C_1  and  O_2
REMARK    2  A    between atoms: O_2  and  C_3
REMARK    3  A    between atoms: N_16  and  C_17
REMARK    4  A    between atoms: N_20  and  C_21
REMARK    5  A    between atoms: C_21  and  C_22
REMARK    6  A    between atoms: C_27  and  C_28
REMARK    7  A    between atoms: C_33  and  O_34
REMARK    8  A    between atoms: O_34  and  C_35
REMARK                            x       y       z     vdW  Elec       q    Type
REMARK                         _______ _______ _______ _____ _____    ______ ____
ROOT
ATOM      1  C   UNL     1       2.973  15.372  18.224  0.00  0.00    +0.000 A 
ATOM      2  C   UNL     1       2.161  14.236  18.115  0.00  0.00    +0.000 A 
ATOM      3  C   UNL     1       0.945  14.094  18.775  0.00  0.00    +0.000 A 
ATOM      4  N   UNL     1       0.283  12.946  18.587  0.00  0.00    +0.000 NA
ATOM      5  C   UNL     1      -0.908  12.787  19.165  0.00  0.00    +0.000 A 
ATOM      6  N   UNL     1      -1.590  11.602  18.988  0.00  0.00    +0.000 N 
ATOM      7  C   UNL     1      -0.955  10.406  18.449  0.00  0.00    +0.000 C 
ATOM      8  C   UNL     1      -1.600  10.002  17.121  0.00  0.00    +0.000 C 
ATOM      9  C   UNL     1      -3.128   9.974  17.204  0.00  0.00    +0.000 C 
ATOM     10  C   UNL     1      -3.670  11.279  17.786  0.00  0.00    +0.000 C 
ATOM     11  C   UNL     1      -3.033  11.569  19.145  0.00  0.00    +0.000 C 
ATOM     12  N   UNL     1      -1.466  13.750  19.915  0.00  0.00    +0.000 NA
ATOM     13  C   UNL     1      -0.802  14.906  20.133  0.00  0.00    +0.000 A 
ATOM     14  N   UNL     1      -1.528  15.762  20.966  0.00  0.00    +0.000 N 
ATOM     15  C   UNL     1       0.479  15.137  19.587  0.00  0.00    +0.000 A 
ATOM     16  C   UNL     1       1.338  16.265  19.772  0.00  0.00    +0.000 A 
ATOM     17  C   UNL     1       2.551  16.401  19.064  0.00  0.00    +0.000 A 
ATOM     18  H   UNL     1      -2.376  15.219  21.146  0.00  0.00    +0.000 HD
ENDROOT
BRANCH  14  19
ATOM     19  C   UNL     1      -1.910  17.135  20.574  0.00  0.00    +0.000 C 
ATOM     20  C   UNL     1      -1.630  18.147  21.712  0.00  0.00    +0.000 C 
ATOM     21  C   UNL     1      -2.693  18.216  22.825  0.00  0.00    +0.000 C 
ATOM     22  N   UNL     1      -3.823  17.320  22.701  0.00  0.00    +0.000 NA
ATOM     23  C   UNL     1      -4.306  16.957  21.377  0.00  0.00    +0.000 C 
ATOM     24  C   UNL     1      -3.378  17.306  20.209  0.00  0.00    +0.000 C 
BRANCH  22  25
ATOM     25  C   UNL     1      -4.064  16.389  23.808  0.00  0.00    +0.000 C 
BRANCH  25  26
ATOM     26  C   UNL     1      -3.597  14.953  23.579  0.00  0.00    +0.000 A 
ATOM     27  C   UNL     1      -4.462  14.054  22.899  0.00  0.00    +0.000 A 
ATOM     28  C   UNL     1      -4.056  12.768  22.557  0.00  0.00    +0.000 A 
ATOM     29  C   UNL     1      -2.779  12.329  22.873  0.00  0.00    +0.000 A 
ATOM     30  C   UNL     1      -1.903  13.186  23.544  0.00  0.00    +0.000 A 
ATOM     31  C   UNL     1      -2.287  14.501  23.881  0.00  0.00    +0.000 A 
ATOM     32  C   UNL     1      -1.259  15.330  24.607  0.00  0.00    +0.000 C 
ENDBRANCH  25  26
ENDBRANCH  22  25
ENDBRANCH  14  19
BRANCH   1  34
ATOM     33  C   UNL     1       5.265  14.701  17.908  0.00  0.00    +0.000 C 
ATOM     34  O   UNL     1       4.079  15.314  17.423  0.00  0.00    +0.000 OA
ENDBRANCH   1  34
BRANCH  17  35
ATOM     35  O   UNL     1       3.287  17.529  19.306  0.00  0.00    +0.000 OA
ATOM     36  C   UNL     1       3.623  17.679  20.688  0.00  0.00    +0.000 C 
ENDBRANCH  17  35
TORSDOF 5
ENDMDL
MODEL 9
REMARK VINA RESULT:      -6.4      5.590     10.934
REMARK  Name = 
REMARK  8 active torsions:
REMARK  status: ('A' for Active; 'I' for Inactive)
REMARK    1  A    between atoms: C_1  and  O_2
REMARK    2  A    between atoms: O_2  and  C_3
REMARK    3  A    between atoms: N_16  and  C_17
REMARK    4  A    between atoms: N_20  and  C_21
REMARK    5  A    between atoms: C_21  and  C_22
REMARK    6  A    between atoms: C_27  and  C_28
REMARK    7  A    between atoms: C_33  and  O_34
REMARK    8  A    between atoms: O_34  and  C_35
REMARK                            x       y       z     vdW  Elec       q    Type
REMARK                         _______ _______ _______ _____ _____    ______ ____
ROOT
ATOM      1  C   UNL     1       3.456  15.236  18.131  0.00  0.00    +0.000 A 
ATOM      2  C   UNL     1       2.582  14.142  18.095  0.00  0.00    +0.000 A 
ATOM      3  C   UNL     1       1.347  14.123  18.735  0.00  0.00    +0.000 A 
ATOM      4  N   UNL     1       0.625  13.003  18.625  0.00  0.00    +0.000 NA
ATOM      5  C   UNL     1      -0.585  12.959  19.185  0.00  0.00    +0.000 A 
ATOM      6  N   UNL     1      -1.330  11.803  19.089  0.00  0.00    +0.000 N 
ATOM      7  C   UNL     1      -0.755  10.533  18.665  0.00  0.00    +0.000 C 
ATOM      8  C   UNL     1      -1.396  10.057  17.359  0.00  0.00    +0.000 C 
ATOM      9  C   UNL     1      -2.924  10.121  17.406  0.00  0.00    +0.000 C 
ATOM     10  C   UNL     1      -3.402  11.498  17.867  0.00  0.00    +0.000 C 
ATOM     11  C   UNL     1      -2.776  11.863  19.213  0.00  0.00    +0.000 C 
ATOM     12  N   UNL     1      -1.102  14.010  19.840  0.00  0.00    +0.000 NA
ATOM     13  C   UNL     1      -0.376  15.140  19.980  0.00  0.00    +0.000 A 
ATOM     14  N   UNL     1      -1.068  16.102  20.723  0.00  0.00    +0.000 N 
ATOM     15  C   UNL     1       0.926  15.254  19.448  0.00  0.00    +0.000 A 
ATOM     16  C   UNL     1       1.845  16.344  19.561  0.00  0.00    +0.000 A 
ATOM     17  C   UNL     1       3.078  16.353  18.875  0.00  0.00    +0.000 A 
ATOM     18  H   UNL     1      -1.949  15.623  20.925  0.00  0.00    +0.000 HD
ENDROOT
BRANCH  14  19
ATOM     19  C   UNL     1      -1.363  17.457  20.211  0.00  0.00    +0.000 C 
ATOM     20  C   UNL     1      -1.489  18.482  21.365  0.00  0.00    +0.000 C 
ATOM     21  C   UNL     1      -2.847  18.509  22.092  0.00  0.00    +0.000 C 
ATOM     22  N   UNL     1      -3.847  17.566  21.637  0.00  0.00    +0.000 NA
ATOM     23  C   UNL     1      -3.881  17.181  20.234  0.00  0.00    +0.000 C 
ATOM     24  C   UNL     1      -2.650  17.566  19.406  0.00  0.00    +0.000 C 
BRANCH  22  25
ATOM     25  C   UNL     1      -4.384  16.629  22.628  0.00  0.00    +0.000 C 
BRANCH  25  26
ATOM     26  C   UNL     1      -3.627  15.310  22.770  0.00  0.00    +0.000 A 
ATOM     27  C   UNL     1      -2.468  15.273  23.592  0.00  0.00    +0.000 A 
ATOM     28  C   UNL     1      -1.799  14.081  23.857  0.00  0.00    +0.000 A 
ATOM     29  C   UNL     1      -2.254  12.887  23.319  0.00  0.00    +0.000 A 
ATOM     30  C   UNL     1      -3.389  12.887  22.505  0.00  0.00    +0.000 A 
ATOM     31  C   UNL     1      -4.096  14.080  22.240  0.00  0.00    +0.000 A 
ATOM     32  C   UNL     1      -5.301  13.956  21.344  0.00  0.00    +0.000 C 
ENDBRANCH  25  26
ENDBRANCH  22  25
ENDBRANCH  14  19
BRANCH   1  34
ATOM     33  C   UNL     1       5.782  14.631  17.978  0.00  0.00    +0.000 C 
ATOM     34  O   UNL     1       4.573  15.050  17.364  0.00  0.00    +0.000 OA
ENDBRANCH   1  34
BRANCH  17  35
ATOM     35  O   UNL     1       3.872  17.454  19.041  0.00  0.00    +0.000 OA
ATOM     36  C   UNL     1       4.646  17.395  20.243  0.00  0.00    +0.000 C 
ENDBRANCH  17  35
TORSDOF 5
ENDMDL
