MODEL 1
REMARK VINA RESULT:      -8.7      0.000      0.000
REMARK  Name = 
REMARK  3 active torsions:
REMARK  status: ('A' for Active; 'I' for Inactive)
REMARK    1  A    between atoms: C_6  and  C_7
REMARK    2  A    between atoms: N_15  and  C_16
REMARK    3  A    between atoms: C_16  and  C_17
REMARK                            x       y       z     vdW  Elec       q    Type
REMARK                         _______ _______ _______ _____ _____    ______ ____
ROOT
ATOM      1  C   UNL     1       5.064   5.270  18.072  0.00  0.00    +0.000 A 
ATOM      2  N   UNL     1       5.196   4.025  18.503  0.00  0.00    +0.000 NA
ATOM      3  C   UNL     1       3.929   3.510  18.578  0.00  0.00    +0.000 A 
ATOM      4  C   UNL     1       3.500   2.255  19.039  0.00  0.00    +0.000 A 
ATOM      5  C   UNL     1       2.136   1.945  18.994  0.00  0.00    +0.000 A 
ATOM      6  C   UNL     1       1.216   2.865  18.486  0.00  0.00    +0.000 A 
ATOM      7  C   UNL     1       1.624   4.127  18.035  0.00  0.00    +0.000 A 
ATOM      8  C   UNL     1       2.991   4.425  18.113  0.00  0.00    +0.000 A 
ATOM      9  N   UNL     1       3.734   5.559  17.837  0.00  0.00    +0.000 N 
ENDROOT
BRANCH   1  15
ATOM     10  N   UNL     1       7.636   5.534  19.822  0.00  0.00    +0.000 N 
ATOM     11  C   UNL     1       7.383   6.277  18.728  0.00  0.00    +0.000 A 
ATOM     12  N   UNL     1       8.211   7.198  18.236  0.00  0.00    +0.000 NA
ATOM     13  O   UNL     1       7.573   7.693  17.106  0.00  0.00    +0.000 OA
ATOM     14  N   UNL     1       6.362   7.050  16.884  0.00  0.00    +0.000 NA
ATOM     15  C   UNL     1       6.238   6.185  17.897  0.00  0.00    +0.000 A 
ATOM     16  H   UNL     1       8.571   5.514  20.210  0.00  0.00    +0.000 HD
ATOM     17  H   UNL     1       7.055   4.721  20.025  0.00  0.00    +0.000 HD
ENDBRANCH   1  15
BRANCH   9  18
ATOM     18  C   UNL     1       3.169   6.815  17.359  0.00  0.00    +0.000 C 
BRANCH  18  19
ATOM     19  C   UNL     1       2.460   7.641  18.413  0.00  0.00    +0.000 A 
ATOM     20  C   UNL     1       2.319   7.251  19.755  0.00  0.00    +0.000 A 
ATOM     21  C   UNL     1       1.569   8.020  20.651  0.00  0.00    +0.000 A 
ATOM     22  C   UNL     1       0.953   9.193  20.222  0.00  0.00    +0.000 A 
ATOM     23  C   UNL     1       1.106   9.611  18.904  0.00  0.00    +0.000 A 
ATOM     24  C   UNL     1       1.855   8.844  18.009  0.00  0.00    +0.000 A 
ENDBRANCH  18  19
ENDBRANCH   9  18
TORSDOF 3
ENDMDL
MODEL 2
REMARK VINA RESULT:      -8.7      3.285      4.839
REMARK  Name = 
REMARK  3 active torsions:
REMARK  status: ('A' for Active; 'I' for Inactive)
REMARK    1  A    between atoms: C_6  and  C_7
REMARK    2  A    between atoms: N_15  and  C_16
REMARK    3  A    between atoms: C_16  and  C_17
REMARK                            x       y       z     vdW  Elec       q    Type
REMARK                         _______ _______ _______ _____ _____    ______ ____
ROOT
ATOM      1  C   UNL     1       7.110   4.937  16.024  0.00  0.00    +0.000 A 
ATOM      2  N   UNL     1       7.746   5.372  14.948  0.00  0.00    +0.000 NA
ATOM      3  C   UNL     1       7.148   4.762  13.877  0.00  0.00    +0.000 A 
ATOM      4  C   UNL     1       7.478   4.824  12.514  0.00  0.00    +0.000 A 
ATOM      5  C   UNL     1       6.693   4.122  11.592  0.00  0.00    +0.000 A 
ATOM      6  C   UNL     1       5.589   3.381  12.021  0.00  0.00    +0.000 A 
ATOM      7  C   UNL     1       5.253   3.296  13.378  0.00  0.00    +0.000 A 
ATOM      8  C   UNL     1       6.069   3.987  14.285  0.00  0.00    +0.000 A 
ATOM      9  N   UNL     1       6.090   4.077  15.665  0.00  0.00    +0.000 N 
ENDROOT
BRANCH   1  15
ATOM     10  N   UNL     1       7.473   7.808  17.194  0.00  0.00    +0.000 N 
ATOM     11  C   UNL     1       7.668   6.675  17.893  0.00  0.00    +0.000 A 
ATOM     12  N   UNL     1       8.011   6.633  19.180  0.00  0.00    +0.000 NA
ATOM     13  O   UNL     1       8.078   5.281  19.494  0.00  0.00    +0.000 OA
ATOM     14  N   UNL     1       7.743   4.489  18.404  0.00  0.00    +0.000 NA
ATOM     15  C   UNL     1       7.504   5.352  17.409  0.00  0.00    +0.000 A 
ATOM     16  H   UNL     1       7.393   8.692  17.682  0.00  0.00    +0.000 HD
ATOM     17  H   UNL     1       7.026   7.767  16.279  0.00  0.00    +0.000 HD
ENDBRANCH   1  15
BRANCH   9  18
ATOM     18  C   UNL     1       5.160   3.384  16.548  0.00  0.00    +0.000 C 
BRANCH  18  19
ATOM     19  C   UNL     1       4.006   4.226  17.052  0.00  0.00    +0.000 A 
ATOM     20  C   UNL     1       4.102   5.594  17.352  0.00  0.00    +0.000 A 
ATOM     21  C   UNL     1       3.019   6.286  17.903  0.00  0.00    +0.000 A 
ATOM     22  C   UNL     1       1.822   5.624  18.159  0.00  0.00    +0.000 A 
ATOM     23  C   UNL     1       1.697   4.275  17.841  0.00  0.00    +0.000 A 
ATOM     24  C   UNL     1       2.778   3.583  17.290  0.00  0.00    +0.000 A 
ENDBRANCH  18  19
ENDBRANCH   9  18
TORSDOF 3
ENDMDL
MODEL 3
REMARK VINA RESULT:      -8.6      1.578      2.009
REMARK  Name = 
REMARK  3 active torsions:
REMARK  status: ('A' for Active; 'I' for Inactive)
REMARK    1  A    between atoms: C_6  and  C_7
REMARK    2  A    between atoms: N_15  and  C_16
REMARK    3  A    between atoms: C_16  and  C_17
REMARK                            x       y       z     vdW  Elec       q    Type
REMARK                         _______ _______ _______ _____ _____    ______ ____
ROOT
ATOM      1  C   UNL     1       4.182   4.441  17.357  0.00  0.00    +0.000 A 
ATOM      2  N   UNL     1       3.609   3.282  17.075  0.00  0.00    +0.000 NA
ATOM      3  C   UNL     1       2.627   3.102  18.015  0.00  0.00    +0.000 A 
ATOM      4  C   UNL     1       1.768   2.010  18.212  0.00  0.00    +0.000 A 
ATOM      5  C   UNL     1       0.818   2.070  19.238  0.00  0.00    +0.000 A 
ATOM      6  C   UNL     1       0.717   3.205  20.045  0.00  0.00    +0.000 A 
ATOM      7  C   UNL     1       1.576   4.298  19.873  0.00  0.00    +0.000 A 
ATOM      8  C   UNL     1       2.535   4.205  18.856  0.00  0.00    +0.000 A 
ATOM      9  N   UNL     1       3.568   5.030  18.446  0.00  0.00    +0.000 N 
ENDROOT
BRANCH   1  15
ATOM     10  N   UNL     1       7.234   4.312  18.003  0.00  0.00    +0.000 N 
ATOM     11  C   UNL     1       6.715   4.901  16.910  0.00  0.00    +0.000 A 
ATOM     12  N   UNL     1       7.437   5.476  15.950  0.00  0.00    +0.000 NA
ATOM     13  O   UNL     1       6.510   5.924  15.017  0.00  0.00    +0.000 OA
ATOM     14  N   UNL     1       5.214   5.594  15.390  0.00  0.00    +0.000 NA
ATOM     15  C   UNL     1       5.340   4.974  16.569  0.00  0.00    +0.000 A 
ATOM     16  H   UNL     1       8.226   4.113  18.043  0.00  0.00    +0.000 HD
ATOM     17  H   UNL     1       6.641   3.726  18.591  0.00  0.00    +0.000 HD
ENDBRANCH   1  15
BRANCH   9  18
ATOM     18  C   UNL     1       3.900   6.304  19.072  0.00  0.00    +0.000 C 
BRANCH  18  19
ATOM     19  C   UNL     1       2.850   7.386  18.920  0.00  0.00    +0.000 A 
ATOM     20  C   UNL     1       2.640   8.118  17.740  0.00  0.00    +0.000 A 
ATOM     21  C   UNL     1       1.716   9.167  17.702  0.00  0.00    +0.000 A 
ATOM     22  C   UNL     1       0.984   9.498  18.839  0.00  0.00    +0.000 A 
ATOM     23  C   UNL     1       1.156   8.764  20.009  0.00  0.00    +0.000 A 
ATOM     24  C   UNL     1       2.078   7.716  20.048  0.00  0.00    +0.000 A 
ENDBRANCH  18  19
ENDBRANCH   9  18
TORSDOF 3
ENDMDL
MODEL 4
REMARK VINA RESULT:      -8.5      0.149      1.036
REMARK  Name = 
REMARK  3 active torsions:
REMARK  status: ('A' for Active; 'I' for Inactive)
REMARK    1  A    between atoms: C_6  and  C_7
REMARK    2  A    between atoms: N_15  and  C_16
REMARK    3  A    between atoms: C_16  and  C_17
REMARK                            x       y       z     vdW  Elec       q    Type
REMARK                         _______ _______ _______ _____ _____    ______ ____
ROOT
ATOM      1  C   UNL     1       5.162   5.346  18.110  0.00  0.00    +0.000 A 
ATOM      2  N   UNL     1       5.265   4.105  18.561  0.00  0.00    +0.000 NA
ATOM      3  C   UNL     1       3.991   3.600  18.583  0.00  0.00    +0.000 A 
ATOM      4  C   UNL     1       3.532   2.354  19.037  0.00  0.00    +0.000 A 
ATOM      5  C   UNL     1       2.168   2.053  18.933  0.00  0.00    +0.000 A 
ATOM      6  C   UNL     1       1.280   2.975  18.372  0.00  0.00    +0.000 A 
ATOM      7  C   UNL     1       1.719   4.228  17.928  0.00  0.00    +0.000 A 
ATOM      8  C   UNL     1       3.083   4.516  18.065  0.00  0.00    +0.000 A 
ATOM      9  N   UNL     1       3.847   5.642  17.811  0.00  0.00    +0.000 N 
ENDROOT
BRANCH   1  15
ATOM     10  N   UNL     1       7.720   5.511  19.894  0.00  0.00    +0.000 N 
ATOM     11  C   UNL     1       7.488   6.296  18.825  0.00  0.00    +0.000 A 
ATOM     12  N   UNL     1       8.333   7.222  18.374  0.00  0.00    +0.000 NA
ATOM     13  O   UNL     1       7.714   7.766  17.256  0.00  0.00    +0.000 OA
ATOM     14  N   UNL     1       6.496   7.149  17.000  0.00  0.00    +0.000 NA
ATOM     15  C   UNL     1       6.351   6.250  17.980  0.00  0.00    +0.000 A 
ATOM     16  H   UNL     1       8.650   5.465  20.291  0.00  0.00    +0.000 HD
ATOM     17  H   UNL     1       7.126   4.700  20.062  0.00  0.00    +0.000 HD
ENDBRANCH   1  15
BRANCH   9  18
ATOM     18  C   UNL     1       3.314   6.896  17.295  0.00  0.00    +0.000 C 
BRANCH  18  19
ATOM     19  C   UNL     1       2.449   7.674  18.266  0.00  0.00    +0.000 A 
ATOM     20  C   UNL     1       1.760   8.853  17.936  0.00  0.00    +0.000 A 
ATOM     21  C   UNL     1       1.057   9.569  18.909  0.00  0.00    +0.000 A 
ATOM     22  C   UNL     1       1.026   9.117  20.226  0.00  0.00    +0.000 A 
ATOM     23  C   UNL     1       1.678   7.936  20.566  0.00  0.00    +0.000 A 
ATOM     24  C   UNL     1       2.380   7.219  19.595  0.00  0.00    +0.000 A 
ENDBRANCH  18  19
ENDBRANCH   9  18
TORSDOF 3
ENDMDL
MODEL 5
REMARK VINA RESULT:      -8.4      1.560      1.837
REMARK  Name = 
REMARK  3 active torsions:
REMARK  status: ('A' for Active; 'I' for Inactive)
REMARK    1  A    between atoms: C_6  and  C_7
REMARK    2  A    between atoms: N_15  and  C_16
REMARK    3  A    between atoms: C_16  and  C_17
REMARK                            x       y       z     vdW  Elec       q    Type
REMARK                         _______ _______ _______ _____ _____    ______ ____
ROOT
ATOM      1  C   UNL     1       4.136   4.450  17.420  0.00  0.00    +0.000 A 
ATOM      2  N   UNL     1       3.530   3.320  17.089  0.00  0.00    +0.000 NA
ATOM      3  C   UNL     1       2.558   3.116  18.034  0.00  0.00    +0.000 A 
ATOM      4  C   UNL     1       1.675   2.037  18.189  0.00  0.00    +0.000 A 
ATOM      5  C   UNL     1       0.742   2.068  19.232  0.00  0.00    +0.000 A 
ATOM      6  C   UNL     1       0.681   3.163  20.097  0.00  0.00    +0.000 A 
ATOM      7  C   UNL     1       1.564   4.242  19.966  0.00  0.00    +0.000 A 
ATOM      8  C   UNL     1       2.506   4.178  18.930  0.00  0.00    +0.000 A 
ATOM      9  N   UNL     1       3.553   4.997  18.547  0.00  0.00    +0.000 N 
ENDROOT
BRANCH   1  15
ATOM     10  N   UNL     1       7.188   4.297  18.061  0.00  0.00    +0.000 N 
ATOM     11  C   UNL     1       6.670   4.909  16.981  0.00  0.00    +0.000 A 
ATOM     12  N   UNL     1       7.394   5.500  16.031  0.00  0.00    +0.000 NA
ATOM     13  O   UNL     1       6.469   5.970  15.108  0.00  0.00    +0.000 OA
ATOM     14  N   UNL     1       5.171   5.637  15.475  0.00  0.00    +0.000 NA
ATOM     15  C   UNL     1       5.296   4.993  16.641  0.00  0.00    +0.000 A 
ATOM     16  H   UNL     1       8.180   4.094  18.097  0.00  0.00    +0.000 HD
ATOM     17  H   UNL     1       6.594   3.702  18.638  0.00  0.00    +0.000 HD
ENDBRANCH   1  15
BRANCH   9  18
ATOM     18  C   UNL     1       3.925   6.229  19.231  0.00  0.00    +0.000 C 
BRANCH  18  19
ATOM     19  C   UNL     1       2.931   7.364  19.094  0.00  0.00    +0.000 A 
ATOM     20  C   UNL     1       2.055   7.769  20.114  0.00  0.00    +0.000 A 
ATOM     21  C   UNL     1       1.098   8.763  19.885  0.00  0.00    +0.000 A 
ATOM     22  C   UNL     1       1.005   9.371  18.636  0.00  0.00    +0.000 A 
ATOM     23  C   UNL     1       1.884   9.004  17.622  0.00  0.00    +0.000 A 
ATOM     24  C   UNL     1       2.840   8.013  17.850  0.00  0.00    +0.000 A 
ENDBRANCH  18  19
ENDBRANCH   9  18
TORSDOF 3
ENDMDL
MODEL 6
REMARK VINA RESULT:      -8.4      1.764      4.625
REMARK  Name = 
REMARK  3 active torsions:
REMARK  status: ('A' for Active; 'I' for Inactive)
REMARK    1  A    between atoms: C_6  and  C_7
REMARK    2  A    between atoms: N_15  and  C_16
REMARK    3  A    between atoms: C_16  and  C_17
REMARK                            x       y       z     vdW  Elec       q    Type
REMARK                         _______ _______ _______ _____ _____    ______ ____
ROOT
ATOM      1  C   UNL     1       4.443   6.328  17.400  0.00  0.00    +0.000 A 
ATOM      2  N   UNL     1       3.983   7.464  16.899  0.00  0.00    +0.000 NA
ATOM      3  C   UNL     1       3.056   7.929  17.794  0.00  0.00    +0.000 A 
ATOM      4  C   UNL     1       2.226   9.058  17.716  0.00  0.00    +0.000 A 
ATOM      5  C   UNL     1       1.365   9.344  18.782  0.00  0.00    +0.000 A 
ATOM      6  C   UNL     1       1.342   8.525  19.914  0.00  0.00    +0.000 A 
ATOM      7  C   UNL     1       2.153   7.386  20.003  0.00  0.00    +0.000 A 
ATOM      8  C   UNL     1       2.988   7.107  18.913  0.00  0.00    +0.000 A 
ATOM      9  N   UNL     1       3.850   6.065  18.620  0.00  0.00    +0.000 N 
ENDROOT
BRANCH   1  15
ATOM     10  N   UNL     1       7.460   6.917  16.856  0.00  0.00    +0.000 N 
ATOM     11  C   UNL     1       6.819   5.806  16.448  0.00  0.00    +0.000 A 
ATOM     12  N   UNL     1       7.397   4.804  15.788  0.00  0.00    +0.000 NA
ATOM     13  O   UNL     1       6.388   3.868  15.594  0.00  0.00    +0.000 OA
ATOM     14  N   UNL     1       5.193   4.284  16.166  0.00  0.00    +0.000 NA
ATOM     15  C   UNL     1       5.457   5.490  16.682  0.00  0.00    +0.000 A 
ATOM     16  H   UNL     1       8.472   6.947  16.842  0.00  0.00    +0.000 HD
ATOM     17  H   UNL     1       7.009   7.546  17.520  0.00  0.00    +0.000 HD
ENDBRANCH   1  15
BRANCH   9  18
ATOM     18  C   UNL     1       4.079   4.918  19.490  0.00  0.00    +0.000 C 
BRANCH  18  19
ATOM     19  C   UNL     1       2.939   3.923  19.553  0.00  0.00    +0.000 A 
ATOM     20  C   UNL     1       2.451   3.215  18.443  0.00  0.00    +0.000 A 
ATOM     21  C   UNL     1       1.333   2.382  18.558  0.00  0.00    +0.000 A 
ATOM     22  C   UNL     1       0.688   2.240  19.783  0.00  0.00    +0.000 A 
ATOM     23  C   UNL     1       1.175   2.911  20.901  0.00  0.00    +0.000 A 
ATOM     24  C   UNL     1       2.291   3.742  20.788  0.00  0.00    +0.000 A 
ENDBRANCH  18  19
ENDBRANCH   9  18
TORSDOF 3
ENDMDL
MODEL 7
REMARK VINA RESULT:      -8.4      1.438      1.756
REMARK  Name = 
REMARK  3 active torsions:
REMARK  status: ('A' for Active; 'I' for Inactive)
REMARK    1  A    between atoms: C_6  and  C_7
REMARK    2  A    between atoms: N_15  and  C_16
REMARK    3  A    between atoms: C_16  and  C_17
REMARK                            x       y       z     vdW  Elec       q    Type
REMARK                         _______ _______ _______ _____ _____    ______ ____
ROOT
ATOM      1  C   UNL     1       4.839   4.700  18.403  0.00  0.00    +0.000 A 
ATOM      2  N   UNL     1       5.040   3.705  19.253  0.00  0.00    +0.000 NA
ATOM      3  C   UNL     1       3.836   3.479  19.868  0.00  0.00    +0.000 A 
ATOM      4  C   UNL     1       3.513   2.581  20.896  0.00  0.00    +0.000 A 
ATOM      5  C   UNL     1       2.190   2.514  21.349  0.00  0.00    +0.000 A 
ATOM      6  C   UNL     1       1.203   3.319  20.775  0.00  0.00    +0.000 A 
ATOM      7  C   UNL     1       1.510   4.231  19.758  0.00  0.00    +0.000 A 
ATOM      8  C   UNL     1       2.846   4.299  19.339  0.00  0.00    +0.000 A 
ATOM      9  N   UNL     1       3.518   5.103  18.436  0.00  0.00    +0.000 N 
ENDROOT
BRANCH   1  15
ATOM     10  N   UNL     1       6.138   3.546  15.809  0.00  0.00    +0.000 N 
ATOM     11  C   UNL     1       6.510   4.699  16.394  0.00  0.00    +0.000 A 
ATOM     12  N   UNL     1       7.457   5.510  15.926  0.00  0.00    +0.000 NA
ATOM     13  O   UNL     1       7.493   6.579  16.813  0.00  0.00    +0.000 OA
ATOM     14  N   UNL     1       6.541   6.439  17.815  0.00  0.00    +0.000 NA
ATOM     15  C   UNL     1       5.943   5.269  17.563  0.00  0.00    +0.000 A 
ATOM     16  H   UNL     1       6.441   3.342  14.865  0.00  0.00    +0.000 HD
ATOM     17  H   UNL     1       5.282   3.080  16.109  0.00  0.00    +0.000 HD
ENDBRANCH   1  15
BRANCH   9  18
ATOM     18  C   UNL     1       2.894   6.165  17.657  0.00  0.00    +0.000 C 
BRANCH  18  19
ATOM     19  C   UNL     1       2.346   7.320  18.472  0.00  0.00    +0.000 A 
ATOM     20  C   UNL     1       2.179   7.289  19.866  0.00  0.00    +0.000 A 
ATOM     21  C   UNL     1       1.579   8.358  20.540  0.00  0.00    +0.000 A 
ATOM     22  C   UNL     1       1.142   9.475  19.833  0.00  0.00    +0.000 A 
ATOM     23  C   UNL     1       1.326   9.536  18.455  0.00  0.00    +0.000 A 
ATOM     24  C   UNL     1       1.925   8.470  17.781  0.00  0.00    +0.000 A 
ENDBRANCH  18  19
ENDBRANCH   9  18
TORSDOF 3
ENDMDL
MODEL 8
REMARK VINA RESULT:      -8.3      1.770      4.564
REMARK  Name = 
REMARK  3 active torsions:
REMARK  status: ('A' for Active; 'I' for Inactive)
REMARK    1  A    between atoms: C_6  and  C_7
REMARK    2  A    between atoms: N_15  and  C_16
REMARK    3  A    between atoms: C_16  and  C_17
REMARK                            x       y       z     vdW  Elec       q    Type
REMARK                         _______ _______ _______ _____ _____    ______ ____
ROOT
ATOM      1  C   UNL     1       4.414   6.335  17.409  0.00  0.00    +0.000 A 
ATOM      2  N   UNL     1       3.961   7.467  16.892  0.00  0.00    +0.000 NA
ATOM      3  C   UNL     1       3.034   7.949  17.779  0.00  0.00    +0.000 A 
ATOM      4  C   UNL     1       2.210   9.081  17.684  0.00  0.00    +0.000 A 
ATOM      5  C   UNL     1       1.349   9.385  18.745  0.00  0.00    +0.000 A 
ATOM      6  C   UNL     1       1.319   8.581  19.887  0.00  0.00    +0.000 A 
ATOM      7  C   UNL     1       2.123   7.440  19.993  0.00  0.00    +0.000 A 
ATOM      8  C   UNL     1       2.960   7.141  18.908  0.00  0.00    +0.000 A 
ATOM      9  N   UNL     1       3.817   6.092  18.631  0.00  0.00    +0.000 N 
ENDROOT
BRANCH   1  15
ATOM     10  N   UNL     1       7.427   6.916  16.835  0.00  0.00    +0.000 N 
ATOM     11  C   UNL     1       6.785   5.796  16.456  0.00  0.00    +0.000 A 
ATOM     12  N   UNL     1       7.361   4.779  15.816  0.00  0.00    +0.000 NA
ATOM     13  O   UNL     1       6.353   3.838  15.648  0.00  0.00    +0.000 OA
ATOM     14  N   UNL     1       5.160   4.265  16.218  0.00  0.00    +0.000 NA
ATOM     15  C   UNL     1       5.425   5.482  16.705  0.00  0.00    +0.000 A 
ATOM     16  H   UNL     1       8.439   6.947  16.814  0.00  0.00    +0.000 HD
ATOM     17  H   UNL     1       6.978   7.559  17.487  0.00  0.00    +0.000 HD
ENDBRANCH   1  15
BRANCH   9  18
ATOM     18  C   UNL     1       4.038   4.955  19.516  0.00  0.00    +0.000 C 
BRANCH  18  19
ATOM     19  C   UNL     1       2.844   4.040  19.695  0.00  0.00    +0.000 A 
ATOM     20  C   UNL     1       2.298   3.694  20.942  0.00  0.00    +0.000 A 
ATOM     21  C   UNL     1       1.253   2.768  21.036  0.00  0.00    +0.000 A 
ATOM     22  C   UNL     1       0.735   2.178  19.887  0.00  0.00    +0.000 A 
ATOM     23  C   UNL     1       1.243   2.531  18.640  0.00  0.00    +0.000 A 
ATOM     24  C   UNL     1       2.285   3.455  18.545  0.00  0.00    +0.000 A 
ENDBRANCH  18  19
ENDBRANCH   9  18
TORSDOF 3
ENDMDL
MODEL 9
REMARK VINA RESULT:      -8.3      0.854      1.352
REMARK  Name = 
REMARK  3 active torsions:
REMARK  status: ('A' for Active; 'I' for Inactive)
REMARK    1  A    between atoms: C_6  and  C_7
REMARK    2  A    between atoms: N_15  and  C_16
REMARK    3  A    between atoms: C_16  and  C_17
REMARK                            x       y       z     vdW  Elec       q    Type
REMARK                         _______ _______ _______ _____ _____    ______ ____
ROOT
ATOM      1  C   UNL     1       4.996   4.706  18.675  0.00  0.00    +0.000 A 
ATOM      2  N   UNL     1       4.883   3.493  19.195  0.00  0.00    +0.000 NA
ATOM      3  C   UNL     1       3.560   3.152  19.084  0.00  0.00    +0.000 A 
ATOM      4  C   UNL     1       2.892   2.004  19.537  0.00  0.00    +0.000 A 
ATOM      5  C   UNL     1       1.523   1.869  19.281  0.00  0.00    +0.000 A 
ATOM      6  C   UNL     1       0.834   2.856  18.572  0.00  0.00    +0.000 A 
ATOM      7  C   UNL     1       1.480   4.015  18.125  0.00  0.00    +0.000 A 
ATOM      8  C   UNL     1       2.846   4.140  18.415  0.00  0.00    +0.000 A 
ATOM      9  N   UNL     1       3.774   5.143  18.203  0.00  0.00    +0.000 N 
ENDROOT
BRANCH   1  15
ATOM     10  N   UNL     1       6.385   6.168  16.292  0.00  0.00    +0.000 N 
ATOM     11  C   UNL     1       6.898   6.086  17.534  0.00  0.00    +0.000 A 
ATOM     12  N   UNL     1       8.047   6.644  17.913  0.00  0.00    +0.000 NA
ATOM     13  O   UNL     1       8.174   6.336  19.261  0.00  0.00    +0.000 OA
ATOM     14  N   UNL     1       7.082   5.612  19.722  0.00  0.00    +0.000 NA
ATOM     15  C   UNL     1       6.299   5.446  18.649  0.00  0.00    +0.000 A 
ATOM     16  H   UNL     1       6.771   6.833  15.633  0.00  0.00    +0.000 HD
ATOM     17  H   UNL     1       5.419   5.889  16.125  0.00  0.00    +0.000 HD
ENDBRANCH   1  15
BRANCH   9  18
ATOM     18  C   UNL     1       3.473   6.419  17.565  0.00  0.00    +0.000 C 
BRANCH  18  19
ATOM     19  C   UNL     1       2.693   7.396  18.421  0.00  0.00    +0.000 A 
ATOM     20  C   UNL     1       2.372   7.177  19.770  0.00  0.00    +0.000 A 
ATOM     21  C   UNL     1       1.567   8.080  20.472  0.00  0.00    +0.000 A 
ATOM     22  C   UNL     1       1.074   9.218  19.838  0.00  0.00    +0.000 A 
ATOM     23  C   UNL     1       1.406   9.467  18.510  0.00  0.00    +0.000 A 
ATOM     24  C   UNL     1       2.210   8.567  17.809  0.00  0.00    +0.000 A 
ENDBRANCH  18  19
ENDBRANCH   9  18
TORSDOF 3
ENDMDL
