MODEL 1
REMARK VINA RESULT:      -8.1      0.000      0.000
REMARK  Name = 
REMARK  10 active torsions:
REMARK  status: ('A' for Active; 'I' for Inactive)
REMARK    1  A    between atoms: C_1  and  O_2
REMARK    2  A    between atoms: O_2  and  C_3
REMARK    3  A    between atoms: C_5  and  C_6
REMARK    4  A    between atoms: C_8  and  C_9
REMARK    5  A    between atoms: C_13  and  O_14
REMARK    6  A    between atoms: C_18  and  C_19
REMARK    7  A    between atoms: C_22  and  O_23
REMARK    8  A    between atoms: O_23  and  C_24
REMARK    9  A    between atoms: C_25  and  O_26
REMARK   10  A    between atoms: O_26  and  C_27
REMARK                            x       y       z     vdW  Elec       q    Type
REMARK                         _______ _______ _______ _____ _____    ______ ____
ROOT
ATOM      1  C   UNL     1       5.315   4.038  17.924  0.00  0.00    +0.000 C 
ATOM      2  C   UNL     1       5.117   3.585  16.480  0.00  0.00    +0.000 C 
ATOM      3  C   UNL     1       6.208   4.374  15.802  0.00  0.00    +0.000 C 
ATOM      4  N   UNL     1       6.900   5.154  16.575  0.00  0.00    +0.000 NA
ATOM      5  N   UNL     1       6.403   5.008  17.840  0.00  0.00    +0.000 N 
ATOM      6  C   UNL     1       6.979   5.623  18.939  0.00  0.00    +0.000 C 
ATOM      7  C   UNL     1       8.082   6.617  18.663  0.00  0.00    +0.000 C 
ATOM      8  O   UNL     1       6.619   5.406  20.099  0.00  0.00    +0.000 OA
ENDROOT
BRANCH   1  11
ATOM      9  C   UNL     1       2.621   4.694  20.529  0.00  0.00    +0.000 A 
ATOM     10  C   UNL     1       3.569   4.033  19.728  0.00  0.00    +0.000 A 
ATOM     11  C   UNL     1       4.079   4.624  18.572  0.00  0.00    +0.000 A 
ATOM     12  C   UNL     1       3.522   5.829  18.150  0.00  0.00    +0.000 A 
ATOM     13  C   UNL     1       2.504   6.467  18.879  0.00  0.00    +0.000 A 
ATOM     14  C   UNL     1       2.042   5.901  20.090  0.00  0.00    +0.000 A 
BRANCH   9  16
ATOM     15  C   UNL     1       1.725   2.805  21.638  0.00  0.00    +0.000 C 
ATOM     16  O   UNL     1       2.260   4.132  21.730  0.00  0.00    +0.000 OA
ENDBRANCH   9  16
BRANCH  13  17
ATOM     17  O   UNL     1       2.122   7.637  18.271  0.00  0.00    +0.000 OA
ATOM     18  C   UNL     1       3.095   8.437  17.618  0.00  0.00    +0.000 C 
ENDBRANCH  13  17
BRANCH  14  19
ATOM     19  O   UNL     1       1.056   6.595  20.737  0.00  0.00    +0.000 OA
ATOM     20  C   UNL     1       1.310   7.877  21.285  0.00  0.00    +0.000 C 
ENDBRANCH  14  19
ENDBRANCH   1  11
BRANCH   3  21
ATOM     21  C   UNL     1       6.472   4.263  14.349  0.00  0.00    +0.000 A 
ATOM     22  C   UNL     1       7.430   5.110  13.773  0.00  0.00    +0.000 A 
ATOM     23  C   UNL     1       7.683   5.060  12.402  0.00  0.00    +0.000 A 
ATOM     24  C   UNL     1       6.980   4.165  11.597  0.00  0.00    +0.000 A 
ATOM     25  C   UNL     1       6.037   3.321  12.177  0.00  0.00    +0.000 A 
ATOM     26  C   UNL     1       5.781   3.355  13.546  0.00  0.00    +0.000 A 
BRANCH  25  27
ATOM     27  O   UNL     1       5.326   2.434  11.427  0.00  0.00    +0.000 OA
ATOM     28  H   UNL     1       5.765   2.329  10.566  0.00  0.00    +0.000 HD
ENDBRANCH  25  27
ENDBRANCH   3  21
TORSDOF 6
ENDMDL
MODEL 2
REMARK VINA RESULT:      -7.7      1.016      1.373
REMARK  Name = 
REMARK  10 active torsions:
REMARK  status: ('A' for Active; 'I' for Inactive)
REMARK    1  A    between atoms: C_1  and  O_2
REMARK    2  A    between atoms: O_2  and  C_3
REMARK    3  A    between atoms: C_5  and  C_6
REMARK    4  A    between atoms: C_8  and  C_9
REMARK    5  A    between atoms: C_13  and  O_14
REMARK    6  A    between atoms: C_18  and  C_19
REMARK    7  A    between atoms: C_22  and  O_23
REMARK    8  A    between atoms: O_23  and  C_24
REMARK    9  A    between atoms: C_25  and  O_26
REMARK   10  A    between atoms: O_26  and  C_27
REMARK                            x       y       z     vdW  Elec       q    Type
REMARK                         _______ _______ _______ _____ _____    ______ ____
ROOT
ATOM      1  C   UNL     1       5.451   4.089  17.921  0.00  0.00    +0.000 C 
ATOM      2  C   UNL     1       5.273   3.733  16.448  0.00  0.00    +0.000 C 
ATOM      3  C   UNL     1       6.366   4.572  15.837  0.00  0.00    +0.000 C 
ATOM      4  N   UNL     1       7.044   5.302  16.669  0.00  0.00    +0.000 NA
ATOM      5  N   UNL     1       6.534   5.070  17.915  0.00  0.00    +0.000 N 
ATOM      6  C   UNL     1       7.093   5.612  19.060  0.00  0.00    +0.000 C 
ATOM      7  C   UNL     1       8.193   6.629  18.864  0.00  0.00    +0.000 C 
ATOM      8  O   UNL     1       6.721   5.316  20.198  0.00  0.00    +0.000 OA
ENDROOT
BRANCH   1  11
ATOM      9  C   UNL     1       2.719   4.549  20.528  0.00  0.00    +0.000 A 
ATOM     10  C   UNL     1       3.680   3.950  19.695  0.00  0.00    +0.000 A 
ATOM     11  C   UNL     1       4.204   4.624  18.592  0.00  0.00    +0.000 A 
ATOM     12  C   UNL     1       3.648   5.855  18.250  0.00  0.00    +0.000 A 
ATOM     13  C   UNL     1       2.618   6.435  19.009  0.00  0.00    +0.000 A 
ATOM     14  C   UNL     1       2.142   5.783  20.169  0.00  0.00    +0.000 A 
BRANCH   9  16
ATOM     15  C   UNL     1       1.377   2.857  21.497  0.00  0.00    +0.000 C 
ATOM     16  O   UNL     1       2.343   3.901  21.680  0.00  0.00    +0.000 OA
ENDBRANCH   9  16
BRANCH  13  17
ATOM     17  O   UNL     1       2.241   7.645  18.481  0.00  0.00    +0.000 OA
ATOM     18  C   UNL     1       3.078   8.290  17.535  0.00  0.00    +0.000 C 
ENDBRANCH  13  17
BRANCH  14  19
ATOM     19  O   UNL     1       1.143   6.426  20.850  0.00  0.00    +0.000 OA
ATOM     20  C   UNL     1       1.285   7.782  21.235  0.00  0.00    +0.000 C 
ENDBRANCH  14  19
ENDBRANCH   1  11
BRANCH   3  21
ATOM     21  C   UNL     1       6.648   4.560  14.383  0.00  0.00    +0.000 A 
ATOM     22  C   UNL     1       6.090   3.541  13.598  0.00  0.00    +0.000 A 
ATOM     23  C   UNL     1       6.360   3.475  12.231  0.00  0.00    +0.000 A 
ATOM     24  C   UNL     1       7.190   4.426  11.640  0.00  0.00    +0.000 A 
ATOM     25  C   UNL     1       7.734   5.439  12.424  0.00  0.00    +0.000 A 
ATOM     26  C   UNL     1       7.466   5.521  13.788  0.00  0.00    +0.000 A 
BRANCH  25  27
ATOM     27  O   UNL     1       8.554   6.386  11.886  0.00  0.00    +0.000 OA
ATOM     28  H   UNL     1       8.334   7.249  12.276  0.00  0.00    +0.000 HD
ENDBRANCH  25  27
ENDBRANCH   3  21
TORSDOF 6
ENDMDL
MODEL 3
REMARK VINA RESULT:      -7.3      0.392      2.524
REMARK  Name = 
REMARK  10 active torsions:
REMARK  status: ('A' for Active; 'I' for Inactive)
REMARK    1  A    between atoms: C_1  and  O_2
REMARK    2  A    between atoms: O_2  and  C_3
REMARK    3  A    between atoms: C_5  and  C_6
REMARK    4  A    between atoms: C_8  and  C_9
REMARK    5  A    between atoms: C_13  and  O_14
REMARK    6  A    between atoms: C_18  and  C_19
REMARK    7  A    between atoms: C_22  and  O_23
REMARK    8  A    between atoms: O_23  and  C_24
REMARK    9  A    between atoms: C_25  and  O_26
REMARK   10  A    between atoms: O_26  and  C_27
REMARK                            x       y       z     vdW  Elec       q    Type
REMARK                         _______ _______ _______ _____ _____    ______ ____
ROOT
ATOM      1  C   UNL     1       5.573   4.275  18.107  0.00  0.00    +0.000 C 
ATOM      2  C   UNL     1       5.277   3.837  16.676  0.00  0.00    +0.000 C 
ATOM      3  C   UNL     1       6.391   4.542  15.946  0.00  0.00    +0.000 C 
ATOM      4  N   UNL     1       7.172   5.271  16.684  0.00  0.00    +0.000 NA
ATOM      5  N   UNL     1       6.724   5.163  17.970  0.00  0.00    +0.000 N 
ATOM      6  C   UNL     1       7.392   5.735  19.039  0.00  0.00    +0.000 C 
ATOM      7  C   UNL     1       8.552   6.646  18.709  0.00  0.00    +0.000 C 
ATOM      8  O   UNL     1       7.070   5.546  20.216  0.00  0.00    +0.000 OA
ENDROOT
BRANCH   1  11
ATOM      9  C   UNL     1       2.554   6.525  18.654  0.00  0.00    +0.000 A 
ATOM     10  C   UNL     1       3.799   6.050  18.207  0.00  0.00    +0.000 A 
ATOM     11  C   UNL     1       4.414   4.951  18.808  0.00  0.00    +0.000 A 
ATOM     12  C   UNL     1       3.830   4.419  19.956  0.00  0.00    +0.000 A 
ATOM     13  C   UNL     1       2.635   4.936  20.483  0.00  0.00    +0.000 A 
ATOM     14  C   UNL     1       1.976   6.002  19.827  0.00  0.00    +0.000 A 
BRANCH   9  16
ATOM     15  C   UNL     1       2.500   8.822  18.084  0.00  0.00    +0.000 C 
ATOM     16  O   UNL     1       1.926   7.516  17.938  0.00  0.00    +0.000 OA
ENDBRANCH   9  16
BRANCH  13  17
ATOM     17  O   UNL     1       2.256   4.248  21.609  0.00  0.00    +0.000 OA
ATOM     18  C   UNL     1       2.213   2.831  21.583  0.00  0.00    +0.000 C 
ENDBRANCH  13  17
BRANCH  14  19
ATOM     19  O   UNL     1       0.815   6.435  20.407  0.00  0.00    +0.000 OA
ATOM     20  C   UNL     1       0.799   7.589  21.229  0.00  0.00    +0.000 C 
ENDBRANCH  14  19
ENDBRANCH   1  11
BRANCH   3  21
ATOM     21  C   UNL     1       6.581   4.411  14.483  0.00  0.00    +0.000 A 
ATOM     22  C   UNL     1       7.539   5.218  13.853  0.00  0.00    +0.000 A 
ATOM     23  C   UNL     1       7.723   5.149  12.473  0.00  0.00    +0.000 A 
ATOM     24  C   UNL     1       6.951   4.274  11.711  0.00  0.00    +0.000 A 
ATOM     25  C   UNL     1       6.007   3.469  12.344  0.00  0.00    +0.000 A 
ATOM     26  C   UNL     1       5.818   3.523  13.723  0.00  0.00    +0.000 A 
BRANCH  25  27
ATOM     27  O   UNL     1       5.228   2.604  11.636  0.00  0.00    +0.000 OA
ATOM     28  H   UNL     1       5.747   1.806  11.438  0.00  0.00    +0.000 HD
ENDBRANCH  25  27
ENDBRANCH   3  21
TORSDOF 6
ENDMDL
MODEL 4
REMARK VINA RESULT:      -7.2      4.595      8.331
REMARK  Name = 
REMARK  10 active torsions:
REMARK  status: ('A' for Active; 'I' for Inactive)
REMARK    1  A    between atoms: C_1  and  O_2
REMARK    2  A    between atoms: O_2  and  C_3
REMARK    3  A    between atoms: C_5  and  C_6
REMARK    4  A    between atoms: C_8  and  C_9
REMARK    5  A    between atoms: C_13  and  O_14
REMARK    6  A    between atoms: C_18  and  C_19
REMARK    7  A    between atoms: C_22  and  O_23
REMARK    8  A    between atoms: O_23  and  C_24
REMARK    9  A    between atoms: C_25  and  O_26
REMARK   10  A    between atoms: O_26  and  C_27
REMARK                            x       y       z     vdW  Elec       q    Type
REMARK                         _______ _______ _______ _____ _____    ______ ____
ROOT
ATOM      1  C   UNL     1       1.371   9.472  19.269  0.00  0.00    +0.000 C 
ATOM      2  C   UNL     1       0.540   9.795  18.031  0.00  0.00    +0.000 C 
ATOM      3  C   UNL     1      -0.811  10.008  18.665  0.00  0.00    +0.000 C 
ATOM      4  N   UNL     1      -0.860   9.835  19.951  0.00  0.00    +0.000 NA
ATOM      5  N   UNL     1       0.399   9.499  20.359  0.00  0.00    +0.000 N 
ATOM      6  C   UNL     1       0.730   9.340  21.694  0.00  0.00    +0.000 C 
ATOM      7  C   UNL     1      -0.409   9.377  22.686  0.00  0.00    +0.000 C 
ATOM      8  O   UNL     1       1.885   9.158  22.087  0.00  0.00    +0.000 OA
ENDROOT
BRANCH   1  11
ATOM      9  C   UNL     1       2.248   5.831  19.941  0.00  0.00    +0.000 A 
ATOM     10  C   UNL     1       1.819   7.156  20.131  0.00  0.00    +0.000 A 
ATOM     11  C   UNL     1       2.112   8.153  19.200  0.00  0.00    +0.000 A 
ATOM     12  C   UNL     1       2.962   7.835  18.143  0.00  0.00    +0.000 A 
ATOM     13  C   UNL     1       3.485   6.541  17.980  0.00  0.00    +0.000 A 
ATOM     14  C   UNL     1       3.126   5.516  18.885  0.00  0.00    +0.000 A 
BRANCH   9  16
ATOM     15  C   UNL     1       0.867   3.935  20.257  0.00  0.00    +0.000 C 
ATOM     16  O   UNL     1       1.812   4.861  20.811  0.00  0.00    +0.000 OA
ENDBRANCH   9  16
BRANCH  13  17
ATOM     17  O   UNL     1       4.288   6.472  16.869  0.00  0.00    +0.000 OA
ATOM     18  C   UNL     1       5.668   6.784  16.980  0.00  0.00    +0.000 C 
ENDBRANCH  13  17
BRANCH  14  19
ATOM     19  O   UNL     1       3.676   4.286  18.643  0.00  0.00    +0.000 OA
ATOM     20  C   UNL     1       4.888   3.898  19.267  0.00  0.00    +0.000 C 
ENDBRANCH  14  19
ENDBRANCH   1  11
BRANCH   3  21
ATOM     21  C   UNL     1      -2.001  10.393  17.872  0.00  0.00    +0.000 A 
ATOM     22  C   UNL     1      -2.149   9.865  16.581  0.00  0.00    +0.000 A 
ATOM     23  C   UNL     1      -3.238  10.229  15.790  0.00  0.00    +0.000 A 
ATOM     24  C   UNL     1      -4.186  11.125  16.282  0.00  0.00    +0.000 A 
ATOM     25  C   UNL     1      -4.037  11.639  17.567  0.00  0.00    +0.000 A 
ATOM     26  C   UNL     1      -2.959  11.277  18.371  0.00  0.00    +0.000 A 
BRANCH  25  27
ATOM     27  O   UNL     1      -4.938  12.520  18.084  0.00  0.00    +0.000 OA
ATOM     28  H   UNL     1      -5.347  13.015  17.354  0.00  0.00    +0.000 HD
ENDBRANCH  25  27
ENDBRANCH   3  21
TORSDOF 6
ENDMDL
MODEL 5
REMARK VINA RESULT:      -7.1      6.005      9.252
REMARK  Name = 
REMARK  10 active torsions:
REMARK  status: ('A' for Active; 'I' for Inactive)
REMARK    1  A    between atoms: C_1  and  O_2
REMARK    2  A    between atoms: O_2  and  C_3
REMARK    3  A    between atoms: C_5  and  C_6
REMARK    4  A    between atoms: C_8  and  C_9
REMARK    5  A    between atoms: C_13  and  O_14
REMARK    6  A    between atoms: C_18  and  C_19
REMARK    7  A    between atoms: C_22  and  O_23
REMARK    8  A    between atoms: O_23  and  C_24
REMARK    9  A    between atoms: C_25  and  O_26
REMARK   10  A    between atoms: O_26  and  C_27
REMARK                            x       y       z     vdW  Elec       q    Type
REMARK                         _______ _______ _______ _____ _____    ______ ____
ROOT
ATOM      1  C   UNL     1      -0.572  11.381  19.974  0.00  0.00    +0.000 C 
ATOM      2  C   UNL     1      -0.271   9.888  20.051  0.00  0.00    +0.000 C 
ATOM      3  C   UNL     1       1.038   9.840  19.304  0.00  0.00    +0.000 C 
ATOM      4  N   UNL     1       1.457  10.975  18.835  0.00  0.00    +0.000 NA
ATOM      5  N   UNL     1       0.535  11.920  19.187  0.00  0.00    +0.000 N 
ATOM      6  C   UNL     1       0.719  13.269  18.933  0.00  0.00    +0.000 C 
ATOM      7  C   UNL     1       1.909  13.645  18.082  0.00  0.00    +0.000 C 
ATOM      8  O   UNL     1      -0.044  14.145  19.350  0.00  0.00    +0.000 OA
ENDROOT
BRANCH   1  11
ATOM      9  C   UNL     1      -3.576  11.235  17.645  0.00  0.00    +0.000 A 
ATOM     10  C   UNL     1      -2.253  11.203  18.117  0.00  0.00    +0.000 A 
ATOM     11  C   UNL     1      -1.918  11.719  19.369  0.00  0.00    +0.000 A 
ATOM     12  C   UNL     1      -2.903  12.395  20.085  0.00  0.00    +0.000 A 
ATOM     13  C   UNL     1      -4.213  12.527  19.594  0.00  0.00    +0.000 A 
ATOM     14  C   UNL     1      -4.566  11.938  18.358  0.00  0.00    +0.000 A 
BRANCH   9  16
ATOM     15  C   UNL     1      -2.790  10.486  15.541  0.00  0.00    +0.000 C 
ATOM     16  O   UNL     1      -3.877  10.586  16.471  0.00  0.00    +0.000 OA
ENDBRANCH   9  16
BRANCH  13  17
ATOM     17  O   UNL     1      -5.000  13.226  20.476  0.00  0.00    +0.000 OA
ATOM     18  C   UNL     1      -5.496  12.580  21.637  0.00  0.00    +0.000 C 
ENDBRANCH  13  17
BRANCH  14  19
ATOM     19  O   UNL     1      -5.865  12.110  17.964  0.00  0.00    +0.000 OA
ATOM     20  C   UNL     1      -6.859  11.158  18.301  0.00  0.00    +0.000 C 
ENDBRANCH  14  19
ENDBRANCH   1  11
BRANCH   3  21
ATOM     21  C   UNL     1       1.794   8.581  19.121  0.00  0.00    +0.000 A 
ATOM     22  C   UNL     1       2.467   8.370  17.908  0.00  0.00    +0.000 A 
ATOM     23  C   UNL     1       3.162   7.181  17.684  0.00  0.00    +0.000 A 
ATOM     24  C   UNL     1       3.189   6.195  18.668  0.00  0.00    +0.000 A 
ATOM     25  C   UNL     1       2.526   6.415  19.873  0.00  0.00    +0.000 A 
ATOM     26  C   UNL     1       1.835   7.600  20.113  0.00  0.00    +0.000 A 
BRANCH  25  27
ATOM     27  O   UNL     1       2.524   5.475  20.860  0.00  0.00    +0.000 OA
ATOM     28  H   UNL     1       3.425   5.123  20.959  0.00  0.00    +0.000 HD
ENDBRANCH  25  27
ENDBRANCH   3  21
TORSDOF 6
ENDMDL
MODEL 6
REMARK VINA RESULT:      -7.1      4.489      8.076
REMARK  Name = 
REMARK  10 active torsions:
REMARK  status: ('A' for Active; 'I' for Inactive)
REMARK    1  A    between atoms: C_1  and  O_2
REMARK    2  A    between atoms: O_2  and  C_3
REMARK    3  A    between atoms: C_5  and  C_6
REMARK    4  A    between atoms: C_8  and  C_9
REMARK    5  A    between atoms: C_13  and  O_14
REMARK    6  A    between atoms: C_18  and  C_19
REMARK    7  A    between atoms: C_22  and  O_23
REMARK    8  A    between atoms: O_23  and  C_24
REMARK    9  A    between atoms: C_25  and  O_26
REMARK   10  A    between atoms: O_26  and  C_27
REMARK                            x       y       z     vdW  Elec       q    Type
REMARK                         _______ _______ _______ _____ _____    ______ ____
ROOT
ATOM      1  C   UNL     1       1.401   9.464  19.254  0.00  0.00    +0.000 C 
ATOM      2  C   UNL     1       0.589   9.804  18.008  0.00  0.00    +0.000 C 
ATOM      3  C   UNL     1      -0.768  10.027  18.627  0.00  0.00    +0.000 C 
ATOM      4  N   UNL     1      -0.835   9.845  19.910  0.00  0.00    +0.000 NA
ATOM      5  N   UNL     1       0.416   9.493  20.332  0.00  0.00    +0.000 N 
ATOM      6  C   UNL     1       0.728   9.322  21.670  0.00  0.00    +0.000 C 
ATOM      7  C   UNL     1      -0.423   9.364  22.648  0.00  0.00    +0.000 C 
ATOM      8  O   UNL     1       1.876   9.125  22.076  0.00  0.00    +0.000 OA
ENDROOT
BRANCH   1  11
ATOM      9  C   UNL     1       2.254   5.820  19.940  0.00  0.00    +0.000 A 
ATOM     10  C   UNL     1       1.839   7.150  20.126  0.00  0.00    +0.000 A 
ATOM     11  C   UNL     1       2.129   8.138  19.185  0.00  0.00    +0.000 A 
ATOM     12  C   UNL     1       2.964   7.805  18.120  0.00  0.00    +0.000 A 
ATOM     13  C   UNL     1       3.474   6.506  17.961  0.00  0.00    +0.000 A 
ATOM     14  C   UNL     1       3.116   5.490  18.876  0.00  0.00    +0.000 A 
BRANCH   9  16
ATOM     15  C   UNL     1       0.840   3.955  20.293  0.00  0.00    +0.000 C 
ATOM     16  O   UNL     1       1.819   4.860  20.822  0.00  0.00    +0.000 OA
ENDBRANCH   9  16
BRANCH  13  17
ATOM     17  O   UNL     1       4.263   6.422  16.840  0.00  0.00    +0.000 OA
ATOM     18  C   UNL     1       5.635   6.771  16.922  0.00  0.00    +0.000 C 
ENDBRANCH  13  17
BRANCH  14  19
ATOM     19  O   UNL     1       3.652   4.253  18.637  0.00  0.00    +0.000 OA
ATOM     20  C   UNL     1       4.878   3.866  19.233  0.00  0.00    +0.000 C 
ENDBRANCH  14  19
ENDBRANCH   1  11
BRANCH   3  21
ATOM     21  C   UNL     1      -1.944  10.428  17.822  0.00  0.00    +0.000 A 
ATOM     22  C   UNL     1      -2.938  11.211  18.426  0.00  0.00    +0.000 A 
ATOM     23  C   UNL     1      -4.077  11.581  17.712  0.00  0.00    +0.000 A 
ATOM     24  C   UNL     1      -4.232  11.171  16.389  0.00  0.00    +0.000 A 
ATOM     25  C   UNL     1      -3.238  10.401  15.792  0.00  0.00    +0.000 A 
ATOM     26  C   UNL     1      -2.091  10.031  16.492  0.00  0.00    +0.000 A 
BRANCH  25  27
ATOM     27  O   UNL     1      -3.352   9.975  14.503  0.00  0.00    +0.000 OA
ATOM     28  H   UNL     1      -2.538   9.505  14.255  0.00  0.00    +0.000 HD
ENDBRANCH  25  27
ENDBRANCH   3  21
TORSDOF 6
ENDMDL
MODEL 7
REMARK VINA RESULT:      -7.1      4.484      8.512
REMARK  Name = 
REMARK  10 active torsions:
REMARK  status: ('A' for Active; 'I' for Inactive)
REMARK    1  A    between atoms: C_1  and  O_2
REMARK    2  A    between atoms: O_2  and  C_3
REMARK    3  A    between atoms: C_5  and  C_6
REMARK    4  A    between atoms: C_8  and  C_9
REMARK    5  A    between atoms: C_13  and  O_14
REMARK    6  A    between atoms: C_18  and  C_19
REMARK    7  A    between atoms: C_22  and  O_23
REMARK    8  A    between atoms: O_23  and  C_24
REMARK    9  A    between atoms: C_25  and  O_26
REMARK   10  A    between atoms: O_26  and  C_27
REMARK                            x       y       z     vdW  Elec       q    Type
REMARK                         _______ _______ _______ _____ _____    ______ ____
ROOT
ATOM      1  C   UNL     1       1.466   9.216  19.133  0.00  0.00    +0.000 C 
ATOM      2  C   UNL     1       0.612   9.557  17.916  0.00  0.00    +0.000 C 
ATOM      3  C   UNL     1      -0.696   9.885  18.590  0.00  0.00    +0.000 C 
ATOM      4  N   UNL     1      -0.707   9.756  19.882  0.00  0.00    +0.000 NA
ATOM      5  N   UNL     1       0.541   9.346  20.256  0.00  0.00    +0.000 N 
ATOM      6  C   UNL     1       0.910   9.207  21.583  0.00  0.00    +0.000 C 
ATOM      7  C   UNL     1      -0.184   9.355  22.614  0.00  0.00    +0.000 C 
ATOM      8  O   UNL     1       2.065   8.956  21.939  0.00  0.00    +0.000 OA
ENDROOT
BRANCH   1  11
ATOM      9  C   UNL     1       4.009   6.495  18.357  0.00  0.00    +0.000 A 
ATOM     10  C   UNL     1       3.196   7.634  18.232  0.00  0.00    +0.000 A 
ATOM     11  C   UNL     1       2.110   7.847  19.082  0.00  0.00    +0.000 A 
ATOM     12  C   UNL     1       1.765   6.832  19.972  0.00  0.00    +0.000 A 
ATOM     13  C   UNL     1       2.503   5.639  20.053  0.00  0.00    +0.000 A 
ATOM     14  C   UNL     1       3.646   5.459  19.241  0.00  0.00    +0.000 A 
BRANCH   9  16
ATOM     15  C   UNL     1       4.943   6.586  16.184  0.00  0.00    +0.000 C 
ATOM     16  O   UNL     1       5.147   6.405  17.592  0.00  0.00    +0.000 OA
ENDBRANCH   9  16
BRANCH  13  17
ATOM     17  O   UNL     1       1.975   4.798  21.002  0.00  0.00    +0.000 OA
ATOM     18  C   UNL     1       1.045   3.800  20.615  0.00  0.00    +0.000 C 
ENDBRANCH  13  17
BRANCH  14  19
ATOM     19  O   UNL     1       4.308   4.271  19.394  0.00  0.00    +0.000 OA
ATOM     20  C   UNL     1       4.051   3.181  18.526  0.00  0.00    +0.000 C 
ENDBRANCH  14  19
ENDBRANCH   1  11
BRANCH   3  21
ATOM     21  C   UNL     1      -1.886  10.326  17.828  0.00  0.00    +0.000 A 
ATOM     22  C   UNL     1      -2.056   9.860  16.517  0.00  0.00    +0.000 A 
ATOM     23  C   UNL     1      -3.146  10.280  15.754  0.00  0.00    +0.000 A 
ATOM     24  C   UNL     1      -4.072  11.170  16.295  0.00  0.00    +0.000 A 
ATOM     25  C   UNL     1      -3.901  11.623  17.601  0.00  0.00    +0.000 A 
ATOM     26  C   UNL     1      -2.822  11.205  18.376  0.00  0.00    +0.000 A 
BRANCH  25  27
ATOM     27  O   UNL     1      -4.780  12.496  18.166  0.00  0.00    +0.000 OA
ATOM     28  H   UNL     1      -5.536  11.997  18.518  0.00  0.00    +0.000 HD
ENDBRANCH  25  27
ENDBRANCH   3  21
TORSDOF 6
ENDMDL
MODEL 8
REMARK VINA RESULT:      -7.0      4.431      8.316
REMARK  Name = 
REMARK  10 active torsions:
REMARK  status: ('A' for Active; 'I' for Inactive)
REMARK    1  A    between atoms: C_1  and  O_2
REMARK    2  A    between atoms: O_2  and  C_3
REMARK    3  A    between atoms: C_5  and  C_6
REMARK    4  A    between atoms: C_8  and  C_9
REMARK    5  A    between atoms: C_13  and  O_14
REMARK    6  A    between atoms: C_18  and  C_19
REMARK    7  A    between atoms: C_22  and  O_23
REMARK    8  A    between atoms: O_23  and  C_24
REMARK    9  A    between atoms: C_25  and  O_26
REMARK   10  A    between atoms: O_26  and  C_27
REMARK                            x       y       z     vdW  Elec       q    Type
REMARK                         _______ _______ _______ _____ _____    ______ ____
ROOT
ATOM      1  C   UNL     1       1.443   9.301  19.084  0.00  0.00    +0.000 C 
ATOM      2  C   UNL     1       0.593   9.656  17.868  0.00  0.00    +0.000 C 
ATOM      3  C   UNL     1      -0.723   9.952  18.540  0.00  0.00    +0.000 C 
ATOM      4  N   UNL     1      -0.743   9.795  19.828  0.00  0.00    +0.000 NA
ATOM      5  N   UNL     1       0.508   9.394  20.203  0.00  0.00    +0.000 N 
ATOM      6  C   UNL     1       0.870   9.232  21.530  0.00  0.00    +0.000 C 
ATOM      7  C   UNL     1      -0.233   9.343  22.555  0.00  0.00    +0.000 C 
ATOM      8  O   UNL     1       2.026   8.989  21.889  0.00  0.00    +0.000 OA
ENDROOT
BRANCH   1  11
ATOM      9  C   UNL     1       4.023   6.630  18.259  0.00  0.00    +0.000 A 
ATOM     10  C   UNL     1       3.194   7.759  18.154  0.00  0.00    +0.000 A 
ATOM     11  C   UNL     1       2.106   7.942  19.009  0.00  0.00    +0.000 A 
ATOM     12  C   UNL     1       1.776   6.907  19.882  0.00  0.00    +0.000 A 
ATOM     13  C   UNL     1       2.531   5.723  19.941  0.00  0.00    +0.000 A 
ATOM     14  C   UNL     1       3.676   5.574  19.125  0.00  0.00    +0.000 A 
BRANCH   9  16
ATOM     15  C   UNL     1       4.969   6.051  16.168  0.00  0.00    +0.000 C 
ATOM     16  O   UNL     1       5.161   6.569  17.492  0.00  0.00    +0.000 OA
ENDBRANCH   9  16
BRANCH  13  17
ATOM     17  O   UNL     1       2.016   4.859  20.875  0.00  0.00    +0.000 OA
ATOM     18  C   UNL     1       1.000   3.943  20.498  0.00  0.00    +0.000 C 
ENDBRANCH  13  17
BRANCH  14  19
ATOM     19  O   UNL     1       4.353   4.392  19.256  0.00  0.00    +0.000 OA
ATOM     20  C   UNL     1       4.024   3.273  18.452  0.00  0.00    +0.000 C 
ENDBRANCH  14  19
ENDBRANCH   1  11
BRANCH   3  21
ATOM     21  C   UNL     1      -1.914  10.394  17.779  0.00  0.00    +0.000 A 
ATOM     22  C   UNL     1      -2.873  11.186  18.428  0.00  0.00    +0.000 A 
ATOM     23  C   UNL     1      -4.025  11.593  17.756  0.00  0.00    +0.000 A 
ATOM     24  C   UNL     1      -4.228  11.211  16.431  0.00  0.00    +0.000 A 
ATOM     25  C   UNL     1      -3.269  10.432  15.790  0.00  0.00    +0.000 A 
ATOM     26  C   UNL     1      -2.111  10.025  16.447  0.00  0.00    +0.000 A 
BRANCH  25  27
ATOM     27  O   UNL     1      -3.431  10.033  14.497  0.00  0.00    +0.000 OA
ATOM     28  H   UNL     1      -4.238  10.443  14.141  0.00  0.00    +0.000 HD
ENDBRANCH  25  27
ENDBRANCH   3  21
TORSDOF 6
ENDMDL
MODEL 9
REMARK VINA RESULT:      -6.9      5.635      8.632
REMARK  Name = 
REMARK  10 active torsions:
REMARK  status: ('A' for Active; 'I' for Inactive)
REMARK    1  A    between atoms: C_1  and  O_2
REMARK    2  A    between atoms: O_2  and  C_3
REMARK    3  A    between atoms: C_5  and  C_6
REMARK    4  A    between atoms: C_8  and  C_9
REMARK    5  A    between atoms: C_13  and  O_14
REMARK    6  A    between atoms: C_18  and  C_19
REMARK    7  A    between atoms: C_22  and  O_23
REMARK    8  A    between atoms: O_23  and  C_24
REMARK    9  A    between atoms: C_25  and  O_26
REMARK   10  A    between atoms: O_26  and  C_27
REMARK                            x       y       z     vdW  Elec       q    Type
REMARK                         _______ _______ _______ _____ _____    ______ ____
ROOT
ATOM      1  C   UNL     1      -0.112  10.945  19.763  0.00  0.00    +0.000 C 
ATOM      2  C   UNL     1       0.174   9.448  19.802  0.00  0.00    +0.000 C 
ATOM      3  C   UNL     1       1.491   9.409  19.069  0.00  0.00    +0.000 C 
ATOM      4  N   UNL     1       1.925  10.553  18.635  0.00  0.00    +0.000 NA
ATOM      5  N   UNL     1       1.008  11.496  19.003  0.00  0.00    +0.000 N 
ATOM      6  C   UNL     1       1.207  12.849  18.789  0.00  0.00    +0.000 C 
ATOM      7  C   UNL     1       2.409  13.238  17.962  0.00  0.00    +0.000 C 
ATOM      8  O   UNL     1       0.447  13.720  19.223  0.00  0.00    +0.000 OA
ENDROOT
BRANCH   1  11
ATOM      9  C   UNL     1      -3.153  10.806  17.482  0.00  0.00    +0.000 A 
ATOM     10  C   UNL     1      -1.826  10.738  17.940  0.00  0.00    +0.000 A 
ATOM     11  C   UNL     1      -1.448  11.313  19.154  0.00  0.00    +0.000 A 
ATOM     12  C   UNL     1      -2.389  12.081  19.837  0.00  0.00    +0.000 A 
ATOM     13  C   UNL     1      -3.697  12.248  19.353  0.00  0.00    +0.000 A 
ATOM     14  C   UNL     1      -4.097  11.602  18.161  0.00  0.00    +0.000 A 
BRANCH   9  16
ATOM     15  C   UNL     1      -3.052  10.676  15.120  0.00  0.00    +0.000 C 
ATOM     16  O   UNL     1      -3.503  10.102  16.355  0.00  0.00    +0.000 OA
ENDBRANCH   9  16
BRANCH  13  17
ATOM     17  O   UNL     1      -4.436  13.039  20.198  0.00  0.00    +0.000 OA
ATOM     18  C   UNL     1      -4.443  12.763  21.589  0.00  0.00    +0.000 C 
ENDBRANCH  13  17
BRANCH  14  19
ATOM     19  O   UNL     1      -5.392  11.814  17.771  0.00  0.00    +0.000 OA
ATOM     20  C   UNL     1      -6.445  11.023  18.291  0.00  0.00    +0.000 C 
ENDBRANCH  14  19
ENDBRANCH   1  11
BRANCH   3  21
ATOM     21  C   UNL     1       2.238   8.148  18.859  0.00  0.00    +0.000 A 
ATOM     22  C   UNL     1       2.155   7.145  19.836  0.00  0.00    +0.000 A 
ATOM     23  C   UNL     1       2.871   5.957  19.692  0.00  0.00    +0.000 A 
ATOM     24  C   UNL     1       3.677   5.763  18.571  0.00  0.00    +0.000 A 
ATOM     25  C   UNL     1       3.748   6.759  17.601  0.00  0.00    +0.000 A 
ATOM     26  C   UNL     1       3.032   7.946  17.729  0.00  0.00    +0.000 A 
BRANCH  25  27
ATOM     27  O   UNL     1       4.527   6.611  16.493  0.00  0.00    +0.000 OA
ATOM     28  H   UNL     1       5.261   7.247  16.538  0.00  0.00    +0.000 HD
ENDBRANCH  25  27
ENDBRANCH   3  21
TORSDOF 6
ENDMDL
