MODEL 1
REMARK VINA RESULT:      -8.1      0.000      0.000
REMARK  Name = 
REMARK  3 active torsions:
REMARK  status: ('A' for Active; 'I' for Inactive)
REMARK    1  A    between atoms: C_2  and  C_3
REMARK    2  A    between atoms: C_12  and  C_13
REMARK    3  A    between atoms: C_21  and  C_22
REMARK                            x       y       z     vdW  Elec       q    Type
REMARK                         _______ _______ _______ _____ _____    ______ ____
ROOT
ATOM      1  O   UNL     1       5.543   3.410  19.136  0.00  0.00    +0.000 OA
ATOM      2  C   UNL     1       4.444   3.954  19.176  0.00  0.00    +0.000 C 
ATOM      3  N   UNL     1       4.193   5.212  18.629  0.00  0.00    +0.000 N 
ATOM      4  N   UNL     1       3.039   5.917  18.860  0.00  0.00    +0.000 NA
ATOM      5  C   UNL     1       3.252   7.134  18.470  0.00  0.00    +0.000 C 
ATOM      6  C   UNL     1       4.584   7.383  17.817  0.00  0.00    +0.000 C 
ATOM      7  C   UNL     1       5.211   5.995  17.930  0.00  0.00    +0.000 C 
ENDROOT
BRANCH   2   8
ATOM      8  C   UNL     1       3.320   3.270  19.854  0.00  0.00    +0.000 A 
ATOM      9  C   UNL     1       3.113   3.429  21.230  0.00  0.00    +0.000 A 
ATOM     10  C   UNL     1       1.987   2.879  21.833  0.00  0.00    +0.000 A 
ATOM     11  C   UNL     1       1.127   2.135  21.047  0.00  0.00    +0.000 A 
ATOM     12  N   UNL     1       1.326   1.904  19.731  0.00  0.00    +0.000 NA
ATOM     13  C   UNL     1       2.421   2.475  19.161  0.00  0.00    +0.000 A 
ATOM     14 CL   UNL     1       2.515   2.140  17.475  0.00  0.00    +0.000 Cl
ENDBRANCH   2   8
BRANCH   5  15
ATOM     15  C   UNL     1       2.258   8.215  18.658  0.00  0.00    +0.000 A 
ATOM     16  C   UNL     1       1.967   9.109  17.624  0.00  0.00    +0.000 A 
ATOM     17  C   UNL     1       1.053  10.145  17.834  0.00  0.00    +0.000 A 
ATOM     18  C   UNL     1       0.427  10.282  19.072  0.00  0.00    +0.000 A 
ATOM     19 CL   UNL     1      -0.707  11.550  19.317  0.00  0.00    +0.000 Cl
ATOM     20  C   UNL     1       0.720   9.400  20.111  0.00  0.00    +0.000 A 
ATOM     21  C   UNL     1       1.642   8.370  19.908  0.00  0.00    +0.000 A 
ENDBRANCH   5  15
BRANCH   7  22
ATOM     22  C   UNL     1       5.562   5.406  16.576  0.00  0.00    +0.000 A 
ATOM     23  C   UNL     1       6.869   5.532  16.078  0.00  0.00    +0.000 A 
ATOM     24  C   UNL     1       7.212   4.986  14.840  0.00  0.00    +0.000 A 
ATOM     25  C   UNL     1       6.253   4.311  14.091  0.00  0.00    +0.000 A 
ATOM     26 BR   UNL     1       6.719   3.570  12.416  0.00  0.00    +0.000 Br
ATOM     27  C   UNL     1       4.952   4.174  14.569  0.00  0.00    +0.000 A 
ATOM     28  C   UNL     1       4.609   4.716  15.809  0.00  0.00    +0.000 A 
ENDBRANCH   7  22
TORSDOF 3
ENDMDL
MODEL 2
REMARK VINA RESULT:      -7.3      6.225     10.796
REMARK  Name = 
REMARK  3 active torsions:
REMARK  status: ('A' for Active; 'I' for Inactive)
REMARK    1  A    between atoms: C_2  and  C_3
REMARK    2  A    between atoms: C_12  and  C_13
REMARK    3  A    between atoms: C_21  and  C_22
REMARK                            x       y       z     vdW  Elec       q    Type
REMARK                         _______ _______ _______ _____ _____    ______ ____
ROOT
ATOM      1  O   UNL     1       0.286  14.420  22.527  0.00  0.00    +0.000 OA
ATOM      2  C   UNL     1       0.728  13.758  21.592  0.00  0.00    +0.000 C 
ATOM      3  N   UNL     1       0.376  12.428  21.364  0.00  0.00    +0.000 N 
ATOM      4  N   UNL     1       1.025  11.621  20.463  0.00  0.00    +0.000 NA
ATOM      5  C   UNL     1       0.662  10.403  20.714  0.00  0.00    +0.000 C 
ATOM      6  C   UNL     1      -0.384  10.243  21.783  0.00  0.00    +0.000 C 
ATOM      7  C   UNL     1      -0.575  11.699  22.202  0.00  0.00    +0.000 C 
ENDROOT
BRANCH   2   8
ATOM      8  C   UNL     1       1.700  14.374  20.662  0.00  0.00    +0.000 A 
ATOM      9  C   UNL     1       3.068  14.388  20.965  0.00  0.00    +0.000 A 
ATOM     10  C   UNL     1       3.982  14.862  20.030  0.00  0.00    +0.000 A 
ATOM     11  C   UNL     1       3.494  15.363  18.838  0.00  0.00    +0.000 A 
ATOM     12  N   UNL     1       2.179  15.428  18.536  0.00  0.00    +0.000 NA
ATOM     13  C   UNL     1       1.308  14.934  19.456  0.00  0.00    +0.000 A 
ATOM     14 CL   UNL     1      -0.323  15.034  18.913  0.00  0.00    +0.000 Cl
ENDBRANCH   2   8
BRANCH   5  15
ATOM     15  C   UNL     1       1.241   9.240  20.005  0.00  0.00    +0.000 A 
ATOM     16  C   UNL     1       1.561   8.067  20.694  0.00  0.00    +0.000 A 
ATOM     17  C   UNL     1       2.141   6.993  20.012  0.00  0.00    +0.000 A 
ATOM     18  C   UNL     1       2.393   7.090  18.645  0.00  0.00    +0.000 A 
ATOM     19 CL   UNL     1       3.093   5.759  17.811  0.00  0.00    +0.000 Cl
ATOM     20  C   UNL     1       2.086   8.261  17.953  0.00  0.00    +0.000 A 
ATOM     21  C   UNL     1       1.518   9.341  18.634  0.00  0.00    +0.000 A 
ENDBRANCH   5  15
BRANCH   7  22
ATOM     22  C   UNL     1      -2.001  12.176  22.005  0.00  0.00    +0.000 A 
ATOM     23  C   UNL     1      -2.839  12.352  23.119  0.00  0.00    +0.000 A 
ATOM     24  C   UNL     1      -4.151  12.801  22.956  0.00  0.00    +0.000 A 
ATOM     25  C   UNL     1      -4.635  13.078  21.681  0.00  0.00    +0.000 A 
ATOM     26 BR   UNL     1      -6.410  13.689  21.461  0.00  0.00    +0.000 Br
ATOM     27  C   UNL     1      -3.818  12.912  20.565  0.00  0.00    +0.000 A 
ATOM     28  C   UNL     1      -2.506  12.467  20.727  0.00  0.00    +0.000 A 
ENDBRANCH   7  22
TORSDOF 3
ENDMDL
MODEL 3
REMARK VINA RESULT:      -7.2      5.826      9.081
REMARK  Name = 
REMARK  3 active torsions:
REMARK  status: ('A' for Active; 'I' for Inactive)
REMARK    1  A    between atoms: C_2  and  C_3
REMARK    2  A    between atoms: C_12  and  C_13
REMARK    3  A    between atoms: C_21  and  C_22
REMARK                            x       y       z     vdW  Elec       q    Type
REMARK                         _______ _______ _______ _____ _____    ______ ____
ROOT
ATOM      1  O   UNL     1       2.484  12.585  18.174  0.00  0.00    +0.000 OA
ATOM      2  C   UNL     1       1.870  12.883  19.195  0.00  0.00    +0.000 C 
ATOM      3  N   UNL     1       0.694  12.248  19.592  0.00  0.00    +0.000 N 
ATOM      4  N   UNL     1      -0.111  12.715  20.601  0.00  0.00    +0.000 NA
ATOM      5  C   UNL     1      -1.239  12.086  20.509  0.00  0.00    +0.000 C 
ATOM      6  C   UNL     1      -1.302  11.014  19.456  0.00  0.00    +0.000 C 
ATOM      7  C   UNL     1       0.091  11.145  18.845  0.00  0.00    +0.000 C 
ENDROOT
BRANCH   2   8
ATOM      8  C   UNL     1       2.371  13.983  20.048  0.00  0.00    +0.000 A 
ATOM      9  C   UNL     1       3.281  13.727  21.082  0.00  0.00    +0.000 A 
ATOM     10  C   UNL     1       3.836  14.782  21.798  0.00  0.00    +0.000 A 
ATOM     11  C   UNL     1       3.420  16.065  21.494  0.00  0.00    +0.000 A 
ATOM     12  N   UNL     1       2.497  16.348  20.550  0.00  0.00    +0.000 NA
ATOM     13  C   UNL     1       1.990  15.300  19.846  0.00  0.00    +0.000 A 
ATOM     14 CL   UNL     1       0.870  15.817  18.645  0.00  0.00    +0.000 Cl
ENDBRANCH   2   8
BRANCH   5  15
ATOM     15  C   UNL     1      -2.398  12.403  21.374  0.00  0.00    +0.000 A 
ATOM     16  C   UNL     1      -2.327  12.226  22.759  0.00  0.00    +0.000 A 
ATOM     17  C   UNL     1      -3.445  12.495  23.555  0.00  0.00    +0.000 A 
ATOM     18  C   UNL     1      -4.626  12.946  22.967  0.00  0.00    +0.000 A 
ATOM     19 CL   UNL     1      -5.991  13.289  23.955  0.00  0.00    +0.000 Cl
ATOM     20  C   UNL     1      -4.707  13.114  21.586  0.00  0.00    +0.000 A 
ATOM     21  C   UNL     1      -3.596  12.835  20.786  0.00  0.00    +0.000 A 
ENDBRANCH   5  15
BRANCH   7  22
ATOM     22  C   UNL     1       0.896   9.864  18.957  0.00  0.00    +0.000 A 
ATOM     23  C   UNL     1       0.982   9.199  20.191  0.00  0.00    +0.000 A 
ATOM     24  C   UNL     1       1.709   8.013  20.309  0.00  0.00    +0.000 A 
ATOM     25  C   UNL     1       2.355   7.483  19.197  0.00  0.00    +0.000 A 
ATOM     26 BR   UNL     1       3.336   5.876  19.356  0.00  0.00    +0.000 Br
ATOM     27  C   UNL     1       2.279   8.127  17.964  0.00  0.00    +0.000 A 
ATOM     28  C   UNL     1       1.549   9.310  17.843  0.00  0.00    +0.000 A 
ENDBRANCH   7  22
TORSDOF 3
ENDMDL
MODEL 4
REMARK VINA RESULT:      -7.2      5.997      9.544
REMARK  Name = 
REMARK  3 active torsions:
REMARK  status: ('A' for Active; 'I' for Inactive)
REMARK    1  A    between atoms: C_2  and  C_3
REMARK    2  A    between atoms: C_12  and  C_13
REMARK    3  A    between atoms: C_21  and  C_22
REMARK                            x       y       z     vdW  Elec       q    Type
REMARK                         _______ _______ _______ _____ _____    ______ ____
ROOT
ATOM      1  O   UNL     1      -1.481  10.149  18.817  0.00  0.00    +0.000 OA
ATOM      2  C   UNL     1      -0.304  10.435  19.017  0.00  0.00    +0.000 C 
ATOM      3  N   UNL     1       0.130  11.728  19.305  0.00  0.00    +0.000 N 
ATOM      4  N   UNL     1       1.453  12.095  19.312  0.00  0.00    +0.000 NA
ATOM      5  C   UNL     1       1.488  13.390  19.312  0.00  0.00    +0.000 C 
ATOM      6  C   UNL     1       0.154  14.077  19.408  0.00  0.00    +0.000 C 
ATOM      7  C   UNL     1      -0.779  12.867  19.423  0.00  0.00    +0.000 C 
ENDROOT
BRANCH   2   8
ATOM      8  C   UNL     1       0.725   9.375  18.932  0.00  0.00    +0.000 A 
ATOM      9  C   UNL     1       1.407   9.137  17.731  0.00  0.00    +0.000 A 
ATOM     10  C   UNL     1       2.453   8.221  17.695  0.00  0.00    +0.000 A 
ATOM     11  C   UNL     1       2.749   7.526  18.853  0.00  0.00    +0.000 A 
ATOM     12  N   UNL     1       2.073   7.679  20.012  0.00  0.00    +0.000 NA
ATOM     13  C   UNL     1       1.072   8.600  20.027  0.00  0.00    +0.000 A 
ATOM     14 CL   UNL     1       0.339   8.724  21.580  0.00  0.00    +0.000 Cl
ENDBRANCH   2   8
BRANCH   5  15
ATOM     15  C   UNL     1       2.755  14.150  19.216  0.00  0.00    +0.000 A 
ATOM     16  C   UNL     1       3.534  14.389  20.352  0.00  0.00    +0.000 A 
ATOM     17  C   UNL     1       4.709  15.141  20.247  0.00  0.00    +0.000 A 
ATOM     18  C   UNL     1       5.104  15.645  19.009  0.00  0.00    +0.000 A 
ATOM     19 CL   UNL     1       6.557  16.556  18.885  0.00  0.00    +0.000 Cl
ATOM     20  C   UNL     1       4.326  15.419  17.874  0.00  0.00    +0.000 A 
ATOM     21  C   UNL     1       3.146  14.678  17.978  0.00  0.00    +0.000 A 
ENDBRANCH   5  15
BRANCH   7  22
ATOM     22  C   UNL     1      -1.625  12.803  20.681  0.00  0.00    +0.000 A 
ATOM     23  C   UNL     1      -3.020  12.926  20.591  0.00  0.00    +0.000 A 
ATOM     24  C   UNL     1      -3.814  12.858  21.737  0.00  0.00    +0.000 A 
ATOM     25  C   UNL     1      -3.220  12.666  22.980  0.00  0.00    +0.000 A 
ATOM     26 BR   UNL     1      -4.295  12.571  24.532  0.00  0.00    +0.000 Br
ATOM     27  C   UNL     1      -1.837  12.539  23.089  0.00  0.00    +0.000 A 
ATOM     28  C   UNL     1      -1.043  12.603  21.944  0.00  0.00    +0.000 A 
ENDBRANCH   7  22
TORSDOF 3
ENDMDL
MODEL 5
REMARK VINA RESULT:      -7.1      5.982      9.453
REMARK  Name = 
REMARK  3 active torsions:
REMARK  status: ('A' for Active; 'I' for Inactive)
REMARK    1  A    between atoms: C_2  and  C_3
REMARK    2  A    between atoms: C_12  and  C_13
REMARK    3  A    between atoms: C_21  and  C_22
REMARK                            x       y       z     vdW  Elec       q    Type
REMARK                         _______ _______ _______ _____ _____    ______ ____
ROOT
ATOM      1  O   UNL     1      -1.481  10.115  18.788  0.00  0.00    +0.000 OA
ATOM      2  C   UNL     1      -0.308  10.407  19.006  0.00  0.00    +0.000 C 
ATOM      3  N   UNL     1       0.115  11.701  19.303  0.00  0.00    +0.000 N 
ATOM      4  N   UNL     1       1.435  12.075  19.331  0.00  0.00    +0.000 NA
ATOM      5  C   UNL     1       1.464  13.370  19.334  0.00  0.00    +0.000 C 
ATOM      6  C   UNL     1       0.124  14.050  19.410  0.00  0.00    +0.000 C 
ATOM      7  C   UNL     1      -0.802  12.835  19.409  0.00  0.00    +0.000 C 
ENDROOT
BRANCH   2   8
ATOM      8  C   UNL     1       0.726   9.351  18.934  0.00  0.00    +0.000 A 
ATOM      9  C   UNL     1       1.421   9.113  17.741  0.00  0.00    +0.000 A 
ATOM     10  C   UNL     1       2.473   8.202  17.718  0.00  0.00    +0.000 A 
ATOM     11  C   UNL     1       2.762   7.514  18.882  0.00  0.00    +0.000 A 
ATOM     12  N   UNL     1       2.074   7.667  20.033  0.00  0.00    +0.000 NA
ATOM     13  C   UNL     1       1.068   8.582  20.036  0.00  0.00    +0.000 A 
ATOM     14 CL   UNL     1       0.319   8.708  21.581  0.00  0.00    +0.000 Cl
ENDBRANCH   2   8
BRANCH   5  15
ATOM     15  C   UNL     1       2.728  14.136  19.258  0.00  0.00    +0.000 A 
ATOM     16  C   UNL     1       3.192  14.634  18.037  0.00  0.00    +0.000 A 
ATOM     17  C   UNL     1       4.407  15.323  17.982  0.00  0.00    +0.000 A 
ATOM     18  C   UNL     1       5.151  15.520  19.144  0.00  0.00    +0.000 A 
ATOM     19 CL   UNL     1       6.636  16.382  19.070  0.00  0.00    +0.000 Cl
ATOM     20  C   UNL     1       4.698  15.018  20.364  0.00  0.00    +0.000 A 
ATOM     21  C   UNL     1       3.490  14.318  20.421  0.00  0.00    +0.000 A 
ENDBRANCH   5  15
BRANCH   7  22
ATOM     22  C   UNL     1      -1.666  12.765  20.654  0.00  0.00    +0.000 A 
ATOM     23  C   UNL     1      -1.073  12.525  21.903  0.00  0.00    +0.000 A 
ATOM     24  C   UNL     1      -1.852  12.469  23.060  0.00  0.00    +0.000 A 
ATOM     25  C   UNL     1      -3.229  12.651  22.977  0.00  0.00    +0.000 A 
ATOM     26 BR   UNL     1      -4.283  12.577  24.544  0.00  0.00    +0.000 Br
ATOM     27  C   UNL     1      -3.835  12.892  21.747  0.00  0.00    +0.000 A 
ATOM     28  C   UNL     1      -3.057  12.953  20.590  0.00  0.00    +0.000 A 
ENDBRANCH   7  22
TORSDOF 3
ENDMDL
MODEL 6
REMARK VINA RESULT:      -7.1      5.809      9.021
REMARK  Name = 
REMARK  3 active torsions:
REMARK  status: ('A' for Active; 'I' for Inactive)
REMARK    1  A    between atoms: C_2  and  C_3
REMARK    2  A    between atoms: C_12  and  C_13
REMARK    3  A    between atoms: C_21  and  C_22
REMARK                            x       y       z     vdW  Elec       q    Type
REMARK                         _______ _______ _______ _____ _____    ______ ____
ROOT
ATOM      1  O   UNL     1       2.447  12.538  18.172  0.00  0.00    +0.000 OA
ATOM      2  C   UNL     1       1.811  12.839  19.179  0.00  0.00    +0.000 C 
ATOM      3  N   UNL     1       0.629  12.204  19.556  0.00  0.00    +0.000 N 
ATOM      4  N   UNL     1      -0.196  12.674  20.546  0.00  0.00    +0.000 NA
ATOM      5  C   UNL     1      -1.322  12.043  20.434  0.00  0.00    +0.000 C 
ATOM      6  C   UNL     1      -1.362  10.965  19.385  0.00  0.00    +0.000 C 
ATOM      7  C   UNL     1       0.043  11.097  18.801  0.00  0.00    +0.000 C 
ENDROOT
BRANCH   2   8
ATOM      8  C   UNL     1       2.294  13.944  20.037  0.00  0.00    +0.000 A 
ATOM      9  C   UNL     1       3.202  13.697  21.075  0.00  0.00    +0.000 A 
ATOM     10  C   UNL     1       3.740  14.758  21.796  0.00  0.00    +0.000 A 
ATOM     11  C   UNL     1       3.308  16.036  21.493  0.00  0.00    +0.000 A 
ATOM     12  N   UNL     1       2.386  16.309  20.544  0.00  0.00    +0.000 NA
ATOM     13  C   UNL     1       1.896  15.256  19.836  0.00  0.00    +0.000 A 
ATOM     14 CL   UNL     1       0.775  15.760  18.630  0.00  0.00    +0.000 Cl
ENDBRANCH   2   8
BRANCH   5  15
ATOM     15  C   UNL     1      -2.498  12.361  21.275  0.00  0.00    +0.000 A 
ATOM     16  C   UNL     1      -3.682  12.833  20.702  0.00  0.00    +0.000 A 
ATOM     17  C   UNL     1      -4.769  13.163  21.517  0.00  0.00    +0.000 A 
ATOM     18  C   UNL     1      -4.673  13.014  22.899  0.00  0.00    +0.000 A 
ATOM     19 CL   UNL     1      -6.020  13.408  23.894  0.00  0.00    +0.000 Cl
ATOM     20  C   UNL     1      -3.492  12.552  23.479  0.00  0.00    +0.000 A 
ATOM     21  C   UNL     1      -2.400  12.233  22.668  0.00  0.00    +0.000 A 
ENDBRANCH   5  15
BRANCH   7  22
ATOM     22  C   UNL     1       0.848   9.817  18.936  0.00  0.00    +0.000 A 
ATOM     23  C   UNL     1       1.476   9.266  17.807  0.00  0.00    +0.000 A 
ATOM     24  C   UNL     1       2.229   8.096  17.915  0.00  0.00    +0.000 A 
ATOM     25  C   UNL     1       2.362   7.469  19.150  0.00  0.00    +0.000 A 
ATOM     26 BR   UNL     1       3.384   5.886  19.297  0.00  0.00    +0.000 Br
ATOM     27  C   UNL     1       1.748   8.003  20.282  0.00  0.00    +0.000 A 
ATOM     28  C   UNL     1       0.998   9.174  20.176  0.00  0.00    +0.000 A 
ENDBRANCH   7  22
TORSDOF 3
ENDMDL
MODEL 7
REMARK VINA RESULT:      -6.9      7.076     11.759
REMARK  Name = 
REMARK  3 active torsions:
REMARK  status: ('A' for Active; 'I' for Inactive)
REMARK    1  A    between atoms: C_2  and  C_3
REMARK    2  A    between atoms: C_12  and  C_13
REMARK    3  A    between atoms: C_21  and  C_22
REMARK                            x       y       z     vdW  Elec       q    Type
REMARK                         _______ _______ _______ _____ _____    ______ ____
ROOT
ATOM      1  O   UNL     1      -0.988  15.231  22.861  0.00  0.00    +0.000 OA
ATOM      2  C   UNL     1      -0.593  14.566  21.907  0.00  0.00    +0.000 C 
ATOM      3  N   UNL     1      -0.690  13.176  21.852  0.00  0.00    +0.000 N 
ATOM      4  N   UNL     1      -0.059  12.415  20.901  0.00  0.00    +0.000 NA
ATOM      5  C   UNL     1      -0.102  11.185  21.307  0.00  0.00    +0.000 C 
ATOM      6  C   UNL     1      -0.878  10.946  22.574  0.00  0.00    +0.000 C 
ATOM      7  C   UNL     1      -1.295  12.376  22.915  0.00  0.00    +0.000 C 
ENDROOT
BRANCH   2   8
ATOM      8  C   UNL     1       0.040  15.251  20.759  0.00  0.00    +0.000 A 
ATOM      9  C   UNL     1      -0.726  15.655  19.657  0.00  0.00    +0.000 A 
ATOM     10  C   UNL     1      -0.142  16.402  18.640  0.00  0.00    +0.000 A 
ATOM     11  C   UNL     1       1.210  16.677  18.729  0.00  0.00    +0.000 A 
ATOM     12  N   UNL     1       1.996  16.249  19.740  0.00  0.00    +0.000 NA
ATOM     13  C   UNL     1       1.395  15.543  20.735  0.00  0.00    +0.000 A 
ATOM     14 CL   UNL     1       2.506  15.113  21.978  0.00  0.00    +0.000 Cl
ENDBRANCH   2   8
BRANCH   5  15
ATOM     15  C   UNL     1       0.571  10.084  20.583  0.00  0.00    +0.000 A 
ATOM     16  C   UNL     1       0.967   8.923  21.252  0.00  0.00    +0.000 A 
ATOM     17  C   UNL     1       1.635   7.910  20.557  0.00  0.00    +0.000 A 
ATOM     18  C   UNL     1       1.900   8.057  19.197  0.00  0.00    +0.000 A 
ATOM     19 CL   UNL     1       2.709   6.800  18.346  0.00  0.00    +0.000 Cl
ATOM     20  C   UNL     1       1.518   9.217  18.525  0.00  0.00    +0.000 A 
ATOM     21  C   UNL     1       0.860  10.236  19.219  0.00  0.00    +0.000 A 
ENDBRANCH   5  15
BRANCH   7  22
ATOM     22  C   UNL     1      -2.802  12.541  22.975  0.00  0.00    +0.000 A 
ATOM     23  C   UNL     1      -3.453  12.566  24.218  0.00  0.00    +0.000 A 
ATOM     24  C   UNL     1      -4.838  12.728  24.291  0.00  0.00    +0.000 A 
ATOM     25  C   UNL     1      -5.581  12.868  23.123  0.00  0.00    +0.000 A 
ATOM     26 BR   UNL     1      -7.455  13.091  23.222  0.00  0.00    +0.000 Br
ATOM     27  C   UNL     1      -4.952  12.849  21.880  0.00  0.00    +0.000 A 
ATOM     28  C   UNL     1      -3.568  12.690  21.806  0.00  0.00    +0.000 A 
ENDBRANCH   7  22
TORSDOF 3
ENDMDL
MODEL 8
REMARK VINA RESULT:      -6.9      6.808     11.410
REMARK  Name = 
REMARK  3 active torsions:
REMARK  status: ('A' for Active; 'I' for Inactive)
REMARK    1  A    between atoms: C_2  and  C_3
REMARK    2  A    between atoms: C_12  and  C_13
REMARK    3  A    between atoms: C_21  and  C_22
REMARK                            x       y       z     vdW  Elec       q    Type
REMARK                         _______ _______ _______ _____ _____    ______ ____
ROOT
ATOM      1  O   UNL     1      -0.426  14.757  23.351  0.00  0.00    +0.000 OA
ATOM      2  C   UNL     1       0.033  14.191  22.363  0.00  0.00    +0.000 C 
ATOM      3  N   UNL     1      -0.231  12.857  22.056  0.00  0.00    +0.000 N 
ATOM      4  N   UNL     1       0.446  12.159  21.087  0.00  0.00    +0.000 NA
ATOM      5  C   UNL     1       0.178  10.904  21.265  0.00  0.00    +0.000 C 
ATOM      6  C   UNL     1      -0.820  10.599  22.348  0.00  0.00    +0.000 C 
ATOM      7  C   UNL     1      -1.101  12.008  22.868  0.00  0.00    +0.000 C 
ENDROOT
BRANCH   2   8
ATOM      8  C   UNL     1       0.929  14.935  21.451  0.00  0.00    +0.000 A 
ATOM      9  C   UNL     1       2.301  15.031  21.720  0.00  0.00    +0.000 A 
ATOM     10  C   UNL     1       3.151  15.630  20.796  0.00  0.00    +0.000 A 
ATOM     11  C   UNL     1       2.592  16.167  19.651  0.00  0.00    +0.000 A 
ATOM     12  N   UNL     1       1.268  16.154  19.387  0.00  0.00    +0.000 NA
ATOM     13  C   UNL     1       0.462  15.539  20.294  0.00  0.00    +0.000 A 
ATOM     14 CL   UNL     1      -1.187  15.551  19.800  0.00  0.00    +0.000 Cl
ENDBRANCH   2   8
BRANCH   5  15
ATOM     15  C   UNL     1       0.816   9.834  20.465  0.00  0.00    +0.000 A 
ATOM     16  C   UNL     1       1.214   8.634  21.061  0.00  0.00    +0.000 A 
ATOM     17  C   UNL     1       1.848   7.651  20.295  0.00  0.00    +0.000 A 
ATOM     18  C   UNL     1       2.076   7.866  18.937  0.00  0.00    +0.000 A 
ATOM     19 CL   UNL     1       2.844   6.646  17.999  0.00  0.00    +0.000 Cl
ATOM     20  C   UNL     1       1.691   9.065  18.338  0.00  0.00    +0.000 A 
ATOM     21  C   UNL     1       1.068  10.054  19.103  0.00  0.00    +0.000 A 
ENDBRANCH   5  15
BRANCH   7  22
ATOM     22  C   UNL     1      -2.563  12.391  22.741  0.00  0.00    +0.000 A 
ATOM     23  C   UNL     1      -3.126  12.584  21.469  0.00  0.00    +0.000 A 
ATOM     24  C   UNL     1      -4.473  12.926  21.333  0.00  0.00    +0.000 A 
ATOM     25  C   UNL     1      -5.267  13.077  22.466  0.00  0.00    +0.000 A 
ATOM     26 BR   UNL     1      -7.090  13.537  22.282  0.00  0.00    +0.000 Br
ATOM     27  C   UNL     1      -4.727  12.887  23.736  0.00  0.00    +0.000 A 
ATOM     28  C   UNL     1      -3.382  12.542  23.872  0.00  0.00    +0.000 A 
ENDBRANCH   7  22
TORSDOF 3
ENDMDL
MODEL 9
REMARK VINA RESULT:      -6.9      6.126     10.689
REMARK  Name = 
REMARK  3 active torsions:
REMARK  status: ('A' for Active; 'I' for Inactive)
REMARK    1  A    between atoms: C_2  and  C_3
REMARK    2  A    between atoms: C_12  and  C_13
REMARK    3  A    between atoms: C_21  and  C_22
REMARK                            x       y       z     vdW  Elec       q    Type
REMARK                         _______ _______ _______ _____ _____    ______ ____
ROOT
ATOM      1  O   UNL     1       0.503  14.431  22.091  0.00  0.00    +0.000 OA
ATOM      2  C   UNL     1       0.913  13.726  21.173  0.00  0.00    +0.000 C 
ATOM      3  N   UNL     1       0.552  12.389  21.015  0.00  0.00    +0.000 N 
ATOM      4  N   UNL     1       1.171  11.541  20.131  0.00  0.00    +0.000 NA
ATOM      5  C   UNL     1       0.814  10.337  20.447  0.00  0.00    +0.000 C 
ATOM      6  C   UNL     1      -0.198  10.227  21.554  0.00  0.00    +0.000 C 
ATOM      7  C   UNL     1      -0.373  11.701  21.914  0.00  0.00    +0.000 C 
ENDROOT
BRANCH   2   8
ATOM      8  C   UNL     1       1.857  14.298  20.187  0.00  0.00    +0.000 A 
ATOM      9  C   UNL     1       1.395  14.792  18.960  0.00  0.00    +0.000 A 
ATOM     10  C   UNL     1       2.273  15.434  18.093  0.00  0.00    +0.000 A 
ATOM     11  C   UNL     1       3.604  15.515  18.458  0.00  0.00    +0.000 A 
ATOM     12  N   UNL     1       4.100  14.994  19.601  0.00  0.00    +0.000 NA
ATOM     13  C   UNL     1       3.216  14.394  20.443  0.00  0.00    +0.000 A 
ATOM     14 CL   UNL     1       3.979  13.828  21.878  0.00  0.00    +0.000 Cl
ENDBRANCH   2   8
BRANCH   5  15
ATOM     15  C   UNL     1       1.368   9.141  19.771  0.00  0.00    +0.000 A 
ATOM     16  C   UNL     1       1.689   7.992  20.499  0.00  0.00    +0.000 A 
ATOM     17  C   UNL     1       2.246   6.887  19.848  0.00  0.00    +0.000 A 
ATOM     18  C   UNL     1       2.473   6.930  18.473  0.00  0.00    +0.000 A 
ATOM     19 CL   UNL     1       3.144   5.561  17.678  0.00  0.00    +0.000 Cl
ATOM     20  C   UNL     1       2.164   8.077  17.743  0.00  0.00    +0.000 A 
ATOM     21  C   UNL     1       1.619   9.187  18.393  0.00  0.00    +0.000 A 
ENDBRANCH   5  15
BRANCH   7  22
ATOM     22  C   UNL     1      -1.805  12.174  21.741  0.00  0.00    +0.000 A 
ATOM     23  C   UNL     1      -2.609  12.393  22.870  0.00  0.00    +0.000 A 
ATOM     24  C   UNL     1      -3.924  12.839  22.729  0.00  0.00    +0.000 A 
ATOM     25  C   UNL     1      -4.445  13.069  21.460  0.00  0.00    +0.000 A 
ATOM     26 BR   UNL     1      -6.225  13.675  21.269  0.00  0.00    +0.000 Br
ATOM     27  C   UNL     1      -3.661  12.860  20.327  0.00  0.00    +0.000 A 
ATOM     28  C   UNL     1      -2.345  12.418  20.467  0.00  0.00    +0.000 A 
ENDBRANCH   7  22
TORSDOF 3
ENDMDL
