MODEL 1
REMARK VINA RESULT:      -7.2      0.000      0.000
REMARK  Name = 
REMARK  7 active torsions:
REMARK  status: ('A' for Active; 'I' for Inactive)
REMARK    1  A    between atoms: C_1  and  N_2
REMARK    2  A    between atoms: N_2  and  C_3
REMARK    3  A    between atoms: C_3  and  C_4
REMARK    4  A    between atoms: C_10  and  C_12
REMARK    5  A    between atoms: C_12  and  N_13
REMARK    6  A    between atoms: C_21  and  S_22
REMARK    7  A    between atoms: S_22  and  N_25
REMARK                            x       y       z     vdW  Elec       q    Type
REMARK                         _______ _______ _______ _____ _____    ______ ____
ROOT
ATOM      1  N   UNL     1      -4.861  12.990  22.361  0.00  0.00    +0.000 N 
ATOM      2  C   UNL     1      -5.276  12.953  23.717  0.00  0.00    +0.000 C 
ATOM      3  O   UNL     1      -6.383  13.276  24.132  0.00  0.00    +0.000 OA
ATOM      4  C   UNL     1      -4.182  12.445  24.609  0.00  0.00    +0.000 C 
ATOM      5  O   UNL     1      -3.222  13.496  24.559  0.00  0.00    +0.000 OA
ATOM      6  C   UNL     1      -2.716  13.573  23.276  0.00  0.00    +0.000 A 
ATOM      7  C   UNL     1      -1.407  14.044  23.244  0.00  0.00    +0.000 A 
ATOM      8  C   UNL     1      -0.606  13.692  22.203  0.00  0.00    +0.000 A 
ATOM      9  C   UNL     1      -1.096  12.808  21.258  0.00  0.00    +0.000 A 
ATOM     10  C   UNL     1      -2.519  12.539  21.142  0.00  0.00    +0.000 A 
ATOM     11  C   UNL     1      -3.398  13.020  22.153  0.00  0.00    +0.000 A 
ENDROOT
BRANCH   9  12
ATOM     12  S   UNL     1       0.253  11.700  20.676  0.00  0.00    +0.000 S 
ATOM     13  O   UNL     1       1.424  12.040  21.466  0.00  0.00    +0.000 OA
ATOM     14  O   UNL     1      -0.257  10.353  20.641  0.00  0.00    +0.000 OA
BRANCH  12  15
ATOM     15  N   UNL     1       0.629  12.180  19.027  0.00  0.00    +0.000 NA
ATOM     16  C   UNL     1       2.053  12.458  18.725  0.00  0.00    +0.000 C 
ATOM     17  C   UNL     1       2.221  13.936  19.044  0.00  0.00    +0.000 C 
ATOM     18  C   UNL     1       0.899  14.571  18.635  0.00  0.00    +0.000 C 
ATOM     19  C   UNL     1      -0.077  13.401  18.481  0.00  0.00    +0.000 C 
ENDBRANCH  12  15
ENDBRANCH   9  12
BRANCH   1  20
ATOM     20  C   UNL     1      -6.008  13.004  21.445  0.00  0.00    +0.000 C 
BRANCH  20  23
ATOM     21  C   UNL     1      -6.698  10.059  18.850  0.00  0.00    +0.000 C 
ATOM     22  N   UNL     1      -6.186  11.326  19.425  0.00  0.00    +0.000 N 
ATOM     23  C   UNL     1      -6.625  11.742  20.664  0.00  0.00    +0.000 C 
ATOM     24  O   UNL     1      -7.457  11.033  21.256  0.00  0.00    +0.000 OA
BRANCH  22  25
ATOM     25  C   UNL     1      -5.419  12.139  18.506  0.00  0.00    +0.000 C 
BRANCH  25  26
ATOM     26  C   UNL     1      -4.352  11.412  17.724  0.00  0.00    +0.000 A 
ATOM     27  C   UNL     1      -3.235  10.791  18.304  0.00  0.00    +0.000 A 
ATOM     28  C   UNL     1      -2.270  10.175  17.501  0.00  0.00    +0.000 A 
ATOM     29  C   UNL     1      -2.410  10.170  16.115  0.00  0.00    +0.000 A 
ATOM     30  C   UNL     1      -3.523  10.766  15.527  0.00  0.00    +0.000 A 
ATOM     31  C   UNL     1      -4.486  11.381  16.326  0.00  0.00    +0.000 A 
ENDBRANCH  25  26
ENDBRANCH  22  25
ENDBRANCH  20  23
ENDBRANCH   1  20
TORSDOF 6
ENDMDL
MODEL 2
REMARK VINA RESULT:      -7.1      4.519      6.767
REMARK  Name = 
REMARK  7 active torsions:
REMARK  status: ('A' for Active; 'I' for Inactive)
REMARK    1  A    between atoms: C_1  and  N_2
REMARK    2  A    between atoms: N_2  and  C_3
REMARK    3  A    between atoms: C_3  and  C_4
REMARK    4  A    between atoms: C_10  and  C_12
REMARK    5  A    between atoms: C_12  and  N_13
REMARK    6  A    between atoms: C_21  and  S_22
REMARK    7  A    between atoms: S_22  and  N_25
REMARK                            x       y       z     vdW  Elec       q    Type
REMARK                         _______ _______ _______ _____ _____    ______ ____
ROOT
ATOM      1  N   UNL     1       0.217   9.891  20.619  0.00  0.00    +0.000 N 
ATOM      2  C   UNL     1      -0.080   8.990  21.673  0.00  0.00    +0.000 C 
ATOM      3  O   UNL     1      -0.570   7.874  21.539  0.00  0.00    +0.000 OA
ATOM      4  C   UNL     1       0.295   9.565  23.006  0.00  0.00    +0.000 C 
ATOM      5  O   UNL     1      -0.643  10.624  23.167  0.00  0.00    +0.000 OA
ATOM      6  C   UNL     1      -0.394  11.587  22.209  0.00  0.00    +0.000 A 
ATOM      7  C   UNL     1      -0.747  12.866  22.631  0.00  0.00    +0.000 A 
ATOM      8  C   UNL     1      -0.113  13.938  22.084  0.00  0.00    +0.000 A 
ATOM      9  C   UNL     1       0.921  13.713  21.192  0.00  0.00    +0.000 A 
ATOM     10  C   UNL     1       1.102  12.419  20.556  0.00  0.00    +0.000 A 
ATOM     11  C   UNL     1       0.343  11.308  21.022  0.00  0.00    +0.000 A 
ENDROOT
BRANCH   9  12
ATOM     12  S   UNL     1       2.227  14.989  21.412  0.00  0.00    +0.000 S 
ATOM     13  O   UNL     1       1.858  16.099  20.550  0.00  0.00    +0.000 OA
ATOM     14  O   UNL     1       2.435  15.179  22.825  0.00  0.00    +0.000 OA
BRANCH  12  15
ATOM     15  N   UNL     1       3.707  14.323  20.732  0.00  0.00    +0.000 NA
ATOM     16  C   UNL     1       4.941  14.493  21.535  0.00  0.00    +0.000 C 
ATOM     17  C   UNL     1       5.501  15.833  21.081  0.00  0.00    +0.000 C 
ATOM     18  C   UNL     1       5.175  15.902  19.595  0.00  0.00    +0.000 C 
ATOM     19  C   UNL     1       4.124  14.814  19.363  0.00  0.00    +0.000 C 
ENDBRANCH  12  15
ENDBRANCH   9  12
BRANCH   1  20
ATOM     20  C   UNL     1       0.322   9.199  19.329  0.00  0.00    +0.000 C 
BRANCH  20  23
ATOM     21  C   UNL     1       3.581   7.550  17.731  0.00  0.00    +0.000 C 
ATOM     22  N   UNL     1       2.446   7.798  18.653  0.00  0.00    +0.000 N 
ATOM     23  C   UNL     1       1.669   8.926  18.495  0.00  0.00    +0.000 C 
ATOM     24  O   UNL     1       1.962   9.711  17.577  0.00  0.00    +0.000 OA
BRANCH  22  25
ATOM     25  C   UNL     1       2.398   6.918  19.801  0.00  0.00    +0.000 C 
BRANCH  25  26
ATOM     26  C   UNL     1       1.944   5.505  19.523  0.00  0.00    +0.000 A 
ATOM     27  C   UNL     1       1.931   4.918  18.250  0.00  0.00    +0.000 A 
ATOM     28  C   UNL     1       1.455   3.615  18.074  0.00  0.00    +0.000 A 
ATOM     29  C   UNL     1       0.991   2.885  19.166  0.00  0.00    +0.000 A 
ATOM     30  C   UNL     1       1.016   3.448  20.439  0.00  0.00    +0.000 A 
ATOM     31  C   UNL     1       1.491   4.748  20.616  0.00  0.00    +0.000 A 
ENDBRANCH  25  26
ENDBRANCH  22  25
ENDBRANCH  20  23
ENDBRANCH   1  20
TORSDOF 6
ENDMDL
MODEL 3
REMARK VINA RESULT:      -6.9      4.568      6.730
REMARK  Name = 
REMARK  7 active torsions:
REMARK  status: ('A' for Active; 'I' for Inactive)
REMARK    1  A    between atoms: C_1  and  N_2
REMARK    2  A    between atoms: N_2  and  C_3
REMARK    3  A    between atoms: C_3  and  C_4
REMARK    4  A    between atoms: C_10  and  C_12
REMARK    5  A    between atoms: C_12  and  N_13
REMARK    6  A    between atoms: C_21  and  S_22
REMARK    7  A    between atoms: S_22  and  N_25
REMARK                            x       y       z     vdW  Elec       q    Type
REMARK                         _______ _______ _______ _____ _____    ______ ____
ROOT
ATOM      1  N   UNL     1       0.061   9.940  20.821  0.00  0.00    +0.000 N 
ATOM      2  C   UNL     1      -0.263   9.014  21.845  0.00  0.00    +0.000 C 
ATOM      3  O   UNL     1      -0.735   7.896  21.672  0.00  0.00    +0.000 OA
ATOM      4  C   UNL     1       0.061   9.566  23.202  0.00  0.00    +0.000 C 
ATOM      5  O   UNL     1      -0.894  10.611  23.352  0.00  0.00    +0.000 OA
ATOM      6  C   UNL     1      -0.623  11.596  22.423  0.00  0.00    +0.000 A 
ATOM      7  C   UNL     1      -1.005  12.862  22.857  0.00  0.00    +0.000 A 
ATOM      8  C   UNL     1      -0.365  13.952  22.354  0.00  0.00    +0.000 A 
ATOM      9  C   UNL     1       0.702  13.756  21.494  0.00  0.00    +0.000 A 
ATOM     10  C   UNL     1       0.919  12.477  20.840  0.00  0.00    +0.000 A 
ATOM     11  C   UNL     1       0.157  11.349  21.256  0.00  0.00    +0.000 A 
ENDROOT
BRANCH   9  12
ATOM     12  S   UNL     1       1.986  15.041  21.785  0.00  0.00    +0.000 S 
ATOM     13  O   UNL     1       1.507  15.848  22.894  0.00  0.00    +0.000 OA
ATOM     14  O   UNL     1       3.269  14.388  21.837  0.00  0.00    +0.000 OA
BRANCH  12  15
ATOM     15  N   UNL     1       1.973  16.099  20.380  0.00  0.00    +0.000 NA
ATOM     16  C   UNL     1       1.318  17.417  20.548  0.00  0.00    +0.000 C 
ATOM     17  C   UNL     1      -0.138  17.159  20.191  0.00  0.00    +0.000 C 
ATOM     18  C   UNL     1      -0.082  16.129  19.071  0.00  0.00    +0.000 C 
ATOM     19  C   UNL     1       1.341  15.565  19.115  0.00  0.00    +0.000 C 
ENDBRANCH  12  15
ENDBRANCH   9  12
BRANCH   1  20
ATOM     20  C   UNL     1       0.217   9.275  19.521  0.00  0.00    +0.000 C 
BRANCH  20  23
ATOM     21  C   UNL     1       3.485   7.926  17.680  0.00  0.00    +0.000 C 
ATOM     22  N   UNL     1       2.341   8.007  18.619  0.00  0.00    +0.000 N 
ATOM     23  C   UNL     1       1.573   9.151  18.666  0.00  0.00    +0.000 C 
ATOM     24  O   UNL     1       1.883  10.092  17.915  0.00  0.00    +0.000 OA
BRANCH  22  25
ATOM     25  C   UNL     1       2.272   6.929  19.581  0.00  0.00    +0.000 C 
BRANCH  25  26
ATOM     26  C   UNL     1       2.703   5.573  19.076  0.00  0.00    +0.000 A 
ATOM     27  C   UNL     1       3.857   4.902  19.506  0.00  0.00    +0.000 A 
ATOM     28  C   UNL     1       4.206   3.665  18.954  0.00  0.00    +0.000 A 
ATOM     29  C   UNL     1       3.407   3.085  17.971  0.00  0.00    +0.000 A 
ATOM     30  C   UNL     1       2.248   3.731  17.549  0.00  0.00    +0.000 A 
ATOM     31  C   UNL     1       1.898   4.964  18.098  0.00  0.00    +0.000 A 
ENDBRANCH  25  26
ENDBRANCH  22  25
ENDBRANCH  20  23
ENDBRANCH   1  20
TORSDOF 6
ENDMDL
MODEL 4
REMARK VINA RESULT:      -6.7      4.678      7.173
REMARK  Name = 
REMARK  7 active torsions:
REMARK  status: ('A' for Active; 'I' for Inactive)
REMARK    1  A    between atoms: C_1  and  N_2
REMARK    2  A    between atoms: N_2  and  C_3
REMARK    3  A    between atoms: C_3  and  C_4
REMARK    4  A    between atoms: C_10  and  C_12
REMARK    5  A    between atoms: C_12  and  N_13
REMARK    6  A    between atoms: C_21  and  S_22
REMARK    7  A    between atoms: S_22  and  N_25
REMARK                            x       y       z     vdW  Elec       q    Type
REMARK                         _______ _______ _______ _____ _____    ______ ____
ROOT
ATOM      1  N   UNL     1       0.674   9.761  20.154  0.00  0.00    +0.000 N 
ATOM      2  C   UNL     1      -0.150   9.529  21.284  0.00  0.00    +0.000 C 
ATOM      3  O   UNL     1      -0.621   8.446  21.613  0.00  0.00    +0.000 OA
ATOM      4  C   UNL     1      -0.376  10.791  22.063  0.00  0.00    +0.000 C 
ATOM      5  O   UNL     1      -1.187  11.562  21.184  0.00  0.00    +0.000 OA
ATOM      6  C   UNL     1      -0.443  11.887  20.066  0.00  0.00    +0.000 A 
ATOM      7  C   UNL     1      -0.836  13.093  19.493  0.00  0.00    +0.000 A 
ATOM      8  C   UNL     1       0.070  13.803  18.767  0.00  0.00    +0.000 A 
ATOM      9  C   UNL     1       1.373  13.341  18.699  0.00  0.00    +0.000 A 
ATOM     10  C   UNL     1       1.709  11.974  19.056  0.00  0.00    +0.000 A 
ATOM     11  C   UNL     1       0.727  11.164  19.692  0.00  0.00    +0.000 A 
ENDROOT
BRANCH   9  12
ATOM     12  S   UNL     1       2.541  14.762  18.686  0.00  0.00    +0.000 S 
ATOM     13  O   UNL     1       3.682  14.341  17.890  0.00  0.00    +0.000 OA
ATOM     14  O   UNL     1       1.799  15.951  18.353  0.00  0.00    +0.000 OA
BRANCH  12  15
ATOM     15  N   UNL     1       3.141  14.941  20.330  0.00  0.00    +0.000 NA
ATOM     16  C   UNL     1       2.265  14.439  21.414  0.00  0.00    +0.000 C 
ATOM     17  C   UNL     1       1.378  15.627  21.758  0.00  0.00    +0.000 C 
ATOM     18  C   UNL     1       2.280  16.841  21.590  0.00  0.00    +0.000 C 
ATOM     19  C   UNL     1       3.487  16.338  20.794  0.00  0.00    +0.000 C 
ENDBRANCH  12  15
ENDBRANCH   9  12
BRANCH   1  20
ATOM     20  C   UNL     1       1.296   8.520  19.675  0.00  0.00    +0.000 C 
BRANCH  20  23
ATOM     21  C   UNL     1       3.878   7.144  16.968  0.00  0.00    +0.000 C 
ATOM     22  N   UNL     1       3.103   7.269  18.226  0.00  0.00    +0.000 N 
ATOM     23  C   UNL     1       2.301   8.372  18.429  0.00  0.00    +0.000 C 
ATOM     24  O   UNL     1       2.266   9.239  17.539  0.00  0.00    +0.000 OA
BRANCH  22  25
ATOM     25  C   UNL     1       3.445   6.300  19.244  0.00  0.00    +0.000 C 
BRANCH  25  26
ATOM     26  C   UNL     1       2.547   5.090  19.323  0.00  0.00    +0.000 A 
ATOM     27  C   UNL     1       2.154   4.326  18.215  0.00  0.00    +0.000 A 
ATOM     28  C   UNL     1       1.284   3.243  18.371  0.00  0.00    +0.000 A 
ATOM     29  C   UNL     1       0.799   2.910  19.634  0.00  0.00    +0.000 A 
ATOM     30  C   UNL     1       1.196   3.647  20.747  0.00  0.00    +0.000 A 
ATOM     31  C   UNL     1       2.064   4.728  20.592  0.00  0.00    +0.000 A 
ENDBRANCH  25  26
ENDBRANCH  22  25
ENDBRANCH  20  23
ENDBRANCH   1  20
TORSDOF 6
ENDMDL
MODEL 5
REMARK VINA RESULT:      -6.6      4.570      6.789
REMARK  Name = 
REMARK  7 active torsions:
REMARK  status: ('A' for Active; 'I' for Inactive)
REMARK    1  A    between atoms: C_1  and  N_2
REMARK    2  A    between atoms: N_2  and  C_3
REMARK    3  A    between atoms: C_3  and  C_4
REMARK    4  A    between atoms: C_10  and  C_12
REMARK    5  A    between atoms: C_12  and  N_13
REMARK    6  A    between atoms: C_21  and  S_22
REMARK    7  A    between atoms: S_22  and  N_25
REMARK                            x       y       z     vdW  Elec       q    Type
REMARK                         _______ _______ _______ _____ _____    ______ ____
ROOT
ATOM      1  N   UNL     1       0.582   9.653  21.125  0.00  0.00    +0.000 N 
ATOM      2  C   UNL     1      -0.377   9.198  22.066  0.00  0.00    +0.000 C 
ATOM      3  O   UNL     1      -0.868   8.075  22.097  0.00  0.00    +0.000 OA
ATOM      4  C   UNL     1      -0.721  10.270  23.057  0.00  0.00    +0.000 C 
ATOM      5  O   UNL     1      -1.425  11.219  22.262  0.00  0.00    +0.000 OA
ATOM      6  C   UNL     1      -0.550  11.762  21.342  0.00  0.00    +0.000 A 
ATOM      7  C   UNL     1      -0.886  13.066  20.990  0.00  0.00    +0.000 A 
ATOM      8  C   UNL     1       0.094  13.903  20.552  0.00  0.00    +0.000 A 
ATOM      9  C   UNL     1       1.402  13.451  20.556  0.00  0.00    +0.000 A 
ATOM     10  C   UNL     1       1.712  12.036  20.658  0.00  0.00    +0.000 A 
ATOM     11  C   UNL     1       0.670  11.121  20.979  0.00  0.00    +0.000 A 
ENDROOT
BRANCH   9  12
ATOM     12  S   UNL     1       2.539  14.830  20.992  0.00  0.00    +0.000 S 
ATOM     13  O   UNL     1       1.826  16.057  20.681  0.00  0.00    +0.000 OA
ATOM     14  O   UNL     1       3.057  14.584  22.314  0.00  0.00    +0.000 OA
BRANCH  12  15
ATOM     15  N   UNL     1       3.885  14.756  19.861  0.00  0.00    +0.000 NA
ATOM     16  C   UNL     1       4.585  16.031  19.579  0.00  0.00    +0.000 C 
ATOM     17  C   UNL     1       3.817  16.628  18.409  0.00  0.00    +0.000 C 
ATOM     18  C   UNL     1       3.404  15.428  17.568  0.00  0.00    +0.000 C 
ATOM     19  C   UNL     1       3.601  14.213  18.479  0.00  0.00    +0.000 C 
ENDBRANCH  12  15
ENDBRANCH   9  12
BRANCH   1  20
ATOM     20  C   UNL     1       1.279   8.534  20.480  0.00  0.00    +0.000 C 
BRANCH  20  23
ATOM     21  C   UNL     1       3.159   7.522  17.114  0.00  0.00    +0.000 C 
ATOM     22  N   UNL     1       2.681   7.480  18.517  0.00  0.00    +0.000 N 
ATOM     23  C   UNL     1       1.983   8.550  19.035  0.00  0.00    +0.000 C 
ATOM     24  O   UNL     1       1.786   9.530  18.296  0.00  0.00    +0.000 OA
BRANCH  22  25
ATOM     25  C   UNL     1       3.202   6.379  19.299  0.00  0.00    +0.000 C 
BRANCH  25  26
ATOM     26  C   UNL     1       2.357   5.128  19.310  0.00  0.00    +0.000 A 
ATOM     27  C   UNL     1       1.544   4.737  20.384  0.00  0.00    +0.000 A 
ATOM     28  C   UNL     1       0.825   3.539  20.330  0.00  0.00    +0.000 A 
ATOM     29  C   UNL     1       0.908   2.722  19.204  0.00  0.00    +0.000 A 
ATOM     30  C   UNL     1       1.697   3.107  18.123  0.00  0.00    +0.000 A 
ATOM     31  C   UNL     1       2.414   4.302  18.176  0.00  0.00    +0.000 A 
ENDBRANCH  25  26
ENDBRANCH  22  25
ENDBRANCH  20  23
ENDBRANCH   1  20
TORSDOF 6
ENDMDL
MODEL 6
REMARK VINA RESULT:      -6.6      2.581      6.488
REMARK  Name = 
REMARK  7 active torsions:
REMARK  status: ('A' for Active; 'I' for Inactive)
REMARK    1  A    between atoms: C_1  and  N_2
REMARK    2  A    between atoms: N_2  and  C_3
REMARK    3  A    between atoms: C_3  and  C_4
REMARK    4  A    between atoms: C_10  and  C_12
REMARK    5  A    between atoms: C_12  and  N_13
REMARK    6  A    between atoms: C_21  and  S_22
REMARK    7  A    between atoms: S_22  and  N_25
REMARK                            x       y       z     vdW  Elec       q    Type
REMARK                         _______ _______ _______ _____ _____    ______ ____
ROOT
ATOM      1  N   UNL     1      -2.535  11.825  18.133  0.00  0.00    +0.000 N 
ATOM      2  C   UNL     1      -3.068  10.837  17.267  0.00  0.00    +0.000 C 
ATOM      3  O   UNL     1      -2.694  10.618  16.120  0.00  0.00    +0.000 OA
ATOM      4  C   UNL     1      -4.161  10.057  17.935  0.00  0.00    +0.000 C 
ATOM      5  O   UNL     1      -5.203  11.020  18.060  0.00  0.00    +0.000 OA
ATOM      6  C   UNL     1      -4.793  12.005  18.938  0.00  0.00    +0.000 A 
ATOM      7  C   UNL     1      -5.855  12.587  19.623  0.00  0.00    +0.000 A 
ATOM      8  C   UNL     1      -5.625  13.147  20.841  0.00  0.00    +0.000 A 
ATOM      9  C   UNL     1      -4.361  13.039  21.392  0.00  0.00    +0.000 A 
ATOM     10  C   UNL     1      -3.210  12.683  20.579  0.00  0.00    +0.000 A 
ATOM     11  C   UNL     1      -3.420  12.226  19.248  0.00  0.00    +0.000 A 
ENDROOT
BRANCH   9  12
ATOM     12  S   UNL     1      -4.487  12.831  23.216  0.00  0.00    +0.000 S 
ATOM     13  O   UNL     1      -5.886  12.556  23.496  0.00  0.00    +0.000 OA
ATOM     14  O   UNL     1      -3.450  11.924  23.637  0.00  0.00    +0.000 OA
BRANCH  12  15
ATOM     15  N   UNL     1      -4.154  14.404  23.931  0.00  0.00    +0.000 NA
ATOM     16  C   UNL     1      -3.640  15.452  23.018  0.00  0.00    +0.000 C 
ATOM     17  C   UNL     1      -2.129  15.271  23.055  0.00  0.00    +0.000 C 
ATOM     18  C   UNL     1      -1.826  14.862  24.489  0.00  0.00    +0.000 C 
ATOM     19  C   UNL     1      -3.176  14.449  25.083  0.00  0.00    +0.000 C 
ENDBRANCH  12  15
ENDBRANCH   9  12
BRANCH   1  20
ATOM     20  C   UNL     1      -1.195  12.250  17.709  0.00  0.00    +0.000 C 
BRANCH  20  23
ATOM     21  C   UNL     1       2.018  13.498  19.712  0.00  0.00    +0.000 C 
ATOM     22  N   UNL     1       1.034  12.595  19.067  0.00  0.00    +0.000 N 
ATOM     23  C   UNL     1      -0.146  13.110  18.572  0.00  0.00    +0.000 C 
ATOM     24  O   UNL     1      -0.348  14.330  18.699  0.00  0.00    +0.000 OA
BRANCH  22  25
ATOM     25  C   UNL     1       1.318  11.185  19.221  0.00  0.00    +0.000 C 
BRANCH  25  26
ATOM     26  C   UNL     1       0.708  10.524  20.433  0.00  0.00    +0.000 A 
ATOM     27  C   UNL     1       0.663   9.136  20.634  0.00  0.00    +0.000 A 
ATOM     28  C   UNL     1       0.041   8.603  21.767  0.00  0.00    +0.000 A 
ATOM     29  C   UNL     1      -0.539   9.448  22.711  0.00  0.00    +0.000 A 
ATOM     30  C   UNL     1      -0.485  10.828  22.535  0.00  0.00    +0.000 A 
ATOM     31  C   UNL     1       0.136  11.361  21.405  0.00  0.00    +0.000 A 
ENDBRANCH  25  26
ENDBRANCH  22  25
ENDBRANCH  20  23
ENDBRANCH   1  20
TORSDOF 6
ENDMDL
MODEL 7
REMARK VINA RESULT:      -6.6      2.716      6.394
REMARK  Name = 
REMARK  7 active torsions:
REMARK  status: ('A' for Active; 'I' for Inactive)
REMARK    1  A    between atoms: C_1  and  N_2
REMARK    2  A    between atoms: N_2  and  C_3
REMARK    3  A    between atoms: C_3  and  C_4
REMARK    4  A    between atoms: C_10  and  C_12
REMARK    5  A    between atoms: C_12  and  N_13
REMARK    6  A    between atoms: C_21  and  S_22
REMARK    7  A    between atoms: S_22  and  N_25
REMARK                            x       y       z     vdW  Elec       q    Type
REMARK                         _______ _______ _______ _____ _____    ______ ____
ROOT
ATOM      1  N   UNL     1      -3.432  11.760  18.330  0.00  0.00    +0.000 N 
ATOM      2  C   UNL     1      -4.327  11.049  17.491  0.00  0.00    +0.000 C 
ATOM      3  O   UNL     1      -4.109  10.725  16.329  0.00  0.00    +0.000 OA
ATOM      4  C   UNL     1      -5.601  10.716  18.209  0.00  0.00    +0.000 C 
ATOM      5  O   UNL     1      -6.209  11.992  18.379  0.00  0.00    +0.000 OA
ATOM      6  C   UNL     1      -5.429  12.744  19.236  0.00  0.00    +0.000 A 
ATOM      7  C   UNL     1      -6.172  13.666  19.967  0.00  0.00    +0.000 A 
ATOM      8  C   UNL     1      -5.701  14.084  21.172  0.00  0.00    +0.000 A 
ATOM      9  C   UNL     1      -4.542  13.511  21.666  0.00  0.00    +0.000 A 
ATOM     10  C   UNL     1      -3.639  12.769  20.803  0.00  0.00    +0.000 A 
ATOM     11  C   UNL     1      -4.059  12.441  19.483  0.00  0.00    +0.000 A 
ENDROOT
BRANCH   9  12
ATOM     12  S   UNL     1      -4.659  13.337  23.494  0.00  0.00    +0.000 S 
ATOM     13  O   UNL     1      -6.076  13.372  23.814  0.00  0.00    +0.000 OA
ATOM     14  O   UNL     1      -3.832  12.227  23.893  0.00  0.00    +0.000 OA
BRANCH  12  15
ATOM     15  N   UNL     1      -3.972  14.800  24.188  0.00  0.00    +0.000 NA
ATOM     16  C   UNL     1      -3.313  15.735  23.246  0.00  0.00    +0.000 C 
ATOM     17  C   UNL     1      -1.870  15.253  23.189  0.00  0.00    +0.000 C 
ATOM     18  C   UNL     1      -1.570  14.772  24.602  0.00  0.00    +0.000 C 
ATOM     19  C   UNL     1      -2.937  14.632  25.278  0.00  0.00    +0.000 C 
ENDBRANCH  12  15
ENDBRANCH   9  12
BRANCH   1  20
ATOM     20  C   UNL     1      -2.049  11.669  17.846  0.00  0.00    +0.000 C 
BRANCH  20  23
ATOM     21  C   UNL     1       1.557  12.796  19.117  0.00  0.00    +0.000 C 
ATOM     22  N   UNL     1       0.393  11.936  18.793  0.00  0.00    +0.000 N 
ATOM     23  C   UNL     1      -0.790  12.513  18.380  0.00  0.00    +0.000 C 
ATOM     24  O   UNL     1      -0.838  13.753  18.305  0.00  0.00    +0.000 OA
BRANCH  22  25
ATOM     25  C   UNL     1       0.546  10.547  19.165  0.00  0.00    +0.000 C 
BRANCH  25  26
ATOM     26  C   UNL     1       0.291  10.227  20.618  0.00  0.00    +0.000 A 
ATOM     27  C   UNL     1      -0.638  10.903  21.422  0.00  0.00    +0.000 A 
ATOM     28  C   UNL     1      -0.782  10.570  22.773  0.00  0.00    +0.000 A 
ATOM     29  C   UNL     1      -0.004   9.559  23.333  0.00  0.00    +0.000 A 
ATOM     30  C   UNL     1       0.908   8.866  22.542  0.00  0.00    +0.000 A 
ATOM     31  C   UNL     1       1.053   9.197  21.194  0.00  0.00    +0.000 A 
ENDBRANCH  25  26
ENDBRANCH  22  25
ENDBRANCH  20  23
ENDBRANCH   1  20
TORSDOF 6
ENDMDL
MODEL 8
REMARK VINA RESULT:      -6.5      4.785      7.135
REMARK  Name = 
REMARK  7 active torsions:
REMARK  status: ('A' for Active; 'I' for Inactive)
REMARK    1  A    between atoms: C_1  and  N_2
REMARK    2  A    between atoms: N_2  and  C_3
REMARK    3  A    between atoms: C_3  and  C_4
REMARK    4  A    between atoms: C_10  and  C_12
REMARK    5  A    between atoms: C_12  and  N_13
REMARK    6  A    between atoms: C_21  and  S_22
REMARK    7  A    between atoms: S_22  and  N_25
REMARK                            x       y       z     vdW  Elec       q    Type
REMARK                         _______ _______ _______ _____ _____    ______ ____
ROOT
ATOM      1  N   UNL     1       0.907   9.461  20.292  0.00  0.00    +0.000 N 
ATOM      2  C   UNL     1       0.961   8.699  21.486  0.00  0.00    +0.000 C 
ATOM      3  O   UNL     1       0.722   7.500  21.578  0.00  0.00    +0.000 OA
ATOM      4  C   UNL     1       1.370   9.545  22.656  0.00  0.00    +0.000 C 
ATOM      5  O   UNL     1       0.247  10.402  22.831  0.00  0.00    +0.000 OA
ATOM      6  C   UNL     1       0.144  11.230  21.730  0.00  0.00    +0.000 A 
ATOM      7  C   UNL     1      -0.429  12.460  22.037  0.00  0.00    +0.000 A 
ATOM      8  C   UNL     1      -0.131  13.537  21.261  0.00  0.00    +0.000 A 
ATOM      9  C   UNL     1       0.801  13.387  20.249  0.00  0.00    +0.000 A 
ATOM     10  C   UNL     1       1.183  12.072  19.763  0.00  0.00    +0.000 A 
ATOM     11  C   UNL     1       0.762  10.920  20.484  0.00  0.00    +0.000 A 
ENDROOT
BRANCH   9  12
ATOM     12  S   UNL     1       1.804  14.921  20.088  0.00  0.00    +0.000 S 
ATOM     13  O   UNL     1       1.254  15.647  18.955  0.00  0.00    +0.000 OA
ATOM     14  O   UNL     1       1.901  15.532  21.389  0.00  0.00    +0.000 OA
BRANCH  12  15
ATOM     15  N   UNL     1       3.419  14.423  19.602  0.00  0.00    +0.000 NA
ATOM     16  C   UNL     1       4.539  14.878  20.459  0.00  0.00    +0.000 C 
ATOM     17  C   UNL     1       4.932  16.227  19.875  0.00  0.00    +0.000 C 
ATOM     18  C   UNL     1       4.731  16.069  18.374  0.00  0.00    +0.000 C 
ATOM     19  C   UNL     1       3.877  14.809  18.214  0.00  0.00    +0.000 C 
ENDBRANCH  12  15
ENDBRANCH   9  12
BRANCH   1  20
ATOM     20  C   UNL     1       0.994   8.607  19.101  0.00  0.00    +0.000 C 
BRANCH  20  23
ATOM     21  C   UNL     1       4.197   7.037  17.321  0.00  0.00    +0.000 C 
ATOM     22  N   UNL     1       3.113   7.261  18.309  0.00  0.00    +0.000 N 
ATOM     23  C   UNL     1       2.296   8.365  18.190  0.00  0.00    +0.000 C 
ATOM     24  O   UNL     1       2.511   9.150  17.250  0.00  0.00    +0.000 OA
BRANCH  22  25
ATOM     25  C   UNL     1       3.159   6.390  19.463  0.00  0.00    +0.000 C 
BRANCH  25  26
ATOM     26  C   UNL     1       2.299   5.152  19.383  0.00  0.00    +0.000 A 
ATOM     27  C   UNL     1       1.771   4.487  20.500  0.00  0.00    +0.000 A 
ATOM     28  C   UNL     1       1.018   3.320  20.339  0.00  0.00    +0.000 A 
ATOM     29  C   UNL     1       0.781   2.808  19.066  0.00  0.00    +0.000 A 
ATOM     30  C   UNL     1       1.282   3.468  17.947  0.00  0.00    +0.000 A 
ATOM     31  C   UNL     1       2.034   4.632  18.106  0.00  0.00    +0.000 A 
ENDBRANCH  25  26
ENDBRANCH  22  25
ENDBRANCH  20  23
ENDBRANCH   1  20
TORSDOF 6
ENDMDL
MODEL 9
REMARK VINA RESULT:      -6.5      4.705      7.111
REMARK  Name = 
REMARK  7 active torsions:
REMARK  status: ('A' for Active; 'I' for Inactive)
REMARK    1  A    between atoms: C_1  and  N_2
REMARK    2  A    between atoms: N_2  and  C_3
REMARK    3  A    between atoms: C_3  and  C_4
REMARK    4  A    between atoms: C_10  and  C_12
REMARK    5  A    between atoms: C_12  and  N_13
REMARK    6  A    between atoms: C_21  and  S_22
REMARK    7  A    between atoms: S_22  and  N_25
REMARK                            x       y       z     vdW  Elec       q    Type
REMARK                         _______ _______ _______ _____ _____    ______ ____
ROOT
ATOM      1  N   UNL     1       0.594   9.661  20.356  0.00  0.00    +0.000 N 
ATOM      2  C   UNL     1      -0.241   9.385  21.468  0.00  0.00    +0.000 C 
ATOM      3  O   UNL     1      -0.615   8.272  21.820  0.00  0.00    +0.000 OA
ATOM      4  C   UNL     1      -0.612  10.643  22.197  0.00  0.00    +0.000 C 
ATOM      5  O   UNL     1      -1.464  11.304  21.268  0.00  0.00    +0.000 OA
ATOM      6  C   UNL     1      -0.719  11.665  20.162  0.00  0.00    +0.000 A 
ATOM      7  C   UNL     1      -1.206  12.809  19.538  0.00  0.00    +0.000 A 
ATOM      8  C   UNL     1      -0.350  13.580  18.816  0.00  0.00    +0.000 A 
ATOM      9  C   UNL     1       0.993  13.246  18.801  0.00  0.00    +0.000 A 
ATOM     10  C   UNL     1       1.447  11.929  19.214  0.00  0.00    +0.000 A 
ATOM     11  C   UNL     1       0.527  11.048  19.849  0.00  0.00    +0.000 A 
ENDROOT
BRANCH   9  12
ATOM     12  S   UNL     1       2.019  14.772  18.775  0.00  0.00    +0.000 S 
ATOM     13  O   UNL     1       3.144  14.488  17.899  0.00  0.00    +0.000 OA
ATOM     14  O   UNL     1       1.149  15.894  18.530  0.00  0.00    +0.000 OA
BRANCH  12  15
ATOM     15  N   UNL     1       2.698  14.955  20.387  0.00  0.00    +0.000 NA
ATOM     16  C   UNL     1       2.539  16.282  21.027  0.00  0.00    +0.000 C 
ATOM     17  C   UNL     1       3.763  17.065  20.575  0.00  0.00    +0.000 C 
ATOM     18  C   UNL     1       4.880  16.033  20.521  0.00  0.00    +0.000 C 
ATOM     19  C   UNL     1       4.175  14.674  20.554  0.00  0.00    +0.000 C 
ENDBRANCH  12  15
ENDBRANCH   9  12
BRANCH   1  20
ATOM     20  C   UNL     1       1.347   8.472  19.937  0.00  0.00    +0.000 C 
BRANCH  20  23
ATOM     21  C   UNL     1       3.733   7.115  17.046  0.00  0.00    +0.000 C 
ATOM     22  N   UNL     1       3.038   7.224  18.352  0.00  0.00    +0.000 N 
ATOM     23  C   UNL     1       2.271   8.336  18.629  0.00  0.00    +0.000 C 
ATOM     24  O   UNL     1       2.199   9.224  17.763  0.00  0.00    +0.000 OA
BRANCH  22  25
ATOM     25  C   UNL     1       3.423   6.225  19.325  0.00  0.00    +0.000 C 
BRANCH  25  26
ATOM     26  C   UNL     1       2.479   5.056  19.471  0.00  0.00    +0.000 A 
ATOM     27  C   UNL     1       1.932   4.632  20.691  0.00  0.00    +0.000 A 
ATOM     28  C   UNL     1       1.098   3.512  20.743  0.00  0.00    +0.000 A 
ATOM     29  C   UNL     1       0.799   2.805  19.581  0.00  0.00    +0.000 A 
ATOM     30  C   UNL     1       1.319   3.225  18.360  0.00  0.00    +0.000 A 
ATOM     31  C   UNL     1       2.152   4.343  18.306  0.00  0.00    +0.000 A 
ENDBRANCH  25  26
ENDBRANCH  22  25
ENDBRANCH  20  23
ENDBRANCH   1  20
TORSDOF 6
ENDMDL
