MODEL 1
REMARK VINA RESULT:      -9.1      0.000      0.000
REMARK  Name = 
REMARK  9 active torsions:
REMARK  status: ('A' for Active; 'I' for Inactive)
REMARK    1  A    between atoms: C_2  and  C_3
REMARK    2  A    between atoms: C_3  and  C_4
REMARK    3  A    between atoms: C_4  and  N_5
REMARK    4  A    between atoms: C_7  and  C_8
REMARK    5  A    between atoms: N_12  and  C_13
REMARK    6  A    between atoms: C_22  and  O_24
REMARK    7  A    between atoms: O_24  and  C_25
REMARK    8  A    between atoms: C_25  and  C_26
REMARK    9  A    between atoms: C_26  and  C_27
REMARK                            x       y       z     vdW  Elec       q    Type
REMARK                         _______ _______ _______ _____ _____    ______ ____
ROOT
ATOM      1  C   UNL     1       3.168   4.481  18.691  0.00  0.00    +0.000 C 
ATOM      2  C   UNL     1       2.089   5.432  18.106  0.00  0.00    +0.000 C 
ATOM      3  N   UNL     1       1.968   6.036  19.423  0.00  0.00    +0.000 N 
ATOM      4  C   UNL     1       1.872   7.368  19.732  0.00  0.00    +0.000 C 
ATOM      5  O   UNL     1       2.202   7.852  20.805  0.00  0.00    +0.000 OA
ATOM      6  C   UNL     1       2.772   5.030  20.099  0.00  0.00    +0.000 C 
ENDROOT
BRANCH   1   7
ATOM      7  N   UNL     1       4.528   4.912  18.334  0.00  0.00    +0.000 N 
ATOM      8  C   UNL     1       5.440   5.507  19.160  0.00  0.00    +0.000 A 
ATOM      9  C   UNL     1       6.662   5.426  18.520  0.00  0.00    +0.000 A 
ATOM     10  C   UNL     1       6.361   4.871  17.253  0.00  0.00    +0.000 A 
ATOM     11  N   UNL     1       7.308   4.555  16.336  0.00  0.00    +0.000 N 
ATOM     12  N   UNL     1       5.050   4.650  17.123  0.00  0.00    +0.000 NA
ATOM     13  H   UNL     1       8.251   4.344  16.654  0.00  0.00    +0.000 HD
BRANCH  11  14
ATOM     14  C   UNL     1       7.177   4.489  14.936  0.00  0.00    +0.000 A 
ATOM     15  C   UNL     1       7.930   5.317  14.088  0.00  0.00    +0.000 A 
ATOM     16  C   UNL     1       7.761   5.276  12.706  0.00  0.00    +0.000 A 
ATOM     17  C   UNL     1       6.815   4.421  12.148  0.00  0.00    +0.000 A 
ATOM     18  C   UNL     1       6.043   3.605  12.973  0.00  0.00    +0.000 A 
ATOM     19  C   UNL     1       6.224   3.639  14.360  0.00  0.00    +0.000 A 
ENDBRANCH  11  14
BRANCH   9  20
ATOM     20  C   UNL     1       7.923   5.805  19.106  0.00  0.00    +0.000 C 
ATOM     21  N   UNL     1       8.361   7.069  18.835  0.00  0.00    +0.000 N 
ATOM     22  O   UNL     1       8.568   5.049  19.821  0.00  0.00    +0.000 OA
ATOM     23  H   UNL     1       7.741   7.763  18.436  0.00  0.00    +0.000 HD
ATOM     24  H   UNL     1       9.125   7.401  19.410  0.00  0.00    +0.000 HD
ENDBRANCH   9  20
ENDBRANCH   1   7
BRANCH   1  25
ATOM     25  C   UNL     1       2.961   2.992  18.398  0.00  0.00    +0.000 C 
BRANCH  25  27
ATOM     26  N   UNL     1       0.434   2.267  18.553  0.00  0.00    +0.000 NA
ATOM     27  C   UNL     1       1.554   2.576  18.471  0.00  0.00    +0.000 C 
ENDBRANCH  25  27
ENDBRANCH   1  25
BRANCH   4  28
ATOM     28  O   UNL     1       1.494   8.081  18.644  0.00  0.00    +0.000 OA
BRANCH  28  29
ATOM     29  C   UNL     1       1.279   9.493  18.845  0.00  0.00    +0.000 C 
BRANCH  29  30
ATOM     30  C   UNL     1       0.064   9.826  17.979  0.00  0.00    +0.000 C 
BRANCH  30  31
ATOM     31  C   UNL     1      -0.964  10.801  18.507  0.00  0.00    +0.000 A 
ATOM     32  C   UNL     1      -0.714  11.367  19.772  0.00  0.00    +0.000 A 
ATOM     33  C   UNL     1      -1.686  12.116  20.427  0.00  0.00    +0.000 A 
ATOM     34  C   UNL     1      -2.939  12.275  19.846  0.00  0.00    +0.000 A 
ATOM     35  C   UNL     1      -3.224  11.730  18.588  0.00  0.00    +0.000 A 
ATOM     36  C   UNL     1      -4.519  11.864  18.059  0.00  0.00    +0.000 A 
ATOM     37  C   UNL     1      -4.826  11.393  16.788  0.00  0.00    +0.000 A 
ATOM     38  C   UNL     1      -3.827  10.812  16.025  0.00  0.00    +0.000 A 
ATOM     39  C   UNL     1      -2.554  10.604  16.565  0.00  0.00    +0.000 A 
ATOM     40  C   UNL     1      -2.219  11.034  17.869  0.00  0.00    +0.000 A 
ENDBRANCH  30  31
ENDBRANCH  29  30
ENDBRANCH  28  29
ENDBRANCH   4  28
TORSDOF 9
ENDMDL
MODEL 2
REMARK VINA RESULT:      -8.9      4.179     11.260
REMARK  Name = 
REMARK  9 active torsions:
REMARK  status: ('A' for Active; 'I' for Inactive)
REMARK    1  A    between atoms: C_2  and  C_3
REMARK    2  A    between atoms: C_3  and  C_4
REMARK    3  A    between atoms: C_4  and  N_5
REMARK    4  A    between atoms: C_7  and  C_8
REMARK    5  A    between atoms: N_12  and  C_13
REMARK    6  A    between atoms: C_22  and  O_24
REMARK    7  A    between atoms: O_24  and  C_25
REMARK    8  A    between atoms: C_25  and  C_26
REMARK    9  A    between atoms: C_26  and  C_27
REMARK                            x       y       z     vdW  Elec       q    Type
REMARK                         _______ _______ _______ _____ _____    ______ ____
ROOT
ATOM      1  C   UNL     1      -0.421  12.453  20.582  0.00  0.00    +0.000 C 
ATOM      2  C   UNL     1       0.915  11.750  20.220  0.00  0.00    +0.000 C 
ATOM      3  N   UNL     1       0.555  10.686  21.144  0.00  0.00    +0.000 N 
ATOM      4  C   UNL     1       0.684   9.334  20.961  0.00  0.00    +0.000 C 
ATOM      5  O   UNL     1       0.004   8.493  21.531  0.00  0.00    +0.000 OA
ATOM      6  C   UNL     1      -0.577  11.393  21.720  0.00  0.00    +0.000 C 
ENDROOT
BRANCH   1   7
ATOM      7  N   UNL     1      -1.444  12.251  19.545  0.00  0.00    +0.000 N 
ATOM      8  C   UNL     1      -1.233  11.845  18.258  0.00  0.00    +0.000 A 
ATOM      9  C   UNL     1      -2.465  11.469  17.757  0.00  0.00    +0.000 A 
ATOM     10  C   UNL     1      -3.380  11.803  18.784  0.00  0.00    +0.000 A 
ATOM     11  N   UNL     1      -4.704  11.523  18.718  0.00  0.00    +0.000 N 
ATOM     12  N   UNL     1      -2.754  12.360  19.825  0.00  0.00    +0.000 NA
ATOM     13  H   UNL     1      -5.016  10.748  18.137  0.00  0.00    +0.000 HD
BRANCH  11  14
ATOM     14  C   UNL     1      -5.769  12.190  19.355  0.00  0.00    +0.000 A 
ATOM     15  C   UNL     1      -6.072  13.530  19.067  0.00  0.00    +0.000 A 
ATOM     16  C   UNL     1      -7.098  14.195  19.734  0.00  0.00    +0.000 A 
ATOM     17  C   UNL     1      -7.824  13.537  20.722  0.00  0.00    +0.000 A 
ATOM     18  C   UNL     1      -7.526  12.211  21.037  0.00  0.00    +0.000 A 
ATOM     19  C   UNL     1      -6.504  11.542  20.356  0.00  0.00    +0.000 A 
ENDBRANCH  11  14
BRANCH   9  20
ATOM     20  C   UNL     1      -2.674  10.841  16.476  0.00  0.00    +0.000 C 
ATOM     21  N   UNL     1      -3.316  11.590  15.533  0.00  0.00    +0.000 N 
ATOM     22  O   UNL     1      -2.289   9.705  16.232  0.00  0.00    +0.000 OA
ATOM     23  H   UNL     1      -3.438  12.587  15.652  0.00  0.00    +0.000 HD
ATOM     24  H   UNL     1      -3.272  11.233  14.587  0.00  0.00    +0.000 HD
ENDBRANCH   9  20
ENDBRANCH   1   7
BRANCH   1  25
ATOM     25  C   UNL     1      -0.303  13.932  20.967  0.00  0.00    +0.000 C 
BRANCH  25  27
ATOM     26  N   UNL     1      -0.668  14.403  23.532  0.00  0.00    +0.000 NA
ATOM     27  C   UNL     1      -0.505  14.177  22.401  0.00  0.00    +0.000 C 
ENDBRANCH  25  27
ENDBRANCH   1  25
BRANCH   4  28
ATOM     28  O   UNL     1       1.566   9.072  19.967  0.00  0.00    +0.000 OA
BRANCH  28  29
ATOM     29  C   UNL     1       2.010   7.705  19.845  0.00  0.00    +0.000 C 
BRANCH  29  30
ATOM     30  C   UNL     1       2.322   7.530  18.360  0.00  0.00    +0.000 C 
BRANCH  30  31
ATOM     31  C   UNL     1       3.167   6.354  17.924  0.00  0.00    +0.000 A 
ATOM     32  C   UNL     1       4.320   6.642  17.170  0.00  0.00    +0.000 A 
ATOM     33  C   UNL     1       5.049   5.628  16.558  0.00  0.00    +0.000 A 
ATOM     34  C   UNL     1       4.612   4.312  16.655  0.00  0.00    +0.000 A 
ATOM     35  C   UNL     1       3.472   3.985  17.398  0.00  0.00    +0.000 A 
ATOM     36  C   UNL     1       3.029   2.652  17.426  0.00  0.00    +0.000 A 
ATOM     37  C   UNL     1       1.939   2.275  18.201  0.00  0.00    +0.000 A 
ATOM     38  C   UNL     1       1.304   3.227  18.981  0.00  0.00    +0.000 A 
ATOM     39  C   UNL     1       1.684   4.572  18.906  0.00  0.00    +0.000 A 
ATOM     40  C   UNL     1       2.762   4.996  18.097  0.00  0.00    +0.000 A 
ENDBRANCH  30  31
ENDBRANCH  29  30
ENDBRANCH  28  29
ENDBRANCH   4  28
TORSDOF 9
ENDMDL
MODEL 3
REMARK VINA RESULT:      -8.7      1.021      2.171
REMARK  Name = 
REMARK  9 active torsions:
REMARK  status: ('A' for Active; 'I' for Inactive)
REMARK    1  A    between atoms: C_2  and  C_3
REMARK    2  A    between atoms: C_3  and  C_4
REMARK    3  A    between atoms: C_4  and  N_5
REMARK    4  A    between atoms: C_7  and  C_8
REMARK    5  A    between atoms: N_12  and  C_13
REMARK    6  A    between atoms: C_22  and  O_24
REMARK    7  A    between atoms: O_24  and  C_25
REMARK    8  A    between atoms: C_25  and  C_26
REMARK    9  A    between atoms: C_26  and  C_27
REMARK                            x       y       z     vdW  Elec       q    Type
REMARK                         _______ _______ _______ _____ _____    ______ ____
ROOT
ATOM      1  C   UNL     1       3.157   4.454  18.669  0.00  0.00    +0.000 C 
ATOM      2  C   UNL     1       2.016   5.386  18.177  0.00  0.00    +0.000 C 
ATOM      3  N   UNL     1       1.931   5.922  19.526  0.00  0.00    +0.000 N 
ATOM      4  C   UNL     1       1.797   7.234  19.903  0.00  0.00    +0.000 C 
ATOM      5  O   UNL     1       2.156   7.681  20.982  0.00  0.00    +0.000 OA
ATOM      6  C   UNL     1       2.802   4.920  20.118  0.00  0.00    +0.000 C 
ENDROOT
BRANCH   1   7
ATOM      7  N   UNL     1       4.481   4.956  18.275  0.00  0.00    +0.000 N 
ATOM      8  C   UNL     1       5.357   5.652  19.059  0.00  0.00    +0.000 A 
ATOM      9  C   UNL     1       6.577   5.620  18.410  0.00  0.00    +0.000 A 
ATOM     10  C   UNL     1       6.304   4.982  17.176  0.00  0.00    +0.000 A 
ATOM     11  N   UNL     1       7.262   4.685  16.266  0.00  0.00    +0.000 N 
ATOM     12  N   UNL     1       5.009   4.668  17.073  0.00  0.00    +0.000 NA
ATOM     13  H   UNL     1       8.220   4.554  16.583  0.00  0.00    +0.000 HD
BRANCH  11  14
ATOM     14  C   UNL     1       7.125   4.538  14.872  0.00  0.00    +0.000 A 
ATOM     15  C   UNL     1       7.889   5.302  13.975  0.00  0.00    +0.000 A 
ATOM     16  C   UNL     1       7.713   5.183  12.599  0.00  0.00    +0.000 A 
ATOM     17  C   UNL     1       6.751   4.314  12.094  0.00  0.00    +0.000 A 
ATOM     18  C   UNL     1       5.968   3.561  12.968  0.00  0.00    +0.000 A 
ATOM     19  C   UNL     1       6.155   3.673  14.350  0.00  0.00    +0.000 A 
ENDBRANCH  11  14
BRANCH   9  20
ATOM     20  C   UNL     1       7.815   6.112  18.962  0.00  0.00    +0.000 C 
ATOM     21  N   UNL     1       8.407   5.330  19.911  0.00  0.00    +0.000 N 
ATOM     22  O   UNL     1       8.324   7.163  18.596  0.00  0.00    +0.000 OA
ATOM     23  H   UNL     1       8.114   4.372  20.056  0.00  0.00    +0.000 HD
ATOM     24  H   UNL     1       9.364   5.565  20.137  0.00  0.00    +0.000 HD
ENDBRANCH   9  20
ENDBRANCH   1   7
BRANCH   1  25
ATOM     25  C   UNL     1       2.994   2.972  18.313  0.00  0.00    +0.000 C 
BRANCH  25  27
ATOM     26  N   UNL     1       0.500   2.151  18.518  0.00  0.00    +0.000 NA
ATOM     27  C   UNL     1       1.608   2.498  18.420  0.00  0.00    +0.000 C 
ENDBRANCH  25  27
ENDBRANCH   1  25
BRANCH   4  28
ATOM     28  O   UNL     1       1.343   7.980  18.868  0.00  0.00    +0.000 OA
BRANCH  28  29
ATOM     29  C   UNL     1       2.324   8.778  18.172  0.00  0.00    +0.000 C 
BRANCH  29  30
ATOM     30  C   UNL     1       1.720  10.181  18.130  0.00  0.00    +0.000 C 
BRANCH  30  31
ATOM     31  C   UNL     1       0.243  10.350  18.410  0.00  0.00    +0.000 A 
ATOM     32  C   UNL     1      -0.650   9.866  17.436  0.00  0.00    +0.000 A 
ATOM     33  C   UNL     1      -2.010  10.148  17.506  0.00  0.00    +0.000 A 
ATOM     34  C   UNL     1      -2.492  10.956  18.529  0.00  0.00    +0.000 A 
ATOM     35  C   UNL     1      -1.636  11.454  19.519  0.00  0.00    +0.000 A 
ATOM     36  C   UNL     1      -2.151  12.313  20.504  0.00  0.00    +0.000 A 
ATOM     37  C   UNL     1      -1.349  12.779  21.539  0.00  0.00    +0.000 A 
ATOM     38  C   UNL     1      -0.031  12.360  21.611  0.00  0.00    +0.000 A 
ATOM     39  C   UNL     1       0.517  11.567  20.597  0.00  0.00    +0.000 A 
ATOM     40  C   UNL     1      -0.260  11.109  19.510  0.00  0.00    +0.000 A 
ENDBRANCH  30  31
ENDBRANCH  29  30
ENDBRANCH  28  29
ENDBRANCH   4  28
TORSDOF 9
ENDMDL
MODEL 4
REMARK VINA RESULT:      -8.7      4.040     11.436
REMARK  Name = 
REMARK  9 active torsions:
REMARK  status: ('A' for Active; 'I' for Inactive)
REMARK    1  A    between atoms: C_2  and  C_3
REMARK    2  A    between atoms: C_3  and  C_4
REMARK    3  A    between atoms: C_4  and  N_5
REMARK    4  A    between atoms: C_7  and  C_8
REMARK    5  A    between atoms: N_12  and  C_13
REMARK    6  A    between atoms: C_22  and  O_24
REMARK    7  A    between atoms: O_24  and  C_25
REMARK    8  A    between atoms: C_25  and  C_26
REMARK    9  A    between atoms: C_26  and  C_27
REMARK                            x       y       z     vdW  Elec       q    Type
REMARK                         _______ _______ _______ _____ _____    ______ ____
ROOT
ATOM      1  C   UNL     1      -0.468  12.250  20.925  0.00  0.00    +0.000 C 
ATOM      2  C   UNL     1       0.807  11.458  20.527  0.00  0.00    +0.000 C 
ATOM      3  N   UNL     1       0.361  10.385  21.400  0.00  0.00    +0.000 N 
ATOM      4  C   UNL     1       0.379   9.037  21.153  0.00  0.00    +0.000 C 
ATOM      5  O   UNL     1      -0.368   8.228  21.684  0.00  0.00    +0.000 OA
ATOM      6  C   UNL     1      -0.711  11.154  22.012  0.00  0.00    +0.000 C 
ENDROOT
BRANCH   1   7
ATOM      7  N   UNL     1      -1.503  12.182  19.883  0.00  0.00    +0.000 N 
ATOM      8  C   UNL     1      -1.324  11.815  18.578  0.00  0.00    +0.000 A 
ATOM      9  C   UNL     1      -2.583  11.569  18.064  0.00  0.00    +0.000 A 
ATOM     10  C   UNL     1      -3.469  11.933  19.106  0.00  0.00    +0.000 A 
ATOM     11  N   UNL     1      -4.811  11.770  19.032  0.00  0.00    +0.000 N 
ATOM     12  N   UNL     1      -2.799  12.389  20.169  0.00  0.00    +0.000 NA
ATOM     13  H   UNL     1      -5.187  11.051  18.418  0.00  0.00    +0.000 HD
BRANCH  11  14
ATOM     14  C   UNL     1      -5.816  12.498  19.699  0.00  0.00    +0.000 A 
ATOM     15  C   UNL     1      -6.105  13.830  19.362  0.00  0.00    +0.000 A 
ATOM     16  C   UNL     1      -7.069  14.555  20.058  0.00  0.00    +0.000 A 
ATOM     17  C   UNL     1      -7.746  13.967  21.122  0.00  0.00    +0.000 A 
ATOM     18  C   UNL     1      -7.460  12.652  21.485  0.00  0.00    +0.000 A 
ATOM     19  C   UNL     1      -6.501  11.921  20.776  0.00  0.00    +0.000 A 
ENDBRANCH  11  14
BRANCH   9  20
ATOM     20  C   UNL     1      -2.844  11.016  16.758  0.00  0.00    +0.000 C 
ATOM     21  N   UNL     1      -1.948  10.093  16.302  0.00  0.00    +0.000 N 
ATOM     22  O   UNL     1      -3.819  11.338  16.092  0.00  0.00    +0.000 OA
ATOM     23  H   UNL     1      -1.275   9.666  16.925  0.00  0.00    +0.000 HD
ATOM     24  H   UNL     1      -2.242   9.559  15.494  0.00  0.00    +0.000 HD
ENDBRANCH   9  20
ENDBRANCH   1   7
BRANCH   1  25
ATOM     25  C   UNL     1      -0.230  13.695  21.378  0.00  0.00    +0.000 C 
BRANCH  25  27
ATOM     26  N   UNL     1       1.577  14.932  19.915  0.00  0.00    +0.000 NA
ATOM     27  C   UNL     1       0.770  14.401  20.566  0.00  0.00    +0.000 C 
ENDBRANCH  25  27
ENDBRANCH   1  25
BRANCH   4  28
ATOM     28  O   UNL     1       1.238   8.752  20.145  0.00  0.00    +0.000 OA
BRANCH  28  29
ATOM     29  C   UNL     1       1.790   7.419  20.130  0.00  0.00    +0.000 C 
BRANCH  29  30
ATOM     30  C   UNL     1       2.560   7.335  18.813  0.00  0.00    +0.000 C 
BRANCH  30  31
ATOM     31  C   UNL     1       2.710   5.989  18.139  0.00  0.00    +0.000 A 
ATOM     32  C   UNL     1       1.757   5.005  18.462  0.00  0.00    +0.000 A 
ATOM     33  C   UNL     1       1.921   3.686  18.052  0.00  0.00    +0.000 A 
ATOM     34  C   UNL     1       3.063   3.322  17.348  0.00  0.00    +0.000 A 
ATOM     35  C   UNL     1       4.032   4.272  17.005  0.00  0.00    +0.000 A 
ATOM     36  C   UNL     1       5.199   3.855  16.343  0.00  0.00    +0.000 A 
ATOM     37  C   UNL     1       6.156   4.774  15.930  0.00  0.00    +0.000 A 
ATOM     38  C   UNL     1       5.933   6.124  16.149  0.00  0.00    +0.000 A 
ATOM     39  C   UNL     1       4.814   6.548  16.873  0.00  0.00    +0.000 A 
ATOM     40  C   UNL     1       3.842   5.637  17.343  0.00  0.00    +0.000 A 
ENDBRANCH  30  31
ENDBRANCH  29  30
ENDBRANCH  28  29
ENDBRANCH   4  28
TORSDOF 9
ENDMDL
MODEL 5
REMARK VINA RESULT:      -8.7      4.199     11.582
REMARK  Name = 
REMARK  9 active torsions:
REMARK  status: ('A' for Active; 'I' for Inactive)
REMARK    1  A    between atoms: C_2  and  C_3
REMARK    2  A    between atoms: C_3  and  C_4
REMARK    3  A    between atoms: C_4  and  N_5
REMARK    4  A    between atoms: C_7  and  C_8
REMARK    5  A    between atoms: N_12  and  C_13
REMARK    6  A    between atoms: C_22  and  O_24
REMARK    7  A    between atoms: O_24  and  C_25
REMARK    8  A    between atoms: C_25  and  C_26
REMARK    9  A    between atoms: C_26  and  C_27
REMARK                            x       y       z     vdW  Elec       q    Type
REMARK                         _______ _______ _______ _____ _____    ______ ____
ROOT
ATOM      1  C   UNL     1      -0.384  12.581  20.695  0.00  0.00    +0.000 C 
ATOM      2  C   UNL     1       0.844  11.808  20.142  0.00  0.00    +0.000 C 
ATOM      3  N   UNL     1       0.538  10.739  21.078  0.00  0.00    +0.000 N 
ATOM      4  C   UNL     1       0.552   9.388  20.845  0.00  0.00    +0.000 C 
ATOM      5  O   UNL     1      -0.102   8.572  21.479  0.00  0.00    +0.000 OA
ATOM      6  C   UNL     1      -0.460  11.495  21.816  0.00  0.00    +0.000 C 
ENDROOT
BRANCH   1   7
ATOM      7  N   UNL     1      -1.544  12.478  19.798  0.00  0.00    +0.000 N 
ATOM      8  C   UNL     1      -1.534  12.077  18.492  0.00  0.00    +0.000 A 
ATOM      9  C   UNL     1      -2.846  11.810  18.152  0.00  0.00    +0.000 A 
ATOM     10  C   UNL     1      -3.593  12.198  19.290  0.00  0.00    +0.000 A 
ATOM     11  N   UNL     1      -4.932  12.026  19.395  0.00  0.00    +0.000 N 
ATOM     12  N   UNL     1      -2.795  12.686  20.245  0.00  0.00    +0.000 NA
ATOM     13  H   UNL     1      -5.378  11.288  18.855  0.00  0.00    +0.000 HD
BRANCH  11  14
ATOM     14  C   UNL     1      -5.848  12.766  20.168  0.00  0.00    +0.000 A 
ATOM     15  C   UNL     1      -6.067  12.476  21.524  0.00  0.00    +0.000 A 
ATOM     16  C   UNL     1      -7.008  13.183  22.268  0.00  0.00    +0.000 A 
ATOM     17  C   UNL     1      -7.767  14.180  21.660  0.00  0.00    +0.000 A 
ATOM     18  C   UNL     1      -7.579  14.469  20.310  0.00  0.00    +0.000 A 
ATOM     19  C   UNL     1      -6.624  13.766  19.568  0.00  0.00    +0.000 A 
ENDBRANCH  11  14
BRANCH   9  20
ATOM     20  C   UNL     1      -3.269  11.221  16.906  0.00  0.00    +0.000 C 
ATOM     21  N   UNL     1      -2.349  11.212  15.898  0.00  0.00    +0.000 N 
ATOM     22  O   UNL     1      -4.383  10.738  16.753  0.00  0.00    +0.000 OA
ATOM     23  H   UNL     1      -1.372  11.405  16.080  0.00  0.00    +0.000 HD
ATOM     24  H   UNL     1      -2.569  10.619  15.109  0.00  0.00    +0.000 HD
ENDBRANCH   9  20
ENDBRANCH   1   7
BRANCH   1  25
ATOM     25  C   UNL     1      -0.118  14.036  21.097  0.00  0.00    +0.000 C 
BRANCH  25  27
ATOM     26  N   UNL     1       1.084  15.428  19.213  0.00  0.00    +0.000 NA
ATOM     27  C   UNL     1       0.537  14.820  20.042  0.00  0.00    +0.000 C 
ENDBRANCH  25  27
ENDBRANCH   1  25
BRANCH   4  28
ATOM     28  O   UNL     1       1.277   9.105  19.737  0.00  0.00    +0.000 OA
BRANCH  28  29
ATOM     29  C   UNL     1       1.991   7.851  19.740  0.00  0.00    +0.000 C 
BRANCH  29  30
ATOM     30  C   UNL     1       2.162   7.501  18.262  0.00  0.00    +0.000 C 
BRANCH  30  31
ATOM     31  C   UNL     1       3.171   6.444  17.873  0.00  0.00    +0.000 A 
ATOM     32  C   UNL     1       4.358   6.890  17.263  0.00  0.00    +0.000 A 
ATOM     33  C   UNL     1       5.254   5.991  16.694  0.00  0.00    +0.000 A 
ATOM     34  C   UNL     1       4.955   4.634  16.687  0.00  0.00    +0.000 A 
ATOM     35  C   UNL     1       3.785   4.151  17.286  0.00  0.00    +0.000 A 
ATOM     36  C   UNL     1       3.490   2.779  17.210  0.00  0.00    +0.000 A 
ATOM     37  C   UNL     1       2.372   2.250  17.843  0.00  0.00    +0.000 A 
ATOM     38  C   UNL     1       1.559   3.089  18.587  0.00  0.00    +0.000 A 
ATOM     39  C   UNL     1       1.796   4.467  18.611  0.00  0.00    +0.000 A 
ATOM     40  C   UNL     1       2.900   5.044  17.944  0.00  0.00    +0.000 A 
ENDBRANCH  30  31
ENDBRANCH  29  30
ENDBRANCH  28  29
ENDBRANCH   4  28
TORSDOF 9
ENDMDL
MODEL 6
REMARK VINA RESULT:      -8.6      1.073      1.107
REMARK  Name = 
REMARK  9 active torsions:
REMARK  status: ('A' for Active; 'I' for Inactive)
REMARK    1  A    between atoms: C_2  and  C_3
REMARK    2  A    between atoms: C_3  and  C_4
REMARK    3  A    between atoms: C_4  and  N_5
REMARK    4  A    between atoms: C_7  and  C_8
REMARK    5  A    between atoms: N_12  and  C_13
REMARK    6  A    between atoms: C_22  and  O_24
REMARK    7  A    between atoms: O_24  and  C_25
REMARK    8  A    between atoms: C_25  and  C_26
REMARK    9  A    between atoms: C_26  and  C_27
REMARK                            x       y       z     vdW  Elec       q    Type
REMARK                         _______ _______ _______ _____ _____    ______ ____
ROOT
ATOM      1  C   UNL     1       3.468   4.524  18.256  0.00  0.00    +0.000 C 
ATOM      2  C   UNL     1       2.145   5.310  18.050  0.00  0.00    +0.000 C 
ATOM      3  N   UNL     1       2.245   5.754  19.431  0.00  0.00    +0.000 N 
ATOM      4  C   UNL     1       2.015   7.011  19.929  0.00  0.00    +0.000 C 
ATOM      5  O   UNL     1       2.508   7.445  20.960  0.00  0.00    +0.000 OA
ATOM      6  C   UNL     1       3.334   4.856  19.777  0.00  0.00    +0.000 C 
ENDROOT
BRANCH   1   7
ATOM      7  N   UNL     1       4.619   5.230  17.674  0.00  0.00    +0.000 N 
ATOM      8  C   UNL     1       5.333   6.243  18.250  0.00  0.00    +0.000 A 
ATOM      9  C   UNL     1       6.499   6.367  17.520  0.00  0.00    +0.000 A 
ATOM     10  C   UNL     1       6.341   5.462  16.443  0.00  0.00    +0.000 A 
ATOM     11  N   UNL     1       7.307   5.222  15.525  0.00  0.00    +0.000 N 
ATOM     12  N   UNL     1       5.155   4.847  16.502  0.00  0.00    +0.000 NA
ATOM     13  H   UNL     1       8.280   5.376  15.781  0.00  0.00    +0.000 HD
BRANCH  11  14
ATOM     14  C   UNL     1       7.156   4.787  14.194  0.00  0.00    +0.000 A 
ATOM     15  C   UNL     1       7.866   5.387  13.141  0.00  0.00    +0.000 A 
ATOM     16  C   UNL     1       7.675   4.980  11.822  0.00  0.00    +0.000 A 
ATOM     17  C   UNL     1       6.752   3.981  11.530  0.00  0.00    +0.000 A 
ATOM     18  C   UNL     1       6.024   3.386  12.560  0.00  0.00    +0.000 A 
ATOM     19  C   UNL     1       6.226   3.787  13.884  0.00  0.00    +0.000 A 
ENDBRANCH  11  14
BRANCH   9  20
ATOM     20  C   UNL     1       7.604   7.223  17.874  0.00  0.00    +0.000 C 
ATOM     21  N   UNL     1       8.294   6.884  19.002  0.00  0.00    +0.000 N 
ATOM     22  O   UNL     1       7.925   8.193  17.201  0.00  0.00    +0.000 OA
ATOM     23  H   UNL     1       8.177   5.976  19.433  0.00  0.00    +0.000 HD
ATOM     24  H   UNL     1       9.183   7.351  19.129  0.00  0.00    +0.000 HD
ENDBRANCH   9  20
ENDBRANCH   1   7
BRANCH   1  25
ATOM     25  C   UNL     1       3.436   3.056  17.818  0.00  0.00    +0.000 C 
BRANCH  25  27
ATOM     26  N   UNL     1       1.512   1.655  18.945  0.00  0.00    +0.000 NA
ATOM     27  C   UNL     1       2.368   2.281  18.463  0.00  0.00    +0.000 C 
ENDBRANCH  25  27
ENDBRANCH   1  25
BRANCH   4  28
ATOM     28  O   UNL     1       1.282   7.740  19.054  0.00  0.00    +0.000 OA
BRANCH  28  29
ATOM     29  C   UNL     1       1.903   8.935  18.535  0.00  0.00    +0.000 C 
BRANCH  29  30
ATOM     30  C   UNL     1       0.819   9.596  17.685  0.00  0.00    +0.000 C 
BRANCH  30  31
ATOM     31  C   UNL     1      -0.142  10.558  18.346  0.00  0.00    +0.000 A 
ATOM     32  C   UNL     1       0.299  11.192  19.523  0.00  0.00    +0.000 A 
ATOM     33  C   UNL     1      -0.575  11.936  20.308  0.00  0.00    +0.000 A 
ATOM     34  C   UNL     1      -1.916  12.023  19.951  0.00  0.00    +0.000 A 
ATOM     35  C   UNL     1      -2.392  11.410  18.786  0.00  0.00    +0.000 A 
ATOM     36  C   UNL     1      -3.764  11.472  18.488  0.00  0.00    +0.000 A 
ATOM     37  C   UNL     1      -4.268  10.930  17.312  0.00  0.00    +0.000 A 
ATOM     38  C   UNL     1      -3.393  10.350  16.408  0.00  0.00    +0.000 A 
ATOM     39  C   UNL     1      -2.037  10.212  16.724  0.00  0.00    +0.000 A 
ATOM     40  C   UNL     1      -1.499  10.716  17.929  0.00  0.00    +0.000 A 
ENDBRANCH  30  31
ENDBRANCH  29  30
ENDBRANCH  28  29
ENDBRANCH   4  28
TORSDOF 9
ENDMDL
MODEL 7
REMARK VINA RESULT:      -8.5      4.963      9.990
REMARK  Name = 
REMARK  9 active torsions:
REMARK  status: ('A' for Active; 'I' for Inactive)
REMARK    1  A    between atoms: C_2  and  C_3
REMARK    2  A    between atoms: C_3  and  C_4
REMARK    3  A    between atoms: C_4  and  N_5
REMARK    4  A    between atoms: C_7  and  C_8
REMARK    5  A    between atoms: N_12  and  C_13
REMARK    6  A    between atoms: C_22  and  O_24
REMARK    7  A    between atoms: O_24  and  C_25
REMARK    8  A    between atoms: C_25  and  C_26
REMARK    9  A    between atoms: C_26  and  C_27
REMARK                            x       y       z     vdW  Elec       q    Type
REMARK                         _______ _______ _______ _____ _____    ______ ____
ROOT
ATOM      1  C   UNL     1      -0.255  12.107  20.612  0.00  0.00    +0.000 C 
ATOM      2  C   UNL     1       0.797  10.971  20.493  0.00  0.00    +0.000 C 
ATOM      3  N   UNL     1      -0.048  10.354  19.484  0.00  0.00    +0.000 N 
ATOM      4  C   UNL     1       0.337   9.788  18.296  0.00  0.00    +0.000 C 
ATOM      5  O   UNL     1      -0.386   9.681  17.316  0.00  0.00    +0.000 OA
ATOM      6  C   UNL     1      -1.185  11.230  19.714  0.00  0.00    +0.000 C 
ENDROOT
BRANCH   1   7
ATOM      7  N   UNL     1       0.165  13.318  19.891  0.00  0.00    +0.000 N 
ATOM      8  C   UNL     1      -0.652  14.246  19.308  0.00  0.00    +0.000 A 
ATOM      9  C   UNL     1       0.131  15.356  19.054  0.00  0.00    +0.000 A 
ATOM     10  C   UNL     1       1.441  14.953  19.411  0.00  0.00    +0.000 A 
ATOM     11  N   UNL     1       2.508  15.786  19.381  0.00  0.00    +0.000 N 
ATOM     12  N   UNL     1       1.456  13.684  19.830  0.00  0.00    +0.000 NA
ATOM     13  H   UNL     1       2.355  16.787  19.478  0.00  0.00    +0.000 HD
BRANCH  11  14
ATOM     14  C   UNL     1       3.867  15.456  19.210  0.00  0.00    +0.000 A 
ATOM     15  C   UNL     1       4.792  15.589  20.258  0.00  0.00    +0.000 A 
ATOM     16  C   UNL     1       6.142  15.304  20.066  0.00  0.00    +0.000 A 
ATOM     17  C   UNL     1       6.595  14.903  18.813  0.00  0.00    +0.000 A 
ATOM     18  C   UNL     1       5.696  14.784  17.754  0.00  0.00    +0.000 A 
ATOM     19  C   UNL     1       4.339  15.059  17.952  0.00  0.00    +0.000 A 
ENDBRANCH  11  14
BRANCH   9  20
ATOM     20  C   UNL     1      -0.366  16.621  18.575  0.00  0.00    +0.000 C 
ATOM     21  N   UNL     1      -1.630  16.959  18.962  0.00  0.00    +0.000 N 
ATOM     22  O   UNL     1       0.304  17.366  17.873  0.00  0.00    +0.000 OA
ATOM     23  H   UNL     1      -2.100  16.462  19.708  0.00  0.00    +0.000 HD
ATOM     24  H   UNL     1      -1.893  17.924  18.805  0.00  0.00    +0.000 HD
ENDBRANCH   9  20
ENDBRANCH   1   7
BRANCH   1  25
ATOM     25  C   UNL     1      -0.708  12.437  22.038  0.00  0.00    +0.000 C 
BRANCH  25  27
ATOM     26  N   UNL     1      -1.022  10.322  23.577  0.00  0.00    +0.000 NA
ATOM     27  C   UNL     1      -0.875  11.247  22.884  0.00  0.00    +0.000 C 
ENDBRANCH  25  27
ENDBRANCH   1  25
BRANCH   4  28
ATOM     28  O   UNL     1       1.659   9.493  18.318  0.00  0.00    +0.000 OA
BRANCH  28  29
ATOM     29  C   UNL     1       2.066   8.312  17.595  0.00  0.00    +0.000 C 
BRANCH  29  30
ATOM     30  C   UNL     1       2.924   7.528  18.588  0.00  0.00    +0.000 C 
BRANCH  30  31
ATOM     31  C   UNL     1       3.265   6.087  18.280  0.00  0.00    +0.000 A 
ATOM     32  C   UNL     1       4.244   5.861  17.294  0.00  0.00    +0.000 A 
ATOM     33  C   UNL     1       4.484   4.582  16.802  0.00  0.00    +0.000 A 
ATOM     34  C   UNL     1       3.717   3.516  17.257  0.00  0.00    +0.000 A 
ATOM     35  C   UNL     1       2.736   3.700  18.239  0.00  0.00    +0.000 A 
ATOM     36  C   UNL     1       1.944   2.608  18.632  0.00  0.00    +0.000 A 
ATOM     37  C   UNL     1       1.002   2.735  19.646  0.00  0.00    +0.000 A 
ATOM     38  C   UNL     1       0.871   3.950  20.297  0.00  0.00    +0.000 A 
ATOM     39  C   UNL     1       1.598   5.066  19.866  0.00  0.00    +0.000 A 
ATOM     40  C   UNL     1       2.534   4.982  18.812  0.00  0.00    +0.000 A 
ENDBRANCH  30  31
ENDBRANCH  29  30
ENDBRANCH  28  29
ENDBRANCH   4  28
TORSDOF 9
ENDMDL
MODEL 8
REMARK VINA RESULT:      -8.5      3.998     11.335
REMARK  Name = 
REMARK  9 active torsions:
REMARK  status: ('A' for Active; 'I' for Inactive)
REMARK    1  A    between atoms: C_2  and  C_3
REMARK    2  A    between atoms: C_3  and  C_4
REMARK    3  A    between atoms: C_4  and  N_5
REMARK    4  A    between atoms: C_7  and  C_8
REMARK    5  A    between atoms: N_12  and  C_13
REMARK    6  A    between atoms: C_22  and  O_24
REMARK    7  A    between atoms: O_24  and  C_25
REMARK    8  A    between atoms: C_25  and  C_26
REMARK    9  A    between atoms: C_26  and  C_27
REMARK                            x       y       z     vdW  Elec       q    Type
REMARK                         _______ _______ _______ _____ _____    ______ ____
ROOT
ATOM      1  C   UNL     1       0.672  12.005  19.303  0.00  0.00    +0.000 C 
ATOM      2  C   UNL     1       1.090  10.524  19.097  0.00  0.00    +0.000 C 
ATOM      3  N   UNL     1       1.213  10.403  20.540  0.00  0.00    +0.000 N 
ATOM      4  C   UNL     1       0.791   9.369  21.337  0.00  0.00    +0.000 C 
ATOM      5  O   UNL     1       0.517   9.480  22.523  0.00  0.00    +0.000 OA
ATOM      6  C   UNL     1       1.079  11.826  20.801  0.00  0.00    +0.000 C 
ENDROOT
BRANCH   1   7
ATOM      7  N   UNL     1      -0.782  12.184  19.181  0.00  0.00    +0.000 N 
ATOM      8  C   UNL     1      -1.557  11.869  18.100  0.00  0.00    +0.000 A 
ATOM      9  C   UNL     1      -2.868  11.883  18.538  0.00  0.00    +0.000 A 
ATOM     10  C   UNL     1      -2.789  12.339  19.876  0.00  0.00    +0.000 A 
ATOM     11  N   UNL     1      -3.863  12.423  20.697  0.00  0.00    +0.000 N 
ATOM     12  N   UNL     1      -1.525  12.603  20.221  0.00  0.00    +0.000 NA
ATOM     13  H   UNL     1      -4.664  11.821  20.524  0.00  0.00    +0.000 HD
BRANCH  11  14
ATOM     14  C   UNL     1      -4.051  13.278  21.800  0.00  0.00    +0.000 A 
ATOM     15  C   UNL     1      -4.325  14.645  21.632  0.00  0.00    +0.000 A 
ATOM     16  C   UNL     1      -4.465  15.491  22.729  0.00  0.00    +0.000 A 
ATOM     17  C   UNL     1      -4.309  14.989  24.018  0.00  0.00    +0.000 A 
ATOM     18  C   UNL     1      -4.018  13.638  24.206  0.00  0.00    +0.000 A 
ATOM     19  C   UNL     1      -3.891  12.788  23.103  0.00  0.00    +0.000 A 
ENDBRANCH  11  14
BRANCH   9  20
ATOM     20  C   UNL     1      -4.001  11.465  17.752  0.00  0.00    +0.000 C 
ATOM     21  N   UNL     1      -3.869  11.569  16.398  0.00  0.00    +0.000 N 
ATOM     22  O   UNL     1      -5.024  11.024  18.259  0.00  0.00    +0.000 OA
ATOM     23  H   UNL     1      -2.965  11.720  15.971  0.00  0.00    +0.000 HD
ATOM     24  H   UNL     1      -4.570  11.084  15.851  0.00  0.00    +0.000 HD
ENDBRANCH   9  20
ENDBRANCH   1   7
BRANCH   1  25
ATOM     25  C   UNL     1       1.432  13.027  18.451  0.00  0.00    +0.000 C 
BRANCH  25  27
ATOM     26  N   UNL     1       1.530  15.433  19.518  0.00  0.00    +0.000 NA
ATOM     27  C   UNL     1       1.492  14.362  19.062  0.00  0.00    +0.000 C 
ENDBRANCH  25  27
ENDBRANCH   1  25
BRANCH   4  28
ATOM     28  O   UNL     1       0.590   8.252  20.597  0.00  0.00    +0.000 OA
BRANCH  28  29
ATOM     29  C   UNL     1       1.479   7.145  20.852  0.00  0.00    +0.000 C 
BRANCH  29  30
ATOM     30  C   UNL     1       2.429   7.128  19.656  0.00  0.00    +0.000 C 
BRANCH  30  31
ATOM     31  C   UNL     1       2.532   5.871  18.822  0.00  0.00    +0.000 A 
ATOM     32  C   UNL     1       1.754   4.771  19.229  0.00  0.00    +0.000 A 
ATOM     33  C   UNL     1       1.927   3.518  18.652  0.00  0.00    +0.000 A 
ATOM     34  C   UNL     1       2.911   3.334  17.688  0.00  0.00    +0.000 A 
ATOM     35  C   UNL     1       3.703   4.404  17.255  0.00  0.00    +0.000 A 
ATOM     36  C   UNL     1       4.725   4.168  16.320  0.00  0.00    +0.000 A 
ATOM     37  C   UNL     1       5.493   5.211  15.817  0.00  0.00    +0.000 A 
ATOM     38  C   UNL     1       5.218   6.507  16.225  0.00  0.00    +0.000 A 
ATOM     39  C   UNL     1       4.256   6.750  17.211  0.00  0.00    +0.000 A 
ATOM     40  C   UNL     1       3.486   5.707  17.772  0.00  0.00    +0.000 A 
ENDBRANCH  30  31
ENDBRANCH  29  30
ENDBRANCH  28  29
ENDBRANCH   4  28
TORSDOF 9
ENDMDL
MODEL 9
REMARK VINA RESULT:      -8.4      4.053     11.364
REMARK  Name = 
REMARK  9 active torsions:
REMARK  status: ('A' for Active; 'I' for Inactive)
REMARK    1  A    between atoms: C_2  and  C_3
REMARK    2  A    between atoms: C_3  and  C_4
REMARK    3  A    between atoms: C_4  and  N_5
REMARK    4  A    between atoms: C_7  and  C_8
REMARK    5  A    between atoms: N_12  and  C_13
REMARK    6  A    between atoms: C_22  and  O_24
REMARK    7  A    between atoms: O_24  and  C_25
REMARK    8  A    between atoms: C_25  and  C_26
REMARK    9  A    between atoms: C_26  and  C_27
REMARK                            x       y       z     vdW  Elec       q    Type
REMARK                         _______ _______ _______ _____ _____    ______ ____
ROOT
ATOM      1  C   UNL     1       0.187  12.367  20.218  0.00  0.00    +0.000 C 
ATOM      2  C   UNL     1       1.052  11.126  19.865  0.00  0.00    +0.000 C 
ATOM      3  N   UNL     1       0.638  10.533  21.126  0.00  0.00    +0.000 N 
ATOM      4  C   UNL     1       0.252   9.238  21.360  0.00  0.00    +0.000 C 
ATOM      5  O   UNL     1      -0.476   8.891  22.279  0.00  0.00    +0.000 OA
ATOM      6  C   UNL     1       0.019  11.743  21.641  0.00  0.00    +0.000 C 
ENDROOT
BRANCH   1   7
ATOM      7  N   UNL     1      -1.095  12.362  19.498  0.00  0.00    +0.000 N 
ATOM      8  C   UNL     1      -1.313  11.931  18.220  0.00  0.00    +0.000 A 
ATOM      9  C   UNL     1      -2.680  11.792  18.079  0.00  0.00    +0.000 A 
ATOM     10  C   UNL     1      -3.213  12.282  19.296  0.00  0.00    +0.000 A 
ATOM     11  N   UNL     1      -4.533  12.251  19.595  0.00  0.00    +0.000 N 
ATOM     12  N   UNL     1      -2.242  12.708  20.109  0.00  0.00    +0.000 NA
ATOM     13  H   UNL     1      -5.123  11.550  19.151  0.00  0.00    +0.000 HD
BRANCH  11  14
ATOM     14  C   UNL     1      -5.251  13.099  20.460  0.00  0.00    +0.000 A 
ATOM     15  C   UNL     1      -5.676  14.374  20.054  0.00  0.00    +0.000 A 
ATOM     16  C   UNL     1      -6.345  15.223  20.931  0.00  0.00    +0.000 A 
ATOM     17  C   UNL     1      -6.582  14.821  22.242  0.00  0.00    +0.000 A 
ATOM     18  C   UNL     1      -6.152  13.566  22.671  0.00  0.00    +0.000 A 
ATOM     19  C   UNL     1      -5.491  12.710  21.785  0.00  0.00    +0.000 A 
ENDBRANCH  11  14
BRANCH   9  20
ATOM     20  C   UNL     1      -3.334  11.221  16.928  0.00  0.00    +0.000 C 
ATOM     21  N   UNL     1      -2.624  11.229  15.763  0.00  0.00    +0.000 N 
ATOM     22  O   UNL     1      -4.457  10.737  16.985  0.00  0.00    +0.000 OA
ATOM     23  H   UNL     1      -1.631  11.422  15.757  0.00  0.00    +0.000 HD
ATOM     24  H   UNL     1      -2.992  10.647  15.022  0.00  0.00    +0.000 HD
ENDBRANCH   9  20
ENDBRANCH   1   7
BRANCH   1  25
ATOM     25  C   UNL     1       0.894  13.720  20.087  0.00  0.00    +0.000 C 
BRANCH  25  27
ATOM     26  N   UNL     1       2.900  13.661  18.382  0.00  0.00    +0.000 NA
ATOM     27  C   UNL     1       2.023  13.697  19.148  0.00  0.00    +0.000 C 
ENDBRANCH  25  27
ENDBRANCH   1  25
BRANCH   4  28
ATOM     28  O   UNL     1       0.676   8.429  20.359  0.00  0.00    +0.000 OA
BRANCH  28  29
ATOM     29  C   UNL     1       1.464   7.286  20.748  0.00  0.00    +0.000 C 
BRANCH  29  30
ATOM     30  C   UNL     1       2.531   7.164  19.661  0.00  0.00    +0.000 C 
BRANCH  30  31
ATOM     31  C   UNL     1       2.588   5.901  18.831  0.00  0.00    +0.000 A 
ATOM     32  C   UNL     1       1.794   4.820  19.261  0.00  0.00    +0.000 A 
ATOM     33  C   UNL     1       1.926   3.561  18.686  0.00  0.00    +0.000 A 
ATOM     34  C   UNL     1       2.886   3.351  17.702  0.00  0.00    +0.000 A 
ATOM     35  C   UNL     1       3.691   4.401  17.246  0.00  0.00    +0.000 A 
ATOM     36  C   UNL     1       4.688   4.138  16.291  0.00  0.00    +0.000 A 
ATOM     37  C   UNL     1       5.467   5.162  15.767  0.00  0.00    +0.000 A 
ATOM     38  C   UNL     1       5.231   6.464  16.174  0.00  0.00    +0.000 A 
ATOM     39  C   UNL     1       4.296   6.734  17.179  0.00  0.00    +0.000 A 
ATOM     40  C   UNL     1       3.514   5.711  17.762  0.00  0.00    +0.000 A 
ENDBRANCH  30  31
ENDBRANCH  29  30
ENDBRANCH  28  29
ENDBRANCH   4  28
TORSDOF 9
ENDMDL
