MODEL 1
REMARK VINA RESULT:      -6.6      0.000      0.000
REMARK  Name = 
REMARK  4 active torsions:
REMARK  status: ('A' for Active; 'I' for Inactive)
REMARK    1  A    between atoms: C_2  and  C_3
REMARK    2  A    between atoms: C_3  and  N_4
REMARK    3  A    between atoms: N_19  and  C_20
REMARK    4  A    between atoms: C_20  and  C_21
REMARK                            x       y       z     vdW  Elec       q    Type
REMARK                         _______ _______ _______ _____ _____    ______ ____
ROOT
ATOM      1  N   UNL     1       6.925   3.864  11.938  0.00  0.00    +0.000 N 
ATOM      2  C   UNL     1       5.674   3.646  12.477  0.00  0.00    +0.000 C 
ATOM      3  O   UNL     1       4.631   3.460  11.869  0.00  0.00    +0.000 OA
ATOM      4  C   UNL     1       5.848   3.552  13.971  0.00  0.00    +0.000 C 
ATOM      5  C   UNL     1       4.765   4.177  14.848  0.00  0.00    +0.000 C 
ATOM      6  C   UNL     1       4.819   5.699  14.760  0.00  0.00    +0.000 C 
ATOM      7  C   UNL     1       6.018   6.253  15.012  0.00  0.00    +0.000 C 
ATOM      8  C   UNL     1       7.107   5.263  15.365  0.00  0.00    +0.000 C 
ATOM      9  C   UNL     1       7.213   4.234  14.224  0.00  0.00    +0.000 C 
ATOM     10  C   UNL     1       7.486   4.754  12.832  0.00  0.00    +0.000 C 
ATOM     11  O   UNL     1       7.926   5.860  12.562  0.00  0.00    +0.000 OA
ATOM     12  C   UNL     1       6.592   4.481  16.623  0.00  0.00    +0.000 C 
ATOM     13  C   UNL     1       5.841   5.309  17.706  0.00  0.00    +0.000 C 
ATOM     14  C   UNL     1       5.986   5.106  19.248  0.00  0.00    +0.000 C 
ATOM     15  O   UNL     1       7.026   5.023  19.897  0.00  0.00    +0.000 OA
ATOM     16  N   UNL     1       4.722   4.787  19.731  0.00  0.00    +0.000 N 
ATOM     17  C   UNL     1       4.302   3.818  18.826  0.00  0.00    +0.000 C 
ATOM     18  O   UNL     1       3.999   2.670  19.103  0.00  0.00    +0.000 OA
ATOM     19  C   UNL     1       4.540   4.458  17.418  0.00  0.00    +0.000 C 
ATOM     20  C   UNL     1       5.241   3.761  16.272  0.00  0.00    +0.000 C 
ENDROOT
BRANCH   1  21
ATOM     21  C   UNL     1       7.594   2.576  11.759  0.00  0.00    +0.000 C 
BRANCH  21  23
ATOM     22  C   UNL     1       6.279   0.452  11.198  0.00  0.00    +0.000 C 
ATOM     23  C   UNL     1       6.907   1.587  10.873  0.00  0.00    +0.000 C 
ENDBRANCH  21  23
ENDBRANCH   1  21
BRANCH  16  24
ATOM     24  C   UNL     1       3.769   5.907  19.670  0.00  0.00    +0.000 C 
BRANCH  24  25
ATOM     25  C   UNL     1       2.362   5.616  20.031  0.00  0.00    +0.000 C 
ATOM     26  C   UNL     1       1.507   6.374  20.732  0.00  0.00    +0.000 C 
ENDBRANCH  24  25
ENDBRANCH  16  24
TORSDOF 4
ENDMDL
MODEL 2
REMARK VINA RESULT:      -6.4      3.563      5.844
REMARK  Name = 
REMARK  4 active torsions:
REMARK  status: ('A' for Active; 'I' for Inactive)
REMARK    1  A    between atoms: C_2  and  C_3
REMARK    2  A    between atoms: C_3  and  N_4
REMARK    3  A    between atoms: N_19  and  C_20
REMARK    4  A    between atoms: C_20  and  C_21
REMARK                            x       y       z     vdW  Elec       q    Type
REMARK                         _______ _______ _______ _____ _____    ______ ____
ROOT
ATOM      1  N   UNL     1       8.039   7.324  17.363  0.00  0.00    +0.000 N 
ATOM      2  C   UNL     1       7.694   6.740  18.566  0.00  0.00    +0.000 C 
ATOM      3  O   UNL     1       8.429   6.523  19.517  0.00  0.00    +0.000 OA
ATOM      4  C   UNL     1       6.202   6.532  18.543  0.00  0.00    +0.000 C 
ATOM      5  C   UNL     1       5.659   5.251  19.173  0.00  0.00    +0.000 C 
ATOM      6  C   UNL     1       6.020   4.040  18.317  0.00  0.00    +0.000 C 
ATOM      7  C   UNL     1       5.670   4.121  17.021  0.00  0.00    +0.000 C 
ATOM      8  C   UNL     1       4.955   5.399  16.640  0.00  0.00    +0.000 C 
ATOM      9  C   UNL     1       5.847   6.590  17.038  0.00  0.00    +0.000 C 
ATOM     10  C   UNL     1       7.243   6.646  16.463  0.00  0.00    +0.000 C 
ATOM     11  O   UNL     1       7.634   6.019  15.490  0.00  0.00    +0.000 OA
ATOM     12  C   UNL     1       3.682   5.473  17.554  0.00  0.00    +0.000 C 
ATOM     13  C   UNL     1       2.920   4.139  17.805  0.00  0.00    +0.000 C 
ATOM     14  C   UNL     1       1.366   3.993  17.868  0.00  0.00    +0.000 C 
ATOM     15  O   UNL     1       0.542   4.421  17.064  0.00  0.00    +0.000 OA
ATOM     16  N   UNL     1       1.060   3.501  19.131  0.00  0.00    +0.000 N 
ATOM     17  C   UNL     1       1.827   4.318  19.955  0.00  0.00    +0.000 C 
ATOM     18  O   UNL     1       1.398   5.046  20.833  0.00  0.00    +0.000 OA
ATOM     19  C   UNL     1       3.266   4.261  19.343  0.00  0.00    +0.000 C 
ATOM     20  C   UNL     1       4.122   5.477  19.062  0.00  0.00    +0.000 C 
ENDROOT
BRANCH   1  21
ATOM     21  C   UNL     1       7.854   8.770  17.471  0.00  0.00    +0.000 C 
BRANCH  21  23
ATOM     22  C   UNL     1       9.166  10.729  18.470  0.00  0.00    +0.000 C 
ATOM     23  C   UNL     1       8.700   9.476  18.481  0.00  0.00    +0.000 C 
ENDBRANCH  21  23
ENDBRANCH   1  21
BRANCH  16  24
ATOM     24  C   UNL     1       1.494   2.110  19.342  0.00  0.00    +0.000 C 
BRANCH  24  25
ATOM     25  C   UNL     1       2.484   1.560  18.387  0.00  0.00    +0.000 C 
ATOM     26  C   UNL     1       3.677   1.006  18.648  0.00  0.00    +0.000 C 
ENDBRANCH  24  25
ENDBRANCH  16  24
TORSDOF 4
ENDMDL
MODEL 3
REMARK VINA RESULT:      -6.4      9.394     13.134
REMARK  Name = 
REMARK  4 active torsions:
REMARK  status: ('A' for Active; 'I' for Inactive)
REMARK    1  A    between atoms: C_2  and  C_3
REMARK    2  A    between atoms: C_3  and  N_4
REMARK    3  A    between atoms: N_19  and  C_20
REMARK    4  A    between atoms: C_20  and  C_21
REMARK                            x       y       z     vdW  Elec       q    Type
REMARK                         _______ _______ _______ _____ _____    ______ ____
ROOT
ATOM      1  N   UNL     1       0.810  11.599  19.290  0.00  0.00    +0.000 N 
ATOM      2  C   UNL     1      -0.260  12.374  18.889  0.00  0.00    +0.000 C 
ATOM      3  O   UNL     1      -0.339  13.053  17.877  0.00  0.00    +0.000 OA
ATOM      4  C   UNL     1      -1.375  12.127  19.872  0.00  0.00    +0.000 C 
ATOM      5  C   UNL     1      -2.242  13.320  20.268  0.00  0.00    +0.000 C 
ATOM      6  C   UNL     1      -1.449  14.289  21.140  0.00  0.00    +0.000 C 
ATOM      7  C   UNL     1      -0.857  13.748  22.219  0.00  0.00    +0.000 C 
ATOM      8  C   UNL     1      -1.101  12.265  22.394  0.00  0.00    +0.000 C 
ATOM      9  C   UNL     1      -0.651  11.546  21.109  0.00  0.00    +0.000 C 
ATOM     10  C   UNL     1       0.780  11.735  20.662  0.00  0.00    +0.000 C 
ATOM     11  O   UNL     1       1.692  12.146  21.363  0.00  0.00    +0.000 OA
ATOM     12  C   UNL     1      -2.658  12.089  22.479  0.00  0.00    +0.000 C 
ATOM     13  C   UNL     1      -3.442  13.160  23.292  0.00  0.00    +0.000 C 
ATOM     14  C   UNL     1      -4.658  12.862  24.226  0.00  0.00    +0.000 C 
ATOM     15  O   UNL     1      -4.735  12.005  25.103  0.00  0.00    +0.000 OA
ATOM     16  N   UNL     1      -5.736  13.581  23.723  0.00  0.00    +0.000 N 
ATOM     17  C   UNL     1      -5.672  13.288  22.366  0.00  0.00    +0.000 C 
ATOM     18  O   UNL     1      -6.548  12.746  21.713  0.00  0.00    +0.000 OA
ATOM     19  C   UNL     1      -4.189  13.583  21.964  0.00  0.00    +0.000 C 
ATOM     20  C   UNL     1      -3.318  12.638  21.164  0.00  0.00    +0.000 C 
ENDROOT
BRANCH   1  21
ATOM     21  C   UNL     1       0.650  10.253  18.741  0.00  0.00    +0.000 C 
BRANCH  21  23
ATOM     22  C   UNL     1       2.216   8.427  17.863  0.00  0.00    +0.000 C 
ATOM     23  C   UNL     1       1.817   9.697  17.991  0.00  0.00    +0.000 C 
ENDBRANCH  21  23
ENDBRANCH   1  21
BRANCH  16  24
ATOM     24  C   UNL     1      -5.595  15.039  23.879  0.00  0.00    +0.000 C 
BRANCH  24  25
ATOM     25  C   UNL     1      -6.819  15.856  23.712  0.00  0.00    +0.000 C 
ATOM     26  C   UNL     1      -6.921  17.138  23.334  0.00  0.00    +0.000 C 
ENDBRANCH  24  25
ENDBRANCH  16  24
TORSDOF 4
ENDMDL
MODEL 4
REMARK VINA RESULT:      -6.4      8.330     11.621
REMARK  Name = 
REMARK  4 active torsions:
REMARK  status: ('A' for Active; 'I' for Inactive)
REMARK    1  A    between atoms: C_2  and  C_3
REMARK    2  A    between atoms: C_3  and  N_4
REMARK    3  A    between atoms: N_19  and  C_20
REMARK    4  A    between atoms: C_20  and  C_21
REMARK                            x       y       z     vdW  Elec       q    Type
REMARK                         _______ _______ _______ _____ _____    ______ ____
ROOT
ATOM      1  N   UNL     1       1.126  10.186  18.202  0.00  0.00    +0.000 N 
ATOM      2  C   UNL     1      -0.241  10.187  18.394  0.00  0.00    +0.000 C 
ATOM      3  O   UNL     1      -1.092   9.743  17.638  0.00  0.00    +0.000 OA
ATOM      4  C   UNL     1      -0.491  10.725  19.780  0.00  0.00    +0.000 C 
ATOM      5  C   UNL     1      -1.701  11.636  19.974  0.00  0.00    +0.000 C 
ATOM      6  C   UNL     1      -1.468  12.984  19.300  0.00  0.00    +0.000 C 
ATOM      7  C   UNL     1      -0.333  13.617  19.645  0.00  0.00    +0.000 C 
ATOM      8  C   UNL     1       0.511  12.885  20.666  0.00  0.00    +0.000 C 
ATOM      9  C   UNL     1       0.817  11.477  20.121  0.00  0.00    +0.000 C 
ATOM     10  C   UNL     1       1.510  11.377  18.783  0.00  0.00    +0.000 C 
ATOM     11  O   UNL     1       2.120  12.280  18.231  0.00  0.00    +0.000 OA
ATOM     12  C   UNL     1      -0.405  12.686  21.923  0.00  0.00    +0.000 C 
ATOM     13  C   UNL     1      -1.333  13.874  22.312  0.00  0.00    +0.000 C 
ATOM     14  C   UNL     1      -1.636  14.333  23.774  0.00  0.00    +0.000 C 
ATOM     15  O   UNL     1      -0.827  14.548  24.673  0.00  0.00    +0.000 OA
ATOM     16  N   UNL     1      -3.009  14.218  23.954  0.00  0.00    +0.000 N 
ATOM     17  C   UNL     1      -3.265  12.953  23.437  0.00  0.00    +0.000 C 
ATOM     18  O   UNL     1      -3.749  12.018  24.051  0.00  0.00    +0.000 OA
ATOM     19  C   UNL     1      -2.587  12.955  22.026  0.00  0.00    +0.000 C 
ATOM     20  C   UNL     1      -1.677  11.859  21.516  0.00  0.00    +0.000 C 
ENDROOT
BRANCH   1  21
ATOM     21  C   UNL     1       1.680   8.953  18.760  0.00  0.00    +0.000 C 
BRANCH  21  23
ATOM     22  C   UNL     1       3.068   6.924  18.044  0.00  0.00    +0.000 C 
ATOM     23  C   UNL     1       2.536   8.135  17.848  0.00  0.00    +0.000 C 
ENDBRANCH  21  23
ENDBRANCH   1  21
BRANCH  16  24
ATOM     24  C   UNL     1      -3.789  15.193  23.172  0.00  0.00    +0.000 C 
BRANCH  24  25
ATOM     25  C   UNL     1      -5.034  15.709  23.787  0.00  0.00    +0.000 C 
ATOM     26  C   UNL     1      -6.249  15.144  23.809  0.00  0.00    +0.000 C 
ENDBRANCH  24  25
ENDBRANCH  16  24
TORSDOF 4
ENDMDL
MODEL 5
REMARK VINA RESULT:      -6.2      3.818      6.425
REMARK  Name = 
REMARK  4 active torsions:
REMARK  status: ('A' for Active; 'I' for Inactive)
REMARK    1  A    between atoms: C_2  and  C_3
REMARK    2  A    between atoms: C_3  and  N_4
REMARK    3  A    between atoms: N_19  and  C_20
REMARK    4  A    between atoms: C_20  and  C_21
REMARK                            x       y       z     vdW  Elec       q    Type
REMARK                         _______ _______ _______ _____ _____    ______ ____
ROOT
ATOM      1  N   UNL     1       1.073   3.305  19.192  0.00  0.00    +0.000 N 
ATOM      2  C   UNL     1       1.856   4.024  20.073  0.00  0.00    +0.000 C 
ATOM      3  O   UNL     1       1.561   4.371  21.206  0.00  0.00    +0.000 OA
ATOM      4  C   UNL     1       3.205   4.195  19.424  0.00  0.00    +0.000 C 
ATOM      5  C   UNL     1       3.918   5.531  19.622  0.00  0.00    +0.000 C 
ATOM      6  C   UNL     1       3.207   6.636  18.846  0.00  0.00    +0.000 C 
ATOM      7  C   UNL     1       3.006   6.390  17.539  0.00  0.00    +0.000 C 
ATOM      8  C   UNL     1       3.544   5.060  17.058  0.00  0.00    +0.000 C 
ATOM      9  C   UNL     1       2.924   3.947  17.923  0.00  0.00    +0.000 C 
ATOM     10  C   UNL     1       1.417   3.851  17.972  0.00  0.00    +0.000 C 
ATOM     11  O   UNL     1       0.649   4.363  17.173  0.00  0.00    +0.000 OA
ATOM     12  C   UNL     1       5.079   5.071  17.381  0.00  0.00    +0.000 C 
ATOM     13  C   UNL     1       5.838   6.408  17.141  0.00  0.00    +0.000 C 
ATOM     14  C   UNL     1       7.280   6.526  16.552  0.00  0.00    +0.000 C 
ATOM     15  O   UNL     1       7.721   5.986  15.541  0.00  0.00    +0.000 OA
ATOM     16  N   UNL     1       8.055   7.162  17.515  0.00  0.00    +0.000 N 
ATOM     17  C   UNL     1       7.711   6.469  18.669  0.00  0.00    +0.000 C 
ATOM     18  O   UNL     1       8.479   5.843  19.380  0.00  0.00    +0.000 OA
ATOM     19  C   UNL     1       6.146   6.482  18.690  0.00  0.00    +0.000 C 
ATOM     20  C   UNL     1       5.286   5.260  18.927  0.00  0.00    +0.000 C 
ENDROOT
BRANCH   1  21
ATOM     21  C   UNL     1       1.328   1.879  19.389  0.00  0.00    +0.000 C 
BRANCH  21  23
ATOM     22  C   UNL     1       3.664   0.981  18.850  0.00  0.00    +0.000 C 
ATOM     23  C   UNL     1       2.396   1.270  18.539  0.00  0.00    +0.000 C 
ENDBRANCH  21  23
ENDBRANCH   1  21
BRANCH  16  24
ATOM     24  C   UNL     1       7.702   8.578  17.714  0.00  0.00    +0.000 C 
BRANCH  24  25
ATOM     25  C   UNL     1       8.677   9.420  18.446  0.00  0.00    +0.000 C 
ATOM     26  C   UNL     1       8.894  10.737  18.330  0.00  0.00    +0.000 C 
ENDBRANCH  24  25
ENDBRANCH  16  24
TORSDOF 4
ENDMDL
MODEL 6
REMARK VINA RESULT:      -6.2      3.834      5.647
REMARK  Name = 
REMARK  4 active torsions:
REMARK  status: ('A' for Active; 'I' for Inactive)
REMARK    1  A    between atoms: C_2  and  C_3
REMARK    2  A    between atoms: C_3  and  N_4
REMARK    3  A    between atoms: N_19  and  C_20
REMARK    4  A    between atoms: C_20  and  C_21
REMARK                            x       y       z     vdW  Elec       q    Type
REMARK                         _______ _______ _______ _____ _____    ______ ____
ROOT
ATOM      1  N   UNL     1       7.531   6.556  17.306  0.00  0.00    +0.000 N 
ATOM      2  C   UNL     1       7.457   5.328  17.933  0.00  0.00    +0.000 C 
ATOM      3  O   UNL     1       8.288   4.434  17.902  0.00  0.00    +0.000 OA
ATOM      4  C   UNL     1       6.208   5.339  18.777  0.00  0.00    +0.000 C 
ATOM      5  C   UNL     1       5.396   4.047  18.851  0.00  0.00    +0.000 C 
ATOM      6  C   UNL     1       4.707   3.773  17.518  0.00  0.00    +0.000 C 
ATOM      7  C   UNL     1       3.960   4.779  17.033  0.00  0.00    +0.000 C 
ATOM      8  C   UNL     1       3.915   6.011  17.911  0.00  0.00    +0.000 C 
ATOM      9  C   UNL     1       5.361   6.478  18.162  0.00  0.00    +0.000 C 
ATOM     10  C   UNL     1       6.217   6.793  16.958  0.00  0.00    +0.000 C 
ATOM     11  O   UNL     1       5.801   7.007  15.830  0.00  0.00    +0.000 OA
ATOM     12  C   UNL     1       3.355   5.535  19.297  0.00  0.00    +0.000 C 
ATOM     13  C   UNL     1       2.197   4.495  19.267  0.00  0.00    +0.000 C 
ATOM     14  C   UNL     1       0.968   4.496  20.231  0.00  0.00    +0.000 C 
ATOM     15  O   UNL     1       0.237   5.443  20.510  0.00  0.00    +0.000 OA
ATOM     16  N   UNL     1       0.995   3.286  20.915  0.00  0.00    +0.000 N 
ATOM     17  C   UNL     1       2.326   3.202  21.306  0.00  0.00    +0.000 C 
ATOM     18  O   UNL     1       2.726   3.131  22.455  0.00  0.00    +0.000 OA
ATOM     19  C   UNL     1       3.143   3.460  19.997  0.00  0.00    +0.000 C 
ATOM     20  C   UNL     1       4.300   4.429  19.890  0.00  0.00    +0.000 C 
ENDROOT
BRANCH   1  21
ATOM     21  C   UNL     1       8.173   7.509  18.210  0.00  0.00    +0.000 C 
BRANCH  21  23
ATOM     22  C   UNL     1       8.734  10.004  18.351  0.00  0.00    +0.000 C 
ATOM     23  C   UNL     1       8.119   8.948  17.807  0.00  0.00    +0.000 C 
ENDBRANCH  21  23
ENDBRANCH   1  21
BRANCH  16  24
ATOM     24  C   UNL     1       0.699   2.122  20.063  0.00  0.00    +0.000 C 
BRANCH  24  25
ATOM     25  C   UNL     1       0.808   2.313  18.598  0.00  0.00    +0.000 C 
ATOM     26  C   UNL     1       1.716   1.801  17.755  0.00  0.00    +0.000 C 
ENDBRANCH  24  25
ENDBRANCH  16  24
TORSDOF 4
ENDMDL
MODEL 7
REMARK VINA RESULT:      -6.1      0.874      7.250
REMARK  Name = 
REMARK  4 active torsions:
REMARK  status: ('A' for Active; 'I' for Inactive)
REMARK    1  A    between atoms: C_2  and  C_3
REMARK    2  A    between atoms: C_3  and  N_4
REMARK    3  A    between atoms: N_19  and  C_20
REMARK    4  A    between atoms: C_20  and  C_21
REMARK                            x       y       z     vdW  Elec       q    Type
REMARK                         _______ _______ _______ _____ _____    ______ ____
ROOT
ATOM      1  N   UNL     1       4.033   5.673  19.166  0.00  0.00    +0.000 N 
ATOM      2  C   UNL     1       3.579   4.672  18.331  0.00  0.00    +0.000 C 
ATOM      3  O   UNL     1       2.821   3.759  18.619  0.00  0.00    +0.000 OA
ATOM      4  C   UNL     1       4.094   4.984  16.949  0.00  0.00    +0.000 C 
ATOM      5  C   UNL     1       4.547   3.810  16.084  0.00  0.00    +0.000 C 
ATOM      6  C   UNL     1       5.844   3.218  16.626  0.00  0.00    +0.000 C 
ATOM      7  C   UNL     1       6.849   4.091  16.811  0.00  0.00    +0.000 C 
ATOM      8  C   UNL     1       6.522   5.518  16.426  0.00  0.00    +0.000 C 
ATOM      9  C   UNL     1       5.270   5.955  17.208  0.00  0.00    +0.000 C 
ATOM     10  C   UNL     1       5.321   5.878  18.715  0.00  0.00    +0.000 C 
ATOM     11  O   UNL     1       6.337   5.795  19.387  0.00  0.00    +0.000 OA
ATOM     12  C   UNL     1       6.109   5.474  14.913  0.00  0.00    +0.000 C 
ATOM     13  C   UNL     1       6.932   4.532  13.986  0.00  0.00    +0.000 C 
ATOM     14  C   UNL     1       7.359   4.867  12.522  0.00  0.00    +0.000 C 
ATOM     15  O   UNL     1       7.900   5.893  12.116  0.00  0.00    +0.000 OA
ATOM     16  N   UNL     1       6.794   3.893  11.707  0.00  0.00    +0.000 N 
ATOM     17  C   UNL     1       5.486   3.846  12.174  0.00  0.00    +0.000 C 
ATOM     18  O   UNL     1       4.486   4.073  11.514  0.00  0.00    +0.000 OA
ATOM     19  C   UNL     1       5.621   3.687  13.725  0.00  0.00    +0.000 C 
ATOM     20  C   UNL     1       4.870   4.524  14.737  0.00  0.00    +0.000 C 
ENDROOT
BRANCH   1  21
ATOM     21  C   UNL     1       3.106   6.802  19.097  0.00  0.00    +0.000 C 
BRANCH  21  23
ATOM     22  C   UNL     1       1.535   7.707  20.906  0.00  0.00    +0.000 C 
ATOM     23  C   UNL     1       1.949   6.772  20.043  0.00  0.00    +0.000 C 
ENDBRANCH  21  23
ENDBRANCH   1  21
BRANCH  16  24
ATOM     24  C   UNL     1       7.387   2.557  11.889  0.00  0.00    +0.000 C 
BRANCH  24  25
ATOM     25  C   UNL     1       6.924   1.484  10.978  0.00  0.00    +0.000 C 
ATOM     26  C   UNL     1       6.279   0.350  11.286  0.00  0.00    +0.000 C 
ENDBRANCH  24  25
ENDBRANCH  16  24
TORSDOF 4
ENDMDL
MODEL 8
REMARK VINA RESULT:      -6.1      9.748     11.963
REMARK  Name = 
REMARK  4 active torsions:
REMARK  status: ('A' for Active; 'I' for Inactive)
REMARK    1  A    between atoms: C_2  and  C_3
REMARK    2  A    between atoms: C_3  and  N_4
REMARK    3  A    between atoms: N_19  and  C_20
REMARK    4  A    between atoms: C_20  and  C_21
REMARK                            x       y       z     vdW  Elec       q    Type
REMARK                         _______ _______ _______ _____ _____    ______ ____
ROOT
ATOM      1  N   UNL     1      -1.493  10.601  18.895  0.00  0.00    +0.000 N 
ATOM      2  C   UNL     1      -0.188  10.474  19.326  0.00  0.00    +0.000 C 
ATOM      3  O   UNL     1       0.292   9.546  19.959  0.00  0.00    +0.000 OA
ATOM      4  C   UNL     1       0.579  11.640  18.757  0.00  0.00    +0.000 C 
ATOM      5  C   UNL     1       1.646  12.280  19.643  0.00  0.00    +0.000 C 
ATOM      6  C   UNL     1       0.998  13.040  20.795  0.00  0.00    +0.000 C 
ATOM      7  C   UNL     1       0.064  13.942  20.444  0.00  0.00    +0.000 C 
ATOM      8  C   UNL     1      -0.166  14.061  18.953  0.00  0.00    +0.000 C 
ATOM      9  C   UNL     1      -0.523  12.666  18.406  0.00  0.00    +0.000 C 
ATOM     10  C   UNL     1      -1.714  11.959  19.008  0.00  0.00    +0.000 C 
ATOM     11  O   UNL     1      -2.597  12.490  19.663  0.00  0.00    +0.000 OA
ATOM     12  C   UNL     1       1.221  14.442  18.329  0.00  0.00    +0.000 C 
ATOM     13  C   UNL     1       2.090  15.464  19.119  0.00  0.00    +0.000 C 
ATOM     14  C   UNL     1       2.946  16.599  18.472  0.00  0.00    +0.000 C 
ATOM     15  O   UNL     1       2.591  17.414  17.625  0.00  0.00    +0.000 OA
ATOM     16  N   UNL     1       4.265  16.370  18.848  0.00  0.00    +0.000 N 
ATOM     17  C   UNL     1       4.407  15.011  18.595  0.00  0.00    +0.000 C 
ATOM     18  O   UNL     1       5.208  14.510  17.825  0.00  0.00    +0.000 OA
ATOM     19  C   UNL     1       3.187  14.342  19.313  0.00  0.00    +0.000 C 
ATOM     20  C   UNL     1       2.271  13.324  18.670  0.00  0.00    +0.000 C 
ENDROOT
BRANCH   1  21
ATOM     21  C   UNL     1      -1.612  10.006  17.565  0.00  0.00    +0.000 C 
BRANCH  21  23
ATOM     22  C   UNL     1      -3.043  10.718  15.565  0.00  0.00    +0.000 C 
ATOM     23  C   UNL     1      -2.876  10.287  16.820  0.00  0.00    +0.000 C 
ENDBRANCH  21  23
ENDBRANCH   1  21
BRANCH  16  24
ATOM     24  C   UNL     1       4.516  16.593  20.282  0.00  0.00    +0.000 C 
BRANCH  24  25
ATOM     25  C   UNL     1       4.211  17.939  20.819  0.00  0.00    +0.000 C 
ATOM     26  C   UNL     1       3.396  18.269  21.831  0.00  0.00    +0.000 C 
ENDBRANCH  24  25
ENDBRANCH  16  24
TORSDOF 4
ENDMDL
MODEL 9
REMARK VINA RESULT:      -6.0      9.056     14.228
REMARK  Name = 
REMARK  4 active torsions:
REMARK  status: ('A' for Active; 'I' for Inactive)
REMARK    1  A    between atoms: C_2  and  C_3
REMARK    2  A    between atoms: C_3  and  N_4
REMARK    3  A    between atoms: N_19  and  C_20
REMARK    4  A    between atoms: C_20  and  C_21
REMARK                            x       y       z     vdW  Elec       q    Type
REMARK                         _______ _______ _______ _____ _____    ______ ____
ROOT
ATOM      1  N   UNL     1      -2.673  15.902  23.826  0.00  0.00    +0.000 N 
ATOM      2  C   UNL     1      -1.627  15.037  24.081  0.00  0.00    +0.000 C 
ATOM      3  O   UNL     1      -0.777  15.145  24.951  0.00  0.00    +0.000 OA
ATOM      4  C   UNL     1      -1.801  13.854  23.164  0.00  0.00    +0.000 C 
ATOM      5  C   UNL     1      -0.541  13.242  22.556  0.00  0.00    +0.000 C 
ATOM      6  C   UNL     1       0.063  14.183  21.519  0.00  0.00    +0.000 C 
ATOM      7  C   UNL     1      -0.776  14.602  20.556  0.00  0.00    +0.000 C 
ATOM      8  C   UNL     1      -2.179  14.044  20.658  0.00  0.00    +0.000 C 
ATOM      9  C   UNL     1      -2.736  14.387  22.052  0.00  0.00    +0.000 C 
ATOM     10  C   UNL     1      -2.781  15.843  22.452  0.00  0.00    +0.000 C 
ATOM     11  O   UNL     1      -2.708  16.791  21.685  0.00  0.00    +0.000 OA
ATOM     12  C   UNL     1      -2.030  12.483  20.611  0.00  0.00    +0.000 C 
ATOM     13  C   UNL     1      -0.979  11.908  19.617  0.00  0.00    +0.000 C 
ATOM     14  C   UNL     1      -1.171  10.618  18.757  0.00  0.00    +0.000 C 
ATOM     15  O   UNL     1      -2.135  10.326  18.053  0.00  0.00    +0.000 OA
ATOM     16  N   UNL     1      -0.160   9.738  19.123  0.00  0.00    +0.000 N 
ATOM     17  C   UNL     1      -0.211   9.796  20.511  0.00  0.00    +0.000 C 
ATOM     18  O   UNL     1      -0.427   8.855  21.254  0.00  0.00    +0.000 OA
ATOM     19  C   UNL     1      -0.175  11.324  20.847  0.00  0.00    +0.000 C 
ATOM     20  C   UNL     1      -1.125  12.009  21.804  0.00  0.00    +0.000 C 
ENDROOT
BRANCH   1  21
ATOM     21  C   UNL     1      -3.832  15.486  24.614  0.00  0.00    +0.000 C 
BRANCH  21  23
ATOM     22  C   UNL     1      -6.269  15.538  23.828  0.00  0.00    +0.000 C 
ATOM     23  C   UNL     1      -5.140  16.114  24.255  0.00  0.00    +0.000 C 
ENDBRANCH  21  23
ENDBRANCH   1  21
BRANCH  16  24
ATOM     24  C   UNL     1       1.182  10.175  18.701  0.00  0.00    +0.000 C 
BRANCH  24  25
ATOM     25  C   UNL     1       1.936   9.269  17.804  0.00  0.00    +0.000 C 
ATOM     26  C   UNL     1       2.340   8.012  18.035  0.00  0.00    +0.000 C 
ENDBRANCH  24  25
ENDBRANCH  16  24
TORSDOF 4
ENDMDL
