MODEL 1
REMARK VINA RESULT:      -8.3      0.000      0.000
REMARK  Name = 
REMARK  8 active torsions:
REMARK  status: ('A' for Active; 'I' for Inactive)
REMARK    1  A    between atoms: N_2  and  C_3
REMARK    2  A    between atoms: C_8  and  N_9
REMARK    3  A    between atoms: C_11  and  C_12
REMARK    4  A    between atoms: N_16  and  C_17
REMARK    5  A    between atoms: C_20  and  C_21
REMARK    6  A    between atoms: C_21  and  C_22
REMARK    7  A    between atoms: N_23  and  O_24
REMARK    8  A    between atoms: O_24  and  C_25
REMARK                            x       y       z     vdW  Elec       q    Type
REMARK                         _______ _______ _______ _____ _____    ______ ____
ROOT
ATOM      1  N   UNL     1       4.293   4.199  18.363  0.00  0.00    +0.000 N 
ATOM      2  C   UNL     1       3.893   3.184  19.163  0.00  0.00    +0.000 A 
ATOM      3  C   UNL     1       2.980   3.718  20.061  0.00  0.00    +0.000 A 
ATOM      4  C   UNL     1       2.866   5.093  19.660  0.00  0.00    +0.000 A 
ATOM      5  N   UNL     1       2.114   6.046  20.280  0.00  0.00    +0.000 N 
ATOM      6  N   UNL     1       3.657   5.342  18.604  0.00  0.00    +0.000 NA
ATOM      7  H   UNL     1       1.588   5.794  21.113  0.00  0.00    +0.000 HD
ENDROOT
BRANCH   1  13
ATOM      8  C   UNL     1       6.205   5.447  17.412  0.00  0.00    +0.000 C 
ATOM      9  C   UNL     1       7.258   5.463  16.295  0.00  0.00    +0.000 C 
ATOM     10  C   UNL     1       6.629   5.246  14.924  0.00  0.00    +0.000 C 
ATOM     11  C   UNL     1       5.839   3.943  14.882  0.00  0.00    +0.000 C 
ATOM     12  C   UNL     1       4.764   3.925  15.963  0.00  0.00    +0.000 C 
ATOM     13  C   UNL     1       5.354   4.165  17.362  0.00  0.00    +0.000 C 
BRANCH   8  15
ATOM     14  C   UNL     1       7.431   5.627  19.712  0.00  0.00    +0.000 C 
ATOM     15  N   UNL     1       6.878   5.554  18.684  0.00  0.00    +0.000 NA
ENDBRANCH   8  15
ENDBRANCH   1  13
BRANCH   5  16
ATOM     16  C   UNL     1       1.915   7.392  19.886  0.00  0.00    +0.000 A 
ATOM     17  C   UNL     1       1.333   8.330  20.748  0.00  0.00    +0.000 A 
ATOM     18  C   UNL     1       1.105   9.651  20.358  0.00  0.00    +0.000 A 
ATOM     19  C   UNL     1       1.453  10.066  19.073  0.00  0.00    +0.000 A 
ATOM     20  C   UNL     1       1.982   9.126  18.176  0.00  0.00    +0.000 A 
ATOM     21  C   UNL     1       2.215   7.802  18.581  0.00  0.00    +0.000 A 
BRANCH  19  22
ATOM     22  C   UNL     1       1.313  11.489  18.637  0.00  0.00    +0.000 C 
ATOM     23  C   UNL     1      -0.046  12.163  18.719  0.00  0.00    +0.000 C 
ATOM     24  N   UNL     1       2.376  12.134  18.243  0.00  0.00    +0.000 NA
BRANCH  24  25
ATOM     25  O   UNL     1       2.066  13.464  17.921  0.00  0.00    +0.000 OA
ATOM     26  C   UNL     1       3.127  14.300  18.363  0.00  0.00    +0.000 C 
ENDBRANCH  24  25
ENDBRANCH  19  22
ENDBRANCH   5  16
BRANCH   3  27
ATOM     27  C   UNL     1       2.362   2.984  21.140  0.00  0.00    +0.000 C 
ATOM     28  N   UNL     1       0.993   2.926  21.156  0.00  0.00    +0.000 N 
ATOM     29  O   UNL     1       3.010   2.409  22.016  0.00  0.00    +0.000 OA
ATOM     30  H   UNL     1       0.400   3.228  20.393  0.00  0.00    +0.000 HD
ATOM     31  H   UNL     1       0.569   2.347  21.865  0.00  0.00    +0.000 HD
ENDBRANCH   3  27
TORSDOF 6
ENDMDL
MODEL 2
REMARK VINA RESULT:      -8.3      0.774      1.037
REMARK  Name = 
REMARK  8 active torsions:
REMARK  status: ('A' for Active; 'I' for Inactive)
REMARK    1  A    between atoms: N_2  and  C_3
REMARK    2  A    between atoms: C_8  and  N_9
REMARK    3  A    between atoms: C_11  and  C_12
REMARK    4  A    between atoms: N_16  and  C_17
REMARK    5  A    between atoms: C_20  and  C_21
REMARK    6  A    between atoms: C_21  and  C_22
REMARK    7  A    between atoms: N_23  and  O_24
REMARK    8  A    between atoms: O_24  and  C_25
REMARK                            x       y       z     vdW  Elec       q    Type
REMARK                         _______ _______ _______ _____ _____    ______ ____
ROOT
ATOM      1  N   UNL     1       4.250   4.241  18.393  0.00  0.00    +0.000 N 
ATOM      2  C   UNL     1       3.858   3.222  19.190  0.00  0.00    +0.000 A 
ATOM      3  C   UNL     1       2.945   3.748  20.093  0.00  0.00    +0.000 A 
ATOM      4  C   UNL     1       2.823   5.124  19.697  0.00  0.00    +0.000 A 
ATOM      5  N   UNL     1       2.069   6.071  20.323  0.00  0.00    +0.000 N 
ATOM      6  N   UNL     1       3.610   5.380  18.640  0.00  0.00    +0.000 NA
ATOM      7  H   UNL     1       1.547   5.813  21.158  0.00  0.00    +0.000 HD
ENDROOT
BRANCH   1  13
ATOM      8  C   UNL     1       6.169   5.491  17.456  0.00  0.00    +0.000 C 
ATOM      9  C   UNL     1       7.219   5.518  16.337  0.00  0.00    +0.000 C 
ATOM     10  C   UNL     1       6.585   5.329  14.965  0.00  0.00    +0.000 C 
ATOM     11  C   UNL     1       5.785   4.032  14.903  0.00  0.00    +0.000 C 
ATOM     12  C   UNL     1       4.713   4.004  15.987  0.00  0.00    +0.000 C 
ATOM     13  C   UNL     1       5.308   4.216  17.388  0.00  0.00    +0.000 C 
BRANCH   8  15
ATOM     14  C   UNL     1       7.401   5.623  19.756  0.00  0.00    +0.000 C 
ATOM     15  N   UNL     1       6.846   5.572  18.728  0.00  0.00    +0.000 NA
ENDBRANCH   8  15
ENDBRANCH   1  13
BRANCH   5  16
ATOM     16  C   UNL     1       1.862   7.417  19.935  0.00  0.00    +0.000 A 
ATOM     17  C   UNL     1       1.266   8.346  20.797  0.00  0.00    +0.000 A 
ATOM     18  C   UNL     1       1.030   9.667  20.412  0.00  0.00    +0.000 A 
ATOM     19  C   UNL     1       1.385  10.092  19.133  0.00  0.00    +0.000 A 
ATOM     20  C   UNL     1       1.929   9.161  18.235  0.00  0.00    +0.000 A 
ATOM     21  C   UNL     1       2.170   7.837  18.635  0.00  0.00    +0.000 A 
BRANCH  19  22
ATOM     22  C   UNL     1       1.237  11.516  18.703  0.00  0.00    +0.000 C 
ATOM     23  C   UNL     1       2.440  12.252  18.137  0.00  0.00    +0.000 C 
ATOM     24  N   UNL     1       0.062  12.077  18.778  0.00  0.00    +0.000 NA
BRANCH  24  25
ATOM     25  O   UNL     1       0.101  13.391  18.288  0.00  0.00    +0.000 OA
ATOM     26  C   UNL     1      -0.477  14.258  19.255  0.00  0.00    +0.000 C 
ENDBRANCH  24  25
ENDBRANCH  19  22
ENDBRANCH   5  16
BRANCH   3  27
ATOM     27  C   UNL     1       2.334   3.007  21.171  0.00  0.00    +0.000 C 
ATOM     28  N   UNL     1       0.967   2.916  21.174  0.00  0.00    +0.000 N 
ATOM     29  O   UNL     1       2.987   2.454  22.058  0.00  0.00    +0.000 OA
ATOM     30  H   UNL     1       0.374   3.199  20.404  0.00  0.00    +0.000 HD
ATOM     31  H   UNL     1       0.550   2.332  21.884  0.00  0.00    +0.000 HD
ENDBRANCH   3  27
TORSDOF 6
ENDMDL
MODEL 3
REMARK VINA RESULT:      -7.8      2.980      9.578
REMARK  Name = 
REMARK  8 active torsions:
REMARK  status: ('A' for Active; 'I' for Inactive)
REMARK    1  A    between atoms: N_2  and  C_3
REMARK    2  A    between atoms: C_8  and  N_9
REMARK    3  A    between atoms: C_11  and  C_12
REMARK    4  A    between atoms: N_16  and  C_17
REMARK    5  A    between atoms: C_20  and  C_21
REMARK    6  A    between atoms: C_21  and  C_22
REMARK    7  A    between atoms: N_23  and  O_24
REMARK    8  A    between atoms: O_24  and  C_25
REMARK                            x       y       z     vdW  Elec       q    Type
REMARK                         _______ _______ _______ _____ _____    ______ ____
ROOT
ATOM      1  N   UNL     1      -1.495  11.521  18.467  0.00  0.00    +0.000 N 
ATOM      2  C   UNL     1      -0.835  12.687  18.284  0.00  0.00    +0.000 A 
ATOM      3  C   UNL     1       0.513  12.417  18.471  0.00  0.00    +0.000 A 
ATOM      4  C   UNL     1       0.551  11.002  18.716  0.00  0.00    +0.000 A 
ATOM      5  N   UNL     1       1.664  10.272  19.009  0.00  0.00    +0.000 N 
ATOM      6  N   UNL     1      -0.687  10.485  18.676  0.00  0.00    +0.000 NA
ATOM      7  H   UNL     1       2.561  10.748  19.081  0.00  0.00    +0.000 HD
ENDROOT
BRANCH   1  13
ATOM      8  C   UNL     1      -3.582  11.543  17.139  0.00  0.00    +0.000 C 
ATOM      9  C   UNL     1      -5.112  11.441  17.211  0.00  0.00    +0.000 C 
ATOM     10  C   UNL     1      -5.691  12.378  18.263  0.00  0.00    +0.000 C 
ATOM     11  C   UNL     1      -5.082  12.106  19.635  0.00  0.00    +0.000 C 
ATOM     12  C   UNL     1      -3.564  12.239  19.590  0.00  0.00    +0.000 C 
ATOM     13  C   UNL     1      -2.940  11.326  18.522  0.00  0.00    +0.000 C 
BRANCH   8  15
ATOM     14  C   UNL     1      -2.717   9.758  15.439  0.00  0.00    +0.000 C 
ATOM     15  N   UNL     1      -3.096  10.561  16.201  0.00  0.00    +0.000 NA
ENDBRANCH   8  15
ENDBRANCH   1  13
BRANCH   5  16
ATOM     16  C   UNL     1       1.764   8.871  19.190  0.00  0.00    +0.000 A 
ATOM     17  C   UNL     1       1.535   8.274  20.437  0.00  0.00    +0.000 A 
ATOM     18  C   UNL     1       1.661   6.897  20.632  0.00  0.00    +0.000 A 
ATOM     19  C   UNL     1       2.033   6.076  19.568  0.00  0.00    +0.000 A 
ATOM     20  C   UNL     1       2.324   6.663  18.327  0.00  0.00    +0.000 A 
ATOM     21  C   UNL     1       2.186   8.048  18.139  0.00  0.00    +0.000 A 
BRANCH  19  22
ATOM     22  C   UNL     1       2.094   4.589  19.702  0.00  0.00    +0.000 C 
ATOM     23  C   UNL     1       0.897   3.842  20.267  0.00  0.00    +0.000 C 
ATOM     24  N   UNL     1       3.158   3.962  19.282  0.00  0.00    +0.000 NA
BRANCH  24  25
ATOM     25  O   UNL     1       3.019   2.575  19.439  0.00  0.00    +0.000 OA
ATOM     26  C   UNL     1       3.315   1.942  18.201  0.00  0.00    +0.000 C 
ENDBRANCH  24  25
ENDBRANCH  19  22
ENDBRANCH   5  16
BRANCH   3  27
ATOM     27  C   UNL     1       1.563  13.409  18.437  0.00  0.00    +0.000 C 
ATOM     28  N   UNL     1       2.531  13.265  17.479  0.00  0.00    +0.000 N 
ATOM     29  O   UNL     1       1.605  14.366  19.212  0.00  0.00    +0.000 OA
ATOM     30  H   UNL     1       2.480  12.609  16.710  0.00  0.00    +0.000 HD
ATOM     31  H   UNL     1       3.217  14.002  17.408  0.00  0.00    +0.000 HD
ENDBRANCH   3  27
TORSDOF 6
ENDMDL
MODEL 4
REMARK VINA RESULT:      -7.5      3.058      9.730
REMARK  Name = 
REMARK  8 active torsions:
REMARK  status: ('A' for Active; 'I' for Inactive)
REMARK    1  A    between atoms: N_2  and  C_3
REMARK    2  A    between atoms: C_8  and  N_9
REMARK    3  A    between atoms: C_11  and  C_12
REMARK    4  A    between atoms: N_16  and  C_17
REMARK    5  A    between atoms: C_20  and  C_21
REMARK    6  A    between atoms: C_21  and  C_22
REMARK    7  A    between atoms: N_23  and  O_24
REMARK    8  A    between atoms: O_24  and  C_25
REMARK                            x       y       z     vdW  Elec       q    Type
REMARK                         _______ _______ _______ _____ _____    ______ ____
ROOT
ATOM      1  N   UNL     1      -1.722  11.769  18.599  0.00  0.00    +0.000 N 
ATOM      2  C   UNL     1      -1.128  12.972  18.431  0.00  0.00    +0.000 A 
ATOM      3  C   UNL     1       0.237  12.769  18.583  0.00  0.00    +0.000 A 
ATOM      4  C   UNL     1       0.352  11.352  18.792  0.00  0.00    +0.000 A 
ATOM      5  N   UNL     1       1.508  10.674  19.043  0.00  0.00    +0.000 N 
ATOM      6  N   UNL     1      -0.858  10.773  18.766  0.00  0.00    +0.000 NA
ATOM      7  H   UNL     1       2.380  11.193  19.109  0.00  0.00    +0.000 HD
ENDROOT
BRANCH   1  13
ATOM      8  C   UNL     1      -3.817  11.603  17.293  0.00  0.00    +0.000 C 
ATOM      9  C   UNL     1      -5.338  11.420  17.386  0.00  0.00    +0.000 C 
ATOM     10  C   UNL     1      -5.961  12.382  18.391  0.00  0.00    +0.000 C 
ATOM     11  C   UNL     1      -5.328  12.221  19.769  0.00  0.00    +0.000 C 
ATOM     12  C   UNL     1      -3.820  12.434  19.702  0.00  0.00    +0.000 C 
ATOM     13  C   UNL     1      -3.154  11.499  18.679  0.00  0.00    +0.000 C 
BRANCH   8  15
ATOM     14  C   UNL     1      -2.837   9.790  15.687  0.00  0.00    +0.000 C 
ATOM     15  N   UNL     1      -3.284  10.598  16.406  0.00  0.00    +0.000 NA
ENDBRANCH   8  15
ENDBRANCH   1  13
BRANCH   5  16
ATOM     16  C   UNL     1       1.684   9.276  19.188  0.00  0.00    +0.000 A 
ATOM     17  C   UNL     1       1.442   8.629  20.407  0.00  0.00    +0.000 A 
ATOM     18  C   UNL     1       1.642   7.256  20.567  0.00  0.00    +0.000 A 
ATOM     19  C   UNL     1       2.103   6.491  19.497  0.00  0.00    +0.000 A 
ATOM     20  C   UNL     1       2.407   7.132  18.286  0.00  0.00    +0.000 A 
ATOM     21  C   UNL     1       2.195   8.512  18.133  0.00  0.00    +0.000 A 
BRANCH  19  22
ATOM     22  C   UNL     1       2.247   5.006  19.590  0.00  0.00    +0.000 C 
ATOM     23  C   UNL     1       2.058   4.160  18.343  0.00  0.00    +0.000 C 
ATOM     24  N   UNL     1       2.582   4.477  20.734  0.00  0.00    +0.000 NA
BRANCH  24  25
ATOM     25  O   UNL     1       2.720   3.085  20.623  0.00  0.00    +0.000 OA
ATOM     26  C   UNL     1       1.866   2.464  21.574  0.00  0.00    +0.000 C 
ENDBRANCH  24  25
ENDBRANCH  19  22
ENDBRANCH   5  16
BRANCH   3  27
ATOM     27  C   UNL     1       1.233  13.814  18.551  0.00  0.00    +0.000 C 
ATOM     28  N   UNL     1       0.852  15.057  18.984  0.00  0.00    +0.000 N 
ATOM     29  O   UNL     1       2.389  13.625  18.170  0.00  0.00    +0.000 OA
ATOM     30  H   UNL     1      -0.020  15.253  19.460  0.00  0.00    +0.000 HD
ATOM     31  H   UNL     1       1.571  15.763  19.034  0.00  0.00    +0.000 HD
ENDBRANCH   3  27
TORSDOF 6
ENDMDL
MODEL 5
REMARK VINA RESULT:      -7.4      3.734      8.693
REMARK  Name = 
REMARK  8 active torsions:
REMARK  status: ('A' for Active; 'I' for Inactive)
REMARK    1  A    between atoms: N_2  and  C_3
REMARK    2  A    between atoms: C_8  and  N_9
REMARK    3  A    between atoms: C_11  and  C_12
REMARK    4  A    between atoms: N_16  and  C_17
REMARK    5  A    between atoms: C_20  and  C_21
REMARK    6  A    between atoms: C_21  and  C_22
REMARK    7  A    between atoms: N_23  and  O_24
REMARK    8  A    between atoms: O_24  and  C_25
REMARK                            x       y       z     vdW  Elec       q    Type
REMARK                         _______ _______ _______ _____ _____    ______ ____
ROOT
ATOM      1  N   UNL     1      -1.502  11.052  19.201  0.00  0.00    +0.000 N 
ATOM      2  C   UNL     1      -1.672  11.572  20.438  0.00  0.00    +0.000 A 
ATOM      3  C   UNL     1      -0.823  10.874  21.285  0.00  0.00    +0.000 A 
ATOM      4  C   UNL     1      -0.131   9.968  20.410  0.00  0.00    +0.000 A 
ATOM      5  N   UNL     1       0.781   9.030  20.791  0.00  0.00    +0.000 N 
ATOM      6  N   UNL     1      -0.550  10.126  19.145  0.00  0.00    +0.000 NA
ATOM      7  H   UNL     1       1.002   8.930  21.779  0.00  0.00    +0.000 HD
ENDROOT
BRANCH   1  13
ATOM      8  C   UNL     1      -3.791  11.215  18.276  0.00  0.00    +0.000 C 
ATOM      9  C   UNL     1      -4.611  11.432  16.996  0.00  0.00    +0.000 C 
ATOM     10  C   UNL     1      -4.146  10.521  15.867  0.00  0.00    +0.000 C 
ATOM     11  C   UNL     1      -2.662  10.717  15.579  0.00  0.00    +0.000 C 
ATOM     12  C   UNL     1      -1.828  10.471  16.832  0.00  0.00    +0.000 C 
ATOM     13  C   UNL     1      -2.282  11.355  18.005  0.00  0.00    +0.000 C 
BRANCH   8  15
ATOM     14  C   UNL     1      -4.553  12.946  20.078  0.00  0.00    +0.000 C 
ATOM     15  N   UNL     1      -4.214  12.177  19.265  0.00  0.00    +0.000 NA
ENDBRANCH   8  15
ENDBRANCH   1  13
BRANCH   5  16
ATOM     16  C   UNL     1       1.538   8.164  19.964  0.00  0.00    +0.000 A 
ATOM     17  C   UNL     1       1.932   6.892  20.401  0.00  0.00    +0.000 A 
ATOM     18  C   UNL     1       2.703   6.043  19.605  0.00  0.00    +0.000 A 
ATOM     19  C   UNL     1       3.109   6.458  18.337  0.00  0.00    +0.000 A 
ATOM     20  C   UNL     1       2.773   7.750  17.906  0.00  0.00    +0.000 A 
ATOM     21  C   UNL     1       1.990   8.593  18.711  0.00  0.00    +0.000 A 
BRANCH  19  22
ATOM     22  C   UNL     1       3.857   5.554  17.412  0.00  0.00    +0.000 C 
ATOM     23  C   UNL     1       3.444   4.097  17.298  0.00  0.00    +0.000 C 
ATOM     24  N   UNL     1       4.818   6.054  16.684  0.00  0.00    +0.000 NA
BRANCH  24  25
ATOM     25  O   UNL     1       5.371   5.076  15.843  0.00  0.00    +0.000 OA
ATOM     26  C   UNL     1       6.780   5.056  16.031  0.00  0.00    +0.000 C 
ENDBRANCH  24  25
ENDBRANCH  19  22
ENDBRANCH   5  16
BRANCH   3  27
ATOM     27  C   UNL     1      -0.745  11.068  22.714  0.00  0.00    +0.000 C 
ATOM     28  N   UNL     1      -1.533  12.047  23.258  0.00  0.00    +0.000 N 
ATOM     29  O   UNL     1      -0.022  10.387  23.444  0.00  0.00    +0.000 OA
ATOM     30  H   UNL     1      -2.267  12.534  22.758  0.00  0.00    +0.000 HD
ATOM     31  H   UNL     1      -1.535  12.125  24.264  0.00  0.00    +0.000 HD
ENDBRANCH   3  27
TORSDOF 6
ENDMDL
MODEL 6
REMARK VINA RESULT:      -7.4      3.718      8.835
REMARK  Name = 
REMARK  8 active torsions:
REMARK  status: ('A' for Active; 'I' for Inactive)
REMARK    1  A    between atoms: N_2  and  C_3
REMARK    2  A    between atoms: C_8  and  N_9
REMARK    3  A    between atoms: C_11  and  C_12
REMARK    4  A    between atoms: N_16  and  C_17
REMARK    5  A    between atoms: C_20  and  C_21
REMARK    6  A    between atoms: C_21  and  C_22
REMARK    7  A    between atoms: N_23  and  O_24
REMARK    8  A    between atoms: O_24  and  C_25
REMARK                            x       y       z     vdW  Elec       q    Type
REMARK                         _______ _______ _______ _____ _____    ______ ____
ROOT
ATOM      1  N   UNL     1      -1.593  11.253  19.209  0.00  0.00    +0.000 N 
ATOM      2  C   UNL     1      -1.731  11.858  20.410  0.00  0.00    +0.000 A 
ATOM      3  C   UNL     1      -0.879  11.202  21.288  0.00  0.00    +0.000 A 
ATOM      4  C   UNL     1      -0.220  10.226  20.464  0.00  0.00    +0.000 A 
ATOM      5  N   UNL     1       0.682   9.299  20.892  0.00  0.00    +0.000 N 
ATOM      6  N   UNL     1      -0.659  10.307  19.199  0.00  0.00    +0.000 NA
ATOM      7  H   UNL     1       0.919   9.261  21.881  0.00  0.00    +0.000 HD
ENDROOT
BRANCH   1  13
ATOM      8  C   UNL     1      -3.883  11.233  18.273  0.00  0.00    +0.000 C 
ATOM      9  C   UNL     1      -4.712  11.381  16.989  0.00  0.00    +0.000 C 
ATOM     10  C   UNL     1      -4.172  10.505  15.865  0.00  0.00    +0.000 C 
ATOM     11  C   UNL     1      -2.706  10.816  15.583  0.00  0.00    +0.000 C 
ATOM     12  C   UNL     1      -1.861  10.640  16.840  0.00  0.00    +0.000 C 
ATOM     13  C   UNL     1      -2.388  11.490  18.008  0.00  0.00    +0.000 C 
BRANCH   8  15
ATOM     14  C   UNL     1      -4.776  12.917  20.059  0.00  0.00    +0.000 C 
ATOM     15  N   UNL     1      -4.385  12.162  19.257  0.00  0.00    +0.000 NA
ENDBRANCH   8  15
ENDBRANCH   1  13
BRANCH   5  16
ATOM     16  C   UNL     1       1.408   8.365  20.113  0.00  0.00    +0.000 A 
ATOM     17  C   UNL     1       1.796   8.651  18.798  0.00  0.00    +0.000 A 
ATOM     18  C   UNL     1       2.486   7.725  18.013  0.00  0.00    +0.000 A 
ATOM     19  C   UNL     1       2.800   6.470  18.532  0.00  0.00    +0.000 A 
ATOM     20  C   UNL     1       2.367   6.145  19.827  0.00  0.00    +0.000 A 
ATOM     21  C   UNL     1       1.682   7.086  20.612  0.00  0.00    +0.000 A 
BRANCH  19  22
ATOM     22  C   UNL     1       3.613   5.478  17.766  0.00  0.00    +0.000 C 
ATOM     23  C   UNL     1       3.031   4.107  17.470  0.00  0.00    +0.000 C 
ATOM     24  N   UNL     1       4.788   5.835  17.325  0.00  0.00    +0.000 NA
BRANCH  24  25
ATOM     25  O   UNL     1       5.384   4.799  16.589  0.00  0.00    +0.000 OA
ATOM     26  C   UNL     1       6.002   5.355  15.436  0.00  0.00    +0.000 C 
ENDBRANCH  24  25
ENDBRANCH  19  22
ENDBRANCH   5  16
BRANCH   3  27
ATOM     27  C   UNL     1      -0.773  11.490  22.700  0.00  0.00    +0.000 C 
ATOM     28  N   UNL     1      -1.079  12.762  23.106  0.00  0.00    +0.000 N 
ATOM     29  O   UNL     1      -0.438  10.644  23.531  0.00  0.00    +0.000 OA
ATOM     30  H   UNL     1      -1.514  13.460  22.516  0.00  0.00    +0.000 HD
ATOM     31  H   UNL     1      -1.079  12.936  24.099  0.00  0.00    +0.000 HD
ENDBRANCH   3  27
TORSDOF 6
ENDMDL
MODEL 7
REMARK VINA RESULT:      -7.3      3.610      9.103
REMARK  Name = 
REMARK  8 active torsions:
REMARK  status: ('A' for Active; 'I' for Inactive)
REMARK    1  A    between atoms: N_2  and  C_3
REMARK    2  A    between atoms: C_8  and  N_9
REMARK    3  A    between atoms: C_11  and  C_12
REMARK    4  A    between atoms: N_16  and  C_17
REMARK    5  A    between atoms: C_20  and  C_21
REMARK    6  A    between atoms: C_21  and  C_22
REMARK    7  A    between atoms: N_23  and  O_24
REMARK    8  A    between atoms: O_24  and  C_25
REMARK                            x       y       z     vdW  Elec       q    Type
REMARK                         _______ _______ _______ _____ _____    ______ ____
ROOT
ATOM      1  N   UNL     1      -1.644  11.425  19.051  0.00  0.00    +0.000 N 
ATOM      2  C   UNL     1      -1.743  12.162  20.180  0.00  0.00    +0.000 A 
ATOM      3  C   UNL     1      -0.890  11.585  21.110  0.00  0.00    +0.000 A 
ATOM      4  C   UNL     1      -0.272  10.507  20.389  0.00  0.00    +0.000 A 
ATOM      5  N   UNL     1       0.616   9.609  20.902  0.00  0.00    +0.000 N 
ATOM      6  N   UNL     1      -0.734  10.459  19.130  0.00  0.00    +0.000 NA
ATOM      7  H   UNL     1       0.872   9.675  21.885  0.00  0.00    +0.000 HD
ENDROOT
BRANCH   1  13
ATOM      8  C   UNL     1      -3.929  11.192  18.130  0.00  0.00    +0.000 C 
ATOM      9  C   UNL     1      -4.769  11.221  16.846  0.00  0.00    +0.000 C 
ATOM     10  C   UNL     1      -4.167  10.339  15.758  0.00  0.00    +0.000 C 
ATOM     11  C   UNL     1      -2.730  10.746  15.454  0.00  0.00    +0.000 C 
ATOM     12  C   UNL     1      -1.871  10.689  16.713  0.00  0.00    +0.000 C 
ATOM     13  C   UNL     1      -2.458  11.548  17.846  0.00  0.00    +0.000 C 
BRANCH   8  15
ATOM     14  C   UNL     1      -4.953  12.890  19.831  0.00  0.00    +0.000 C 
ATOM     15  N   UNL     1      -4.496  12.123  19.075  0.00  0.00    +0.000 NA
ENDBRANCH   8  15
ENDBRANCH   1  13
BRANCH   5  16
ATOM     16  C   UNL     1       1.303   8.576  20.219  0.00  0.00    +0.000 A 
ATOM     17  C   UNL     1       1.761   8.743  18.906  0.00  0.00    +0.000 A 
ATOM     18  C   UNL     1       2.412   7.719  18.214  0.00  0.00    +0.000 A 
ATOM     19  C   UNL     1       2.616   6.485  18.829  0.00  0.00    +0.000 A 
ATOM     20  C   UNL     1       2.113   6.281  20.123  0.00  0.00    +0.000 A 
ATOM     21  C   UNL     1       1.466   7.319  20.813  0.00  0.00    +0.000 A 
BRANCH  19  22
ATOM     22  C   UNL     1       3.386   5.389  18.167  0.00  0.00    +0.000 C 
ATOM     23  C   UNL     1       4.357   5.731  17.050  0.00  0.00    +0.000 C 
ATOM     24  N   UNL     1       3.242   4.167  18.601  0.00  0.00    +0.000 NA
BRANCH  24  25
ATOM     25  O   UNL     1       4.075   3.283  17.898  0.00  0.00    +0.000 OA
ATOM     26  C   UNL     1       3.490   1.988  17.921  0.00  0.00    +0.000 C 
ENDBRANCH  24  25
ENDBRANCH  19  22
ENDBRANCH   5  16
BRANCH   3  27
ATOM     27  C   UNL     1      -0.748  12.024  22.479  0.00  0.00    +0.000 C 
ATOM     28  N   UNL     1      -0.770  13.374  22.711  0.00  0.00    +0.000 N 
ATOM     29  O   UNL     1      -0.626  11.242  23.424  0.00  0.00    +0.000 OA
ATOM     30  H   UNL     1      -1.027  14.068  22.020  0.00  0.00    +0.000 HD
ATOM     31  H   UNL     1      -0.749  13.672  23.674  0.00  0.00    +0.000 HD
ENDBRANCH   3  27
TORSDOF 6
ENDMDL
MODEL 8
REMARK VINA RESULT:      -7.3      3.419      8.291
REMARK  Name = 
REMARK  8 active torsions:
REMARK  status: ('A' for Active; 'I' for Inactive)
REMARK    1  A    between atoms: N_2  and  C_3
REMARK    2  A    between atoms: C_8  and  N_9
REMARK    3  A    between atoms: C_11  and  C_12
REMARK    4  A    between atoms: N_16  and  C_17
REMARK    5  A    between atoms: C_20  and  C_21
REMARK    6  A    between atoms: C_21  and  C_22
REMARK    7  A    between atoms: N_23  and  O_24
REMARK    8  A    between atoms: O_24  and  C_25
REMARK                            x       y       z     vdW  Elec       q    Type
REMARK                         _______ _______ _______ _____ _____    ______ ____
ROOT
ATOM      1  N   UNL     1      -0.673  10.333  19.371  0.00  0.00    +0.000 N 
ATOM      2  C   UNL     1      -0.804  10.686  20.670  0.00  0.00    +0.000 A 
ATOM      3  C   UNL     1       0.035   9.853  21.397  0.00  0.00    +0.000 A 
ATOM      4  C   UNL     1       0.679   9.051  20.393  0.00  0.00    +0.000 A 
ATOM      5  N   UNL     1       1.564   8.041  20.625  0.00  0.00    +0.000 N 
ATOM      6  N   UNL     1       0.245   9.392  19.170  0.00  0.00    +0.000 NA
ATOM      7  H   UNL     1       1.798   7.801  21.586  0.00  0.00    +0.000 HD
ENDROOT
BRANCH   1  13
ATOM      8  C   UNL     1      -2.850  11.301  18.703  0.00  0.00    +0.000 C 
ATOM      9  C   UNL     1      -3.720  11.718  17.509  0.00  0.00    +0.000 C 
ATOM     10  C   UNL     1      -3.815  10.611  16.466  0.00  0.00    +0.000 C 
ATOM     11  C   UNL     1      -2.431  10.191  15.984  0.00  0.00    +0.000 C 
ATOM     12  C   UNL     1      -1.563   9.739  17.154  0.00  0.00    +0.000 C 
ATOM     13  C   UNL     1      -1.461  10.820  18.243  0.00  0.00    +0.000 C 
BRANCH   8  15
ATOM     14  C   UNL     1      -2.631  13.340  20.321  0.00  0.00    +0.000 C 
ATOM     15  N   UNL     1      -2.720  12.426  19.596  0.00  0.00    +0.000 NA
ENDBRANCH   8  15
ENDBRANCH   1  13
BRANCH   5  16
ATOM     16  C   UNL     1       2.276   7.270  19.674  0.00  0.00    +0.000 A 
ATOM     17  C   UNL     1       2.845   7.854  18.534  0.00  0.00    +0.000 A 
ATOM     18  C   UNL     1       3.522   7.098  17.576  0.00  0.00    +0.000 A 
ATOM     19  C   UNL     1       3.640   5.717  17.736  0.00  0.00    +0.000 A 
ATOM     20  C   UNL     1       3.026   5.108  18.841  0.00  0.00    +0.000 A 
ATOM     21  C   UNL     1       2.354   5.879  19.803  0.00  0.00    +0.000 A 
BRANCH  19  22
ATOM     22  C   UNL     1       4.431   4.876  16.787  0.00  0.00    +0.000 C 
ATOM     23  C   UNL     1       4.423   3.366  16.947  0.00  0.00    +0.000 C 
ATOM     24  N   UNL     1       5.070   5.460  15.811  0.00  0.00    +0.000 NA
BRANCH  24  25
ATOM     25  O   UNL     1       5.712   4.516  14.996  0.00  0.00    +0.000 OA
ATOM     26  C   UNL     1       7.087   4.860  14.893  0.00  0.00    +0.000 C 
ENDBRANCH  24  25
ENDBRANCH  19  22
ENDBRANCH   5  16
BRANCH   3  27
ATOM     27  C   UNL     1       0.143   9.849  22.837  0.00  0.00    +0.000 C 
ATOM     28  N   UNL     1      -1.002  10.081  23.553  0.00  0.00    +0.000 N 
ATOM     29  O   UNL     1       1.202   9.633  23.428  0.00  0.00    +0.000 OA
ATOM     30  H   UNL     1      -1.931  10.104  23.152  0.00  0.00    +0.000 HD
ATOM     31  H   UNL     1      -0.937   9.999  24.556  0.00  0.00    +0.000 HD
ENDBRANCH   3  27
TORSDOF 6
ENDMDL
MODEL 9
REMARK VINA RESULT:      -7.1      2.981      9.851
REMARK  Name = 
REMARK  8 active torsions:
REMARK  status: ('A' for Active; 'I' for Inactive)
REMARK    1  A    between atoms: N_2  and  C_3
REMARK    2  A    between atoms: C_8  and  N_9
REMARK    3  A    between atoms: C_11  and  C_12
REMARK    4  A    between atoms: N_16  and  C_17
REMARK    5  A    between atoms: C_20  and  C_21
REMARK    6  A    between atoms: C_21  and  C_22
REMARK    7  A    between atoms: N_23  and  O_24
REMARK    8  A    between atoms: O_24  and  C_25
REMARK                            x       y       z     vdW  Elec       q    Type
REMARK                         _______ _______ _______ _____ _____    ______ ____
ROOT
ATOM      1  N   UNL     1      -0.953  11.801  20.168  0.00  0.00    +0.000 N 
ATOM      2  C   UNL     1      -0.414  12.882  19.561  0.00  0.00    +0.000 A 
ATOM      3  C   UNL     1       0.771  12.462  18.974  0.00  0.00    +0.000 A 
ATOM      4  C   UNL     1       0.816  11.054  19.259  0.00  0.00    +0.000 A 
ATOM      5  N   UNL     1       1.828  10.204  18.926  0.00  0.00    +0.000 N 
ATOM      6  N   UNL     1      -0.265  10.682  19.962  0.00  0.00    +0.000 NA
ATOM      7  H   UNL     1       2.645  10.575  18.445  0.00  0.00    +0.000 HD
ENDROOT
BRANCH   1  13
ATOM      8  C   UNL     1      -3.270  12.618  20.460  0.00  0.00    +0.000 C 
ATOM      9  C   UNL     1      -4.465  12.677  21.422  0.00  0.00    +0.000 C 
ATOM     10  C   UNL     1      -4.049  13.156  22.807  0.00  0.00    +0.000 C 
ATOM     11  C   UNL     1      -2.951  12.271  23.388  0.00  0.00    +0.000 C 
ATOM     12  C   UNL     1      -1.741  12.229  22.460  0.00  0.00    +0.000 C 
ATOM     13  C   UNL     1      -2.122  11.774  21.042  0.00  0.00    +0.000 C 
BRANCH   8  15
ATOM     14  C   UNL     1      -4.085  11.603  18.195  0.00  0.00    +0.000 C 
ATOM     15  N   UNL     1      -3.714  12.062  19.204  0.00  0.00    +0.000 NA
ENDBRANCH   8  15
ENDBRANCH   1  13
BRANCH   5  16
ATOM     16  C   UNL     1       1.889   8.803  19.121  0.00  0.00    +0.000 A 
ATOM     17  C   UNL     1       1.626   8.224  20.370  0.00  0.00    +0.000 A 
ATOM     18  C   UNL     1       1.714   6.846  20.579  0.00  0.00    +0.000 A 
ATOM     19  C   UNL     1       2.079   6.006  19.529  0.00  0.00    +0.000 A 
ATOM     20  C   UNL     1       2.403   6.573  18.287  0.00  0.00    +0.000 A 
ATOM     21  C   UNL     1       2.304   7.959  18.084  0.00  0.00    +0.000 A 
BRANCH  19  22
ATOM     22  C   UNL     1       2.099   4.519  19.677  0.00  0.00    +0.000 C 
ATOM     23  C   UNL     1       0.917   3.819  20.326  0.00  0.00    +0.000 C 
ATOM     24  N   UNL     1       3.113   3.852  19.197  0.00  0.00    +0.000 NA
BRANCH  24  25
ATOM     25  O   UNL     1       2.939   2.472  19.381  0.00  0.00    +0.000 OA
ATOM     26  C   UNL     1       3.272   1.804  18.171  0.00  0.00    +0.000 C 
ENDBRANCH  24  25
ENDBRANCH  19  22
ENDBRANCH   5  16
BRANCH   3  27
ATOM     27  C   UNL     1       1.698  13.327  18.282  0.00  0.00    +0.000 C 
ATOM     28  N   UNL     1       2.494  12.755  17.325  0.00  0.00    +0.000 N 
ATOM     29  O   UNL     1       1.783  14.535  18.508  0.00  0.00    +0.000 OA
ATOM     30  H   UNL     1       2.373  11.814  16.969  0.00  0.00    +0.000 HD
ATOM     31  H   UNL     1       3.083  13.375  16.790  0.00  0.00    +0.000 HD
ENDBRANCH   3  27
TORSDOF 6
ENDMDL
