MODEL 1
REMARK VINA RESULT:      -8.2      0.000      0.000
REMARK  Name = 
REMARK  6 active torsions:
REMARK  status: ('A' for Active; 'I' for Inactive)
REMARK    1  A    between atoms: O_1  and  C_2
REMARK    2  A    between atoms: C_14  and  O_15
REMARK    3  A    between atoms: C_18  and  N_19
REMARK    4  A    between atoms: N_19  and  C_20
REMARK    5  A    between atoms: C_20  and  C_21
REMARK    6  A    between atoms: C_21  and  C_22
REMARK                            x       y       z     vdW  Elec       q    Type
REMARK                         _______ _______ _______ _____ _____    ______ ____
ROOT
ATOM      1  C   UNL     1       1.462   3.249  21.211  0.00  0.00    +0.000 A 
ATOM      2  C   UNL     1       0.509   2.641  20.394  0.00  0.00    +0.000 A 
ATOM      3  C   UNL     1       0.719   2.616  19.025  0.00  0.00    +0.000 A 
ATOM      4  C   UNL     1       1.984   2.955  18.538  0.00  0.00    +0.000 A 
ATOM      5  C   UNL     1       2.899   3.561  19.415  0.00  0.00    +0.000 A 
ATOM      6  C   UNL     1       2.475   4.023  20.648  0.00  0.00    +0.000 A 
ATOM      7  O   UNL     1       2.569   5.390  21.044  0.00  0.00    +0.000 OA
ATOM      8  C   UNL     1       2.709   6.408  20.099  0.00  0.00    +0.000 A 
ATOM      9  C   UNL     1       3.593   6.379  19.012  0.00  0.00    +0.000 A 
ATOM     10  C   UNL     1       3.359   7.184  17.872  0.00  0.00    +0.000 A 
ATOM     11  C   UNL     1       2.231   8.020  17.871  0.00  0.00    +0.000 A 
ATOM     12  C   UNL     1       1.592   8.337  19.059  0.00  0.00    +0.000 A 
ATOM     13  C   UNL     1       1.944   7.583  20.202  0.00  0.00    +0.000 A 
ATOM     14  C   UNL     1       4.147   7.126  16.572  0.00  0.00    +0.000 C 
ATOM     15  C   UNL     1       5.663   6.804  16.585  0.00  0.00    +0.000 C 
ATOM     16  C   UNL     1       6.080   5.592  15.674  0.00  0.00    +0.000 C 
ATOM     17  C   UNL     1       5.750   4.217  16.278  0.00  0.00    +0.000 C 
ATOM     18  C   UNL     1       4.253   4.001  16.385  0.00  0.00    +0.000 C 
ATOM     19  C   UNL     1       3.770   2.626  16.692  0.00  0.00    +0.000 C 
ATOM     20  C   UNL     1       2.274   2.731  17.078  0.00  0.00    +0.000 C 
ENDROOT
BRANCH   1  21
ATOM     21  O   UNL     1       1.675   2.585  22.396  0.00  0.00    +0.000 OA
ATOM     22  H   UNL     1       2.185   3.177  22.970  0.00  0.00    +0.000 HD
ENDBRANCH   1  21
BRANCH  13  23
ATOM     23  O   UNL     1       1.845   8.261  21.400  0.00  0.00    +0.000 OA
ATOM     24  H   UNL     1       1.164   7.775  21.919  0.00  0.00    +0.000 HD
ENDBRANCH  13  23
BRANCH  16  25
ATOM     25  N   UNL     1       7.523   5.718  15.374  0.00  0.00    +0.000 NA
ATOM     26  H   UNL     1       8.067   5.504  16.212  0.00  0.00    +0.000 HD
BRANCH  25  27
ATOM     27  C   UNL     1       7.983   4.854  14.276  0.00  0.00    +0.000 C 
BRANCH  27  28
ATOM     28  C   UNL     1       7.334   5.137  12.906  0.00  0.00    +0.000 C 
BRANCH  28  29
ATOM     29  C   UNL     1       6.762   3.890  12.272  0.00  0.00    +0.000 A 
ATOM     30  C   UNL     1       5.369   3.673  12.255  0.00  0.00    +0.000 A 
ATOM     31  C   UNL     1       4.846   2.523  11.688  0.00  0.00    +0.000 A 
ATOM     32  C   UNL     1       5.700   1.569  11.127  0.00  0.00    +0.000 A 
ATOM     33  C   UNL     1       7.082   1.772  11.133  0.00  0.00    +0.000 A 
ATOM     34  C   UNL     1       7.610   2.926  11.713  0.00  0.00    +0.000 A 
ENDBRANCH  28  29
ENDBRANCH  27  28
ENDBRANCH  25  27
ENDBRANCH  16  25
TORSDOF 6
ENDMDL
MODEL 2
REMARK VINA RESULT:      -7.9      6.103      9.488
REMARK  Name = 
REMARK  6 active torsions:
REMARK  status: ('A' for Active; 'I' for Inactive)
REMARK    1  A    between atoms: O_1  and  C_2
REMARK    2  A    between atoms: C_14  and  O_15
REMARK    3  A    between atoms: C_18  and  N_19
REMARK    4  A    between atoms: N_19  and  C_20
REMARK    5  A    between atoms: C_20  and  C_21
REMARK    6  A    between atoms: C_21  and  C_22
REMARK                            x       y       z     vdW  Elec       q    Type
REMARK                         _______ _______ _______ _____ _____    ______ ____
ROOT
ATOM      1  C   UNL     1      -6.638  12.019  18.992  0.00  0.00    +0.000 A 
ATOM      2  C   UNL     1      -6.793  12.491  17.689  0.00  0.00    +0.000 A 
ATOM      3  C   UNL     1      -5.712  12.435  16.823  0.00  0.00    +0.000 A 
ATOM      4  C   UNL     1      -4.600  11.675  17.194  0.00  0.00    +0.000 A 
ATOM      5  C   UNL     1      -4.507  11.227  18.523  0.00  0.00    +0.000 A 
ATOM      6  C   UNL     1      -5.367  11.727  19.485  0.00  0.00    +0.000 A 
ATOM      7  O   UNL     1      -4.920  12.432  20.640  0.00  0.00    +0.000 OA
ATOM      8  C   UNL     1      -3.653  13.017  20.686  0.00  0.00    +0.000 A 
ATOM      9  C   UNL     1      -2.468  12.396  20.272  0.00  0.00    +0.000 A 
ATOM     10  C   UNL     1      -1.339  13.169  19.907  0.00  0.00    +0.000 A 
ATOM     11  C   UNL     1      -1.440  14.567  19.989  0.00  0.00    +0.000 A 
ATOM     12  C   UNL     1      -2.440  15.155  20.745  0.00  0.00    +0.000 A 
ATOM     13  C   UNL     1      -3.489  14.319  21.190  0.00  0.00    +0.000 A 
ATOM     14  C   UNL     1      -0.058  12.626  19.293  0.00  0.00    +0.000 C 
ATOM     15  C   UNL     1       0.473  11.226  19.690  0.00  0.00    +0.000 C 
ATOM     16  C   UNL     1       0.717  10.253  18.478  0.00  0.00    +0.000 C 
ATOM     17  C   UNL     1      -0.571   9.639  17.905  0.00  0.00    +0.000 C 
ATOM     18  C   UNL     1      -1.453  10.692  17.262  0.00  0.00    +0.000 C 
ATOM     19  C   UNL     1      -2.595  10.227  16.427  0.00  0.00    +0.000 C 
ATOM     20  C   UNL     1      -3.516  11.445  16.175  0.00  0.00    +0.000 C 
ENDROOT
BRANCH   1  21
ATOM     21  O   UNL     1      -7.738  11.343  19.467  0.00  0.00    +0.000 OA
ATOM     22  H   UNL     1      -8.388  12.009  19.741  0.00  0.00    +0.000 HD
ENDBRANCH   1  21
BRANCH  13  23
ATOM     23  O   UNL     1      -4.063  14.692  22.388  0.00  0.00    +0.000 OA
ATOM     24  H   UNL     1      -4.273  15.650  22.290  0.00  0.00    +0.000 HD
ENDBRANCH  13  23
BRANCH  16  25
ATOM     25  N   UNL     1       1.668   9.207  18.912  0.00  0.00    +0.000 NA
ATOM     26  H   UNL     1       1.306   8.740  19.745  0.00  0.00    +0.000 HD
BRANCH  25  27
ATOM     27  C   UNL     1       1.953   8.194  17.885  0.00  0.00    +0.000 C 
BRANCH  27  28
ATOM     28  C   UNL     1       2.968   7.110  18.301  0.00  0.00    +0.000 C 
BRANCH  28  29
ATOM     29  C   UNL     1       2.294   5.857  18.811  0.00  0.00    +0.000 A 
ATOM     30  C   UNL     1       2.065   5.681  20.190  0.00  0.00    +0.000 A 
ATOM     31  C   UNL     1       1.461   4.526  20.659  0.00  0.00    +0.000 A 
ATOM     32  C   UNL     1       1.074   3.526  19.762  0.00  0.00    +0.000 A 
ATOM     33  C   UNL     1       1.290   3.687  18.392  0.00  0.00    +0.000 A 
ATOM     34  C   UNL     1       1.908   4.847  17.920  0.00  0.00    +0.000 A 
ENDBRANCH  28  29
ENDBRANCH  27  28
ENDBRANCH  25  27
ENDBRANCH  16  25
TORSDOF 6
ENDMDL
MODEL 3
REMARK VINA RESULT:      -7.8      3.403      8.512
REMARK  Name = 
REMARK  6 active torsions:
REMARK  status: ('A' for Active; 'I' for Inactive)
REMARK    1  A    between atoms: O_1  and  C_2
REMARK    2  A    between atoms: C_14  and  O_15
REMARK    3  A    between atoms: C_18  and  N_19
REMARK    4  A    between atoms: N_19  and  C_20
REMARK    5  A    between atoms: C_20  and  C_21
REMARK    6  A    between atoms: C_21  and  C_22
REMARK                            x       y       z     vdW  Elec       q    Type
REMARK                         _______ _______ _______ _____ _____    ______ ____
ROOT
ATOM      1  C   UNL     1       6.937   4.452  16.978  0.00  0.00    +0.000 A 
ATOM      2  C   UNL     1       6.514   4.780  15.690  0.00  0.00    +0.000 A 
ATOM      3  C   UNL     1       5.358   5.527  15.535  0.00  0.00    +0.000 A 
ATOM      4  C   UNL     1       4.808   6.147  16.661  0.00  0.00    +0.000 A 
ATOM      5  C   UNL     1       5.282   5.773  17.930  0.00  0.00    +0.000 A 
ATOM      6  C   UNL     1       6.090   4.659  18.067  0.00  0.00    +0.000 A 
ATOM      7  O   UNL     1       5.735   3.529  18.860  0.00  0.00    +0.000 OA
ATOM      8  C   UNL     1       4.408   3.285  19.218  0.00  0.00    +0.000 A 
ATOM      9  C   UNL     1       3.518   4.251  19.707  0.00  0.00    +0.000 A 
ATOM     10  C   UNL     1       2.120   4.061  19.601  0.00  0.00    +0.000 A 
ATOM     11  C   UNL     1       1.655   2.875  19.010  0.00  0.00    +0.000 A 
ATOM     12  C   UNL     1       2.493   1.779  18.886  0.00  0.00    +0.000 A 
ATOM     13  C   UNL     1       3.871   1.990  19.118  0.00  0.00    +0.000 A 
ATOM     14  C   UNL     1       1.059   5.096  19.944  0.00  0.00    +0.000 C 
ATOM     15  C   UNL     1       1.284   6.098  21.104  0.00  0.00    +0.000 C 
ATOM     16  C   UNL     1       1.134   7.611  20.698  0.00  0.00    +0.000 C 
ATOM     17  C   UNL     1       2.345   8.172  19.934  0.00  0.00    +0.000 C 
ATOM     18  C   UNL     1       2.498   7.518  18.574  0.00  0.00    +0.000 C 
ATOM     19  C   UNL     1       3.449   8.136  17.609  0.00  0.00    +0.000 C 
ATOM     20  C   UNL     1       3.677   7.121  16.463  0.00  0.00    +0.000 C 
ENDROOT
BRANCH   1  21
ATOM     21  O   UNL     1       8.301   4.507  17.141  0.00  0.00    +0.000 OA
ATOM     22  H   UNL     1       8.663   3.666  16.823  0.00  0.00    +0.000 HD
ENDBRANCH   1  21
BRANCH  13  23
ATOM     23  O   UNL     1       4.550   0.901  19.624  0.00  0.00    +0.000 OA
ATOM     24  H   UNL     1       3.943   0.501  20.290  0.00  0.00    +0.000 HD
ENDBRANCH  13  23
BRANCH  16  25
ATOM     25  N   UNL     1       0.859   8.391  21.923  0.00  0.00    +0.000 NA
ATOM     26  H   UNL     1       1.676   8.958  22.159  0.00  0.00    +0.000 HD
BRANCH  25  27
ATOM     27  C   UNL     1      -0.315   9.270  21.822  0.00  0.00    +0.000 C 
BRANCH  27  28
ATOM     28  C   UNL     1      -0.050  10.641  21.167  0.00  0.00    +0.000 C 
BRANCH  28  29
ATOM     29  C   UNL     1      -0.875  10.850  19.918  0.00  0.00    +0.000 A 
ATOM     30  C   UNL     1      -0.628  10.082  18.762  0.00  0.00    +0.000 A 
ATOM     31  C   UNL     1      -1.373  10.284  17.613  0.00  0.00    +0.000 A 
ATOM     32  C   UNL     1      -2.380  11.254  17.594  0.00  0.00    +0.000 A 
ATOM     33  C   UNL     1      -2.640  12.021  18.732  0.00  0.00    +0.000 A 
ATOM     34  C   UNL     1      -1.881  11.824  19.888  0.00  0.00    +0.000 A 
ENDBRANCH  28  29
ENDBRANCH  27  28
ENDBRANCH  25  27
ENDBRANCH  16  25
TORSDOF 6
ENDMDL
MODEL 4
REMARK VINA RESULT:      -7.6      6.221      9.193
REMARK  Name = 
REMARK  6 active torsions:
REMARK  status: ('A' for Active; 'I' for Inactive)
REMARK    1  A    between atoms: O_1  and  C_2
REMARK    2  A    between atoms: C_14  and  O_15
REMARK    3  A    between atoms: C_18  and  N_19
REMARK    4  A    between atoms: N_19  and  C_20
REMARK    5  A    between atoms: C_20  and  C_21
REMARK    6  A    between atoms: C_21  and  C_22
REMARK                            x       y       z     vdW  Elec       q    Type
REMARK                         _______ _______ _______ _____ _____    ______ ____
ROOT
ATOM      1  C   UNL     1      -6.821  12.106  19.269  0.00  0.00    +0.000 A 
ATOM      2  C   UNL     1      -7.009  12.569  17.967  0.00  0.00    +0.000 A 
ATOM      3  C   UNL     1      -5.957  12.490  17.069  0.00  0.00    +0.000 A 
ATOM      4  C   UNL     1      -4.845  11.715  17.412  0.00  0.00    +0.000 A 
ATOM      5  C   UNL     1      -4.718  11.277  18.741  0.00  0.00    +0.000 A 
ATOM      6  C   UNL     1      -5.540  11.798  19.724  0.00  0.00    +0.000 A 
ATOM      7  O   UNL     1      -5.047  12.506  20.859  0.00  0.00    +0.000 OA
ATOM      8  C   UNL     1      -3.770  13.071  20.861  0.00  0.00    +0.000 A 
ATOM      9  C   UNL     1      -2.608  12.427  20.415  0.00  0.00    +0.000 A 
ATOM     10  C   UNL     1      -1.480  13.179  20.010  0.00  0.00    +0.000 A 
ATOM     11  C   UNL     1      -1.556  14.580  20.083  0.00  0.00    +0.000 A 
ATOM     12  C   UNL     1      -2.523  15.190  20.864  0.00  0.00    +0.000 A 
ATOM     13  C   UNL     1      -3.570  14.374  21.349  0.00  0.00    +0.000 A 
ATOM     14  C   UNL     1      -0.226  12.612  19.361  0.00  0.00    +0.000 C 
ATOM     15  C   UNL     1       0.295  11.207  19.753  0.00  0.00    +0.000 C 
ATOM     16  C   UNL     1       0.486  10.220  18.543  0.00  0.00    +0.000 C 
ATOM     17  C   UNL     1      -0.828   9.622  18.015  0.00  0.00    +0.000 C 
ATOM     18  C   UNL     1      -1.713  10.683  17.390  0.00  0.00    +0.000 C 
ATOM     19  C   UNL     1      -2.888  10.229  16.596  0.00  0.00    +0.000 C 
ATOM     20  C   UNL     1      -3.798  11.460  16.361  0.00  0.00    +0.000 C 
ENDROOT
BRANCH   1  21
ATOM     21  O   UNL     1      -7.916  11.452  19.783  0.00  0.00    +0.000 OA
ATOM     22  H   UNL     1      -8.466  11.177  19.033  0.00  0.00    +0.000 HD
ENDBRANCH   1  21
BRANCH  13  23
ATOM     23  O   UNL     1      -4.101  14.765  22.561  0.00  0.00    +0.000 OA
ATOM     24  H   UNL     1      -3.914  14.021  23.180  0.00  0.00    +0.000 HD
ENDBRANCH  13  23
BRANCH  16  25
ATOM     25  N   UNL     1       1.434   9.163  18.956  0.00  0.00    +0.000 NA
ATOM     26  H   UNL     1       1.007   8.586  19.683  0.00  0.00    +0.000 HD
BRANCH  25  27
ATOM     27  C   UNL     1       1.876   8.293  17.856  0.00  0.00    +0.000 C 
BRANCH  27  28
ATOM     28  C   UNL     1       3.300   7.718  18.010  0.00  0.00    +0.000 C 
BRANCH  28  29
ATOM     29  C   UNL     1       3.363   6.244  17.685  0.00  0.00    +0.000 A 
ATOM     30  C   UNL     1       2.290   5.393  18.019  0.00  0.00    +0.000 A 
ATOM     31  C   UNL     1       2.354   4.039  17.734  0.00  0.00    +0.000 A 
ATOM     32  C   UNL     1       3.488   3.508  17.112  0.00  0.00    +0.000 A 
ATOM     33  C   UNL     1       4.557   4.339  16.771  0.00  0.00    +0.000 A 
ATOM     34  C   UNL     1       4.497   5.703  17.067  0.00  0.00    +0.000 A 
ENDBRANCH  28  29
ENDBRANCH  27  28
ENDBRANCH  25  27
ENDBRANCH  16  25
TORSDOF 6
ENDMDL
MODEL 5
REMARK VINA RESULT:      -7.5      3.259      5.619
REMARK  Name = 
REMARK  6 active torsions:
REMARK  status: ('A' for Active; 'I' for Inactive)
REMARK    1  A    between atoms: O_1  and  C_2
REMARK    2  A    between atoms: C_14  and  O_15
REMARK    3  A    between atoms: C_18  and  N_19
REMARK    4  A    between atoms: N_19  and  C_20
REMARK    5  A    between atoms: C_20  and  C_21
REMARK    6  A    between atoms: C_21  and  C_22
REMARK                            x       y       z     vdW  Elec       q    Type
REMARK                         _______ _______ _______ _____ _____    ______ ____
ROOT
ATOM      1  C   UNL     1       1.239   3.236  20.939  0.00  0.00    +0.000 A 
ATOM      2  C   UNL     1       0.623   2.547  19.895  0.00  0.00    +0.000 A 
ATOM      3  C   UNL     1       1.131   2.681  18.613  0.00  0.00    +0.000 A 
ATOM      4  C   UNL     1       2.385   3.276  18.451  0.00  0.00    +0.000 A 
ATOM      5  C   UNL     1       2.952   3.952  19.545  0.00  0.00    +0.000 A 
ATOM      6  C   UNL     1       2.186   4.222  20.665  0.00  0.00    +0.000 A 
ATOM      7  O   UNL     1       1.929   5.544  21.135  0.00  0.00    +0.000 OA
ATOM      8  C   UNL     1       2.078   6.651  20.297  0.00  0.00    +0.000 A 
ATOM      9  C   UNL     1       3.169   6.872  19.447  0.00  0.00    +0.000 A 
ATOM     10  C   UNL     1       3.045   7.722  18.322  0.00  0.00    +0.000 A 
ATOM     11  C   UNL     1       1.807   8.346  18.097  0.00  0.00    +0.000 A 
ATOM     12  C   UNL     1       0.873   8.440  19.116  0.00  0.00    +0.000 A 
ATOM     13  C   UNL     1       1.100   7.661  20.273  0.00  0.00    +0.000 A 
ATOM     14  C   UNL     1       4.097   7.918  17.241  0.00  0.00    +0.000 C 
ATOM     15  C   UNL     1       5.605   7.865  17.593  0.00  0.00    +0.000 C 
ATOM     16  C   UNL     1       6.436   6.830  16.749  0.00  0.00    +0.000 C 
ATOM     17  C   UNL     1       6.248   5.370  17.194  0.00  0.00    +0.000 C 
ATOM     18  C   UNL     1       4.833   4.888  16.939  0.00  0.00    +0.000 C 
ATOM     19  C   UNL     1       4.564   3.428  17.060  0.00  0.00    +0.000 C 
ATOM     20  C   UNL     1       3.028   3.236  17.090  0.00  0.00    +0.000 C 
ENDROOT
BRANCH   1  21
ATOM     21  O   UNL     1       1.306   2.517  22.109  0.00  0.00    +0.000 OA
ATOM     22  H   UNL     1       0.403   2.446  22.456  0.00  0.00    +0.000 HD
ENDBRANCH   1  21
BRANCH  13  23
ATOM     23  O   UNL     1       0.613   8.202  21.445  0.00  0.00    +0.000 OA
ATOM     24  H   UNL     1       0.903   9.144  21.438  0.00  0.00    +0.000 HD
ENDBRANCH  13  23
BRANCH  16  25
ATOM     25  N   UNL     1       7.859   7.231  16.800  0.00  0.00    +0.000 NA
ATOM     26  H   UNL     1       8.120   7.679  15.920  0.00  0.00    +0.000 HD
BRANCH  25  27
ATOM     27  C   UNL     1       8.185   8.139  17.910  0.00  0.00    +0.000 C 
BRANCH  27  28
ATOM     28  C   UNL     1       8.220   9.636  17.541  0.00  0.00    +0.000 C 
BRANCH  28  29
ATOM     29  C   UNL     1       9.204  10.413  18.384  0.00  0.00    +0.000 A 
ATOM     30  C   UNL     1      10.233  11.160  17.774  0.00  0.00    +0.000 A 
ATOM     31  C   UNL     1      11.144  11.860  18.547  0.00  0.00    +0.000 A 
ATOM     32  C   UNL     1      11.047  11.829  19.942  0.00  0.00    +0.000 A 
ATOM     33  C   UNL     1      10.031  11.097  20.561  0.00  0.00    +0.000 A 
ATOM     34  C   UNL     1       9.119  10.383  19.782  0.00  0.00    +0.000 A 
ENDBRANCH  28  29
ENDBRANCH  27  28
ENDBRANCH  25  27
ENDBRANCH  16  25
TORSDOF 6
ENDMDL
MODEL 6
REMARK VINA RESULT:      -7.4      6.101      9.068
REMARK  Name = 
REMARK  6 active torsions:
REMARK  status: ('A' for Active; 'I' for Inactive)
REMARK    1  A    between atoms: O_1  and  C_2
REMARK    2  A    between atoms: C_14  and  O_15
REMARK    3  A    between atoms: C_18  and  N_19
REMARK    4  A    between atoms: N_19  and  C_20
REMARK    5  A    between atoms: C_20  and  C_21
REMARK    6  A    between atoms: C_21  and  C_22
REMARK                            x       y       z     vdW  Elec       q    Type
REMARK                         _______ _______ _______ _____ _____    ______ ____
ROOT
ATOM      1  C   UNL     1      -6.653  12.018  19.061  0.00  0.00    +0.000 A 
ATOM      2  C   UNL     1      -6.778  12.444  17.738  0.00  0.00    +0.000 A 
ATOM      3  C   UNL     1      -5.679  12.352  16.898  0.00  0.00    +0.000 A 
ATOM      4  C   UNL     1      -4.579  11.601  17.319  0.00  0.00    +0.000 A 
ATOM      5  C   UNL     1      -4.516  11.200  18.665  0.00  0.00    +0.000 A 
ATOM      6  C   UNL     1      -5.393  11.738  19.590  0.00  0.00    +0.000 A 
ATOM      7  O   UNL     1      -4.967  12.482  20.729  0.00  0.00    +0.000 OA
ATOM      8  C   UNL     1      -3.698  13.062  20.780  0.00  0.00    +0.000 A 
ATOM      9  C   UNL     1      -2.508  12.422  20.413  0.00  0.00    +0.000 A 
ATOM     10  C   UNL     1      -1.368  13.176  20.045  0.00  0.00    +0.000 A 
ATOM     11  C   UNL     1      -1.463  14.576  20.075  0.00  0.00    +0.000 A 
ATOM     12  C   UNL     1      -2.475  15.196  20.789  0.00  0.00    +0.000 A 
ATOM     13  C   UNL     1      -3.538  14.381  21.241  0.00  0.00    +0.000 A 
ATOM     14  C   UNL     1      -0.076  12.606  19.478  0.00  0.00    +0.000 C 
ATOM     15  C   UNL     1       0.439  11.218  19.935  0.00  0.00    +0.000 C 
ATOM     16  C   UNL     1       0.702  10.202  18.764  0.00  0.00    +0.000 C 
ATOM     17  C   UNL     1      -0.576   9.573  18.186  0.00  0.00    +0.000 C 
ATOM     18  C   UNL     1      -1.439  10.607  17.488  0.00  0.00    +0.000 C 
ATOM     19  C   UNL     1      -2.566  10.117  16.647  0.00  0.00    +0.000 C 
ATOM     20  C   UNL     1      -3.476  11.329  16.331  0.00  0.00    +0.000 C 
ENDROOT
BRANCH   1  21
ATOM     21  O   UNL     1      -7.765  11.365  19.536  0.00  0.00    +0.000 OA
ATOM     22  H   UNL     1      -8.241  11.011  18.769  0.00  0.00    +0.000 HD
ENDBRANCH   1  21
BRANCH  13  23
ATOM     23  O   UNL     1      -4.135  14.799  22.413  0.00  0.00    +0.000 OA
ATOM     24  H   UNL     1      -3.915  14.106  23.079  0.00  0.00    +0.000 HD
ENDBRANCH  13  23
BRANCH  16  25
ATOM     25  N   UNL     1       1.639   9.168  19.255  0.00  0.00    +0.000 NA
ATOM     26  H   UNL     1       1.168   8.579  19.944  0.00  0.00    +0.000 HD
BRANCH  25  27
ATOM     27  C   UNL     1       2.192   8.310  18.196  0.00  0.00    +0.000 C 
BRANCH  27  28
ATOM     28  C   UNL     1       2.425   6.840  18.600  0.00  0.00    +0.000 C 
BRANCH  28  29
ATOM     29  C   UNL     1       3.436   6.153  17.713  0.00  0.00    +0.000 A 
ATOM     30  C   UNL     1       4.370   6.909  16.976  0.00  0.00    +0.000 A 
ATOM     31  C   UNL     1       5.287   6.280  16.152  0.00  0.00    +0.000 A 
ATOM     32  C   UNL     1       5.293   4.886  16.046  0.00  0.00    +0.000 A 
ATOM     33  C   UNL     1       4.376   4.123  16.773  0.00  0.00    +0.000 A 
ATOM     34  C   UNL     1       3.445   4.757  17.597  0.00  0.00    +0.000 A 
ENDBRANCH  28  29
ENDBRANCH  27  28
ENDBRANCH  25  27
ENDBRANCH  16  25
TORSDOF 6
ENDMDL
MODEL 7
REMARK VINA RESULT:      -7.4      3.404      8.466
REMARK  Name = 
REMARK  6 active torsions:
REMARK  status: ('A' for Active; 'I' for Inactive)
REMARK    1  A    between atoms: O_1  and  C_2
REMARK    2  A    between atoms: C_14  and  O_15
REMARK    3  A    between atoms: C_18  and  N_19
REMARK    4  A    between atoms: N_19  and  C_20
REMARK    5  A    between atoms: C_20  and  C_21
REMARK    6  A    between atoms: C_21  and  C_22
REMARK                            x       y       z     vdW  Elec       q    Type
REMARK                         _______ _______ _______ _____ _____    ______ ____
ROOT
ATOM      1  C   UNL     1       7.008   4.435  17.061  0.00  0.00    +0.000 A 
ATOM      2  C   UNL     1       6.599   4.727  15.760  0.00  0.00    +0.000 A 
ATOM      3  C   UNL     1       5.442   5.468  15.572  0.00  0.00    +0.000 A 
ATOM      4  C   UNL     1       4.879   6.116  16.675  0.00  0.00    +0.000 A 
ATOM      5  C   UNL     1       5.339   5.777  17.959  0.00  0.00    +0.000 A 
ATOM      6  C   UNL     1       6.149   4.669  18.134  0.00  0.00    +0.000 A 
ATOM      7  O   UNL     1       5.787   3.560  18.954  0.00  0.00    +0.000 OA
ATOM      8  C   UNL     1       4.456   3.323  19.303  0.00  0.00    +0.000 A 
ATOM      9  C   UNL     1       3.559   4.299  19.756  0.00  0.00    +0.000 A 
ATOM     10  C   UNL     1       2.162   4.103  19.640  0.00  0.00    +0.000 A 
ATOM     11  C   UNL     1       1.707   2.901  19.076  0.00  0.00    +0.000 A 
ATOM     12  C   UNL     1       2.548   1.803  18.990  0.00  0.00    +0.000 A 
ATOM     13  C   UNL     1       3.923   2.023  19.231  0.00  0.00    +0.000 A 
ATOM     14  C   UNL     1       1.095   5.144  19.944  0.00  0.00    +0.000 C 
ATOM     15  C   UNL     1       1.305   6.178  21.078  0.00  0.00    +0.000 C 
ATOM     16  C   UNL     1       1.158   7.678  20.630  0.00  0.00    +0.000 C 
ATOM     17  C   UNL     1       2.375   8.222  19.865  0.00  0.00    +0.000 C 
ATOM     18  C   UNL     1       2.545   7.532  18.525  0.00  0.00    +0.000 C 
ATOM     19  C   UNL     1       3.505   8.127  17.554  0.00  0.00    +0.000 C 
ATOM     20  C   UNL     1       3.749   7.082  16.438  0.00  0.00    +0.000 C 
ENDROOT
BRANCH   1  21
ATOM     21  O   UNL     1       8.370   4.498  17.237  0.00  0.00    +0.000 OA
ATOM     22  H   UNL     1       8.535   5.066  18.006  0.00  0.00    +0.000 HD
ENDBRANCH   1  21
BRANCH  13  23
ATOM     23  O   UNL     1       4.599   0.950  19.774  0.00  0.00    +0.000 OA
ATOM     24  H   UNL     1       4.572   1.091  20.749  0.00  0.00    +0.000 HD
ENDBRANCH  13  23
BRANCH  16  25
ATOM     25  N   UNL     1       0.867   8.491  21.831  0.00  0.00    +0.000 NA
ATOM     26  H   UNL     1       1.684   9.057  22.067  0.00  0.00    +0.000 HD
BRANCH  25  27
ATOM     27  C   UNL     1      -0.299   9.375  21.688  0.00  0.00    +0.000 C 
BRANCH  27  28
ATOM     28  C   UNL     1      -0.492   9.979  20.282  0.00  0.00    +0.000 C 
BRANCH  28  29
ATOM     29  C   UNL     1       0.434  11.145  20.025  0.00  0.00    +0.000 A 
ATOM     30  C   UNL     1       0.626  12.134  21.010  0.00  0.00    +0.000 A 
ATOM     31  C   UNL     1       1.463  13.211  20.768  0.00  0.00    +0.000 A 
ATOM     32  C   UNL     1       2.125  13.321  19.542  0.00  0.00    +0.000 A 
ATOM     33  C   UNL     1       1.948  12.347  18.557  0.00  0.00    +0.000 A 
ATOM     34  C   UNL     1       1.096  11.266  18.796  0.00  0.00    +0.000 A 
ENDBRANCH  28  29
ENDBRANCH  27  28
ENDBRANCH  25  27
ENDBRANCH  16  25
TORSDOF 6
ENDMDL
MODEL 8
REMARK VINA RESULT:      -7.4      3.875      9.417
REMARK  Name = 
REMARK  6 active torsions:
REMARK  status: ('A' for Active; 'I' for Inactive)
REMARK    1  A    between atoms: O_1  and  C_2
REMARK    2  A    between atoms: C_14  and  O_15
REMARK    3  A    between atoms: C_18  and  N_19
REMARK    4  A    between atoms: N_19  and  C_20
REMARK    5  A    between atoms: C_20  and  C_21
REMARK    6  A    between atoms: C_21  and  C_22
REMARK                            x       y       z     vdW  Elec       q    Type
REMARK                         _______ _______ _______ _____ _____    ______ ____
ROOT
ATOM      1  C   UNL     1       6.892   4.416  16.848  0.00  0.00    +0.000 A 
ATOM      2  C   UNL     1       6.482   4.836  15.583  0.00  0.00    +0.000 A 
ATOM      3  C   UNL     1       5.337   5.609  15.472  0.00  0.00    +0.000 A 
ATOM      4  C   UNL     1       4.789   6.159  16.634  0.00  0.00    +0.000 A 
ATOM      5  C   UNL     1       5.251   5.694  17.878  0.00  0.00    +0.000 A 
ATOM      6  C   UNL     1       6.042   4.562  17.944  0.00  0.00    +0.000 A 
ATOM      7  O   UNL     1       5.666   3.387  18.658  0.00  0.00    +0.000 OA
ATOM      8  C   UNL     1       4.333   3.140  18.993  0.00  0.00    +0.000 A 
ATOM      9  C   UNL     1       3.455   4.084  19.541  0.00  0.00    +0.000 A 
ATOM     10  C   UNL     1       2.055   3.922  19.416  0.00  0.00    +0.000 A 
ATOM     11  C   UNL     1       1.577   2.785  18.744  0.00  0.00    +0.000 A 
ATOM     12  C   UNL     1       2.399   1.687  18.551  0.00  0.00    +0.000 A 
ATOM     13  C   UNL     1       3.778   1.862  18.803  0.00  0.00    +0.000 A 
ATOM     14  C   UNL     1       1.007   4.947  19.822  0.00  0.00    +0.000 C 
ATOM     15  C   UNL     1       1.239   5.866  21.047  0.00  0.00    +0.000 C 
ATOM     16  C   UNL     1       1.114   7.404  20.742  0.00  0.00    +0.000 C 
ATOM     17  C   UNL     1       2.337   7.998  20.023  0.00  0.00    +0.000 C 
ATOM     18  C   UNL     1       2.489   7.433  18.624  0.00  0.00    +0.000 C 
ATOM     19  C   UNL     1       3.453   8.101  17.707  0.00  0.00    +0.000 C 
ATOM     20  C   UNL     1       3.674   7.162  16.496  0.00  0.00    +0.000 C 
ENDROOT
BRANCH   1  21
ATOM     21  O   UNL     1       8.256   4.440  17.021  0.00  0.00    +0.000 OA
ATOM     22  H   UNL     1       8.656   4.501  16.139  0.00  0.00    +0.000 HD
ENDBRANCH   1  21
BRANCH  13  23
ATOM     23  O   UNL     1       4.439   0.731  19.239  0.00  0.00    +0.000 OA
ATOM     24  H   UNL     1       4.088   0.557  20.143  0.00  0.00    +0.000 HD
ENDBRANCH  13  23
BRANCH  16  25
ATOM     25  N   UNL     1       0.843   8.105  22.016  0.00  0.00    +0.000 NA
ATOM     26  H   UNL     1       1.619   7.953  22.662  0.00  0.00    +0.000 HD
BRANCH  25  27
ATOM     27  C   UNL     1       0.624   9.552  21.869  0.00  0.00    +0.000 C 
BRANCH  27  28
ATOM     28  C   UNL     1      -0.354  10.172  22.887  0.00  0.00    +0.000 C 
BRANCH  28  29
ATOM     29  C   UNL     1      -1.240  11.226  22.265  0.00  0.00    +0.000 A 
ATOM     30  C   UNL     1      -1.112  11.550  20.899  0.00  0.00    +0.000 A 
ATOM     31  C   UNL     1      -1.913  12.527  20.332  0.00  0.00    +0.000 A 
ATOM     32  C   UNL     1      -2.857  13.199  21.115  0.00  0.00    +0.000 A 
ATOM     33  C   UNL     1      -2.998  12.887  22.469  0.00  0.00    +0.000 A 
ATOM     34  C   UNL     1      -2.183  11.909  23.043  0.00  0.00    +0.000 A 
ENDBRANCH  28  29
ENDBRANCH  27  28
ENDBRANCH  25  27
ENDBRANCH  16  25
TORSDOF 6
ENDMDL
MODEL 9
REMARK VINA RESULT:      -7.3      6.165      9.653
REMARK  Name = 
REMARK  6 active torsions:
REMARK  status: ('A' for Active; 'I' for Inactive)
REMARK    1  A    between atoms: O_1  and  C_2
REMARK    2  A    between atoms: C_14  and  O_15
REMARK    3  A    between atoms: C_18  and  N_19
REMARK    4  A    between atoms: N_19  and  C_20
REMARK    5  A    between atoms: C_20  and  C_21
REMARK    6  A    between atoms: C_21  and  C_22
REMARK                            x       y       z     vdW  Elec       q    Type
REMARK                         _______ _______ _______ _____ _____    ______ ____
ROOT
ATOM      1  C   UNL     1      -6.544  12.114  18.831  0.00  0.00    +0.000 A 
ATOM      2  C   UNL     1      -6.450  12.405  17.471  0.00  0.00    +0.000 A 
ATOM      3  C   UNL     1      -5.237  12.215  16.827  0.00  0.00    +0.000 A 
ATOM      4  C   UNL     1      -4.238  11.495  17.488  0.00  0.00    +0.000 A 
ATOM      5  C   UNL     1      -4.397  11.231  18.859  0.00  0.00    +0.000 A 
ATOM      6  C   UNL     1      -5.391  11.872  19.577  0.00  0.00    +0.000 A 
ATOM      7  O   UNL     1      -5.126  12.721  20.691  0.00  0.00    +0.000 OA
ATOM      8  C   UNL     1      -3.864  13.287  20.885  0.00  0.00    +0.000 A 
ATOM      9  C   UNL     1      -2.650  12.596  20.774  0.00  0.00    +0.000 A 
ATOM     10  C   UNL     1      -1.446  13.294  20.519  0.00  0.00    +0.000 A 
ATOM     11  C   UNL     1      -1.503  14.692  20.397  0.00  0.00    +0.000 A 
ATOM     12  C   UNL     1      -2.596  15.393  20.878  0.00  0.00    +0.000 A 
ATOM     13  C   UNL     1      -3.739  14.643  21.234  0.00  0.00    +0.000 A 
ATOM     14  C   UNL     1      -0.099  12.652  20.221  0.00  0.00    +0.000 C 
ATOM     15  C   UNL     1       0.298  11.311  20.887  0.00  0.00    +0.000 C 
ATOM     16  C   UNL     1       0.711  10.178  19.877  0.00  0.00    +0.000 C 
ATOM     17  C   UNL     1      -0.480   9.512  19.169  0.00  0.00    +0.000 C 
ATOM     18  C   UNL     1      -1.193  10.481  18.246  0.00  0.00    +0.000 C 
ATOM     19  C   UNL     1      -2.189   9.924  17.289  0.00  0.00    +0.000 C 
ATOM     20  C   UNL     1      -3.003  11.110  16.718  0.00  0.00    +0.000 C 
ENDROOT
BRANCH   1  21
ATOM     21  O   UNL     1      -7.736  11.527  19.187  0.00  0.00    +0.000 OA
ATOM     22  H   UNL     1      -8.171  11.240  18.368  0.00  0.00    +0.000 HD
ENDBRANCH   1  21
BRANCH  13  23
ATOM     23  O   UNL     1      -4.499  15.185  22.251  0.00  0.00    +0.000 OA
ATOM     24  H   UNL     1      -3.978  15.035  23.074  0.00  0.00    +0.000 HD
ENDBRANCH  13  23
BRANCH  16  25
ATOM     25  N   UNL     1       1.529   9.186  20.608  0.00  0.00    +0.000 NA
ATOM     26  H   UNL     1       1.076   8.956  21.494  0.00  0.00    +0.000 HD
BRANCH  25  27
ATOM     27  C   UNL     1       1.772   7.943  19.861  0.00  0.00    +0.000 C 
BRANCH  27  28
ATOM     28  C   UNL     1       1.806   6.662  20.718  0.00  0.00    +0.000 C 
BRANCH  28  29
ATOM     29  C   UNL     1       1.664   5.409  19.885  0.00  0.00    +0.000 A 
ATOM     30  C   UNL     1       1.147   4.228  20.454  0.00  0.00    +0.000 A 
ATOM     31  C   UNL     1       1.031   3.076  19.695  0.00  0.00    +0.000 A 
ATOM     32  C   UNL     1       1.427   3.079  18.354  0.00  0.00    +0.000 A 
ATOM     33  C   UNL     1       1.938   4.242  17.775  0.00  0.00    +0.000 A 
ATOM     34  C   UNL     1       2.065   5.401  18.543  0.00  0.00    +0.000 A 
ENDBRANCH  28  29
ENDBRANCH  27  28
ENDBRANCH  25  27
ENDBRANCH  16  25
TORSDOF 6
ENDMDL
