MODEL 1
REMARK VINA RESULT:      -8.3      0.000      0.000
REMARK  Name = 
REMARK  2 active torsions:
REMARK  status: ('A' for Active; 'I' for Inactive)
REMARK    1  A    between atoms: C_1  and  N_2
REMARK    2  A    between atoms: C_8  and  C_10
REMARK                            x       y       z     vdW  Elec       q    Type
REMARK                         _______ _______ _______ _____ _____    ______ ____
ROOT
ATOM      1  C   UNL     1       3.531  14.239  19.956  0.00  0.00    +0.000 C 
ATOM      2  N   UNL     1       3.269  15.406  19.148  0.00  0.00    +0.000 N 
ATOM      3  C   UNL     1       4.156  16.284  18.562  0.00  0.00    +0.000 A 
ATOM      4  N   UNL     1       5.494  16.115  18.653  0.00  0.00    +0.000 N 
ATOM      5  C   UNL     1       6.430  17.251  18.685  0.00  0.00    +0.000 C 
ATOM      6  C   UNL     1       7.527  16.942  19.747  0.00  0.00    +0.000 C 
ATOM      7  N   UNL     1       8.127  15.595  19.555  0.00  0.00    +0.000 N 
ATOM      8  C   UNL     1       9.505  15.443  19.533  0.00  0.00    +0.000 C 
ATOM      9  O   UNL     1      10.243  16.421  19.679  0.00  0.00    +0.000 OA
ATOM     10  C   UNL     1       7.119  14.536  19.442  0.00  0.00    +0.000 C 
ATOM     11  C   UNL     1       6.136  14.854  18.307  0.00  0.00    +0.000 C 
ATOM     12  N   UNL     1       3.507  17.285  18.003  0.00  0.00    +0.000 NA
ATOM     13  C   UNL     1       2.167  17.010  18.166  0.00  0.00    +0.000 A 
ATOM     14  C   UNL     1       1.028  17.696  17.723  0.00  0.00    +0.000 A 
ATOM     15  C   UNL     1      -0.242  17.202  18.068  0.00  0.00    +0.000 A 
ATOM     16  C   UNL     1      -0.383  16.053  18.840  0.00  0.00    +0.000 A 
ATOM     17  C   UNL     1       0.739  15.341  19.276  0.00  0.00    +0.000 A 
ATOM     18  C   UNL     1       1.991  15.845  18.908  0.00  0.00    +0.000 A 
ENDROOT
BRANCH   8  19
ATOM     19  C   UNL     1      10.122  14.034  19.327  0.00  0.00    +0.000 C 
ATOM     20  C   UNL     1       9.528  13.331  18.075  0.00  0.00    +0.000 C 
ATOM     21  C   UNL     1      10.106  11.920  17.916  0.00  0.00    +0.000 C 
ATOM     22  C   UNL     1      11.611  12.045  17.651  0.00  0.00    +0.000 C 
ATOM     23  C   UNL     1      12.287  12.754  18.835  0.00  0.00    +0.000 C 
ATOM     24  C   UNL     1      12.079  11.905  20.099  0.00  0.00    +0.000 C 
ATOM     25  C   UNL     1      10.580  11.776  20.396  0.00  0.00    +0.000 C 
ATOM     26  C   UNL     1       9.869  11.113  19.203  0.00  0.00    +0.000 C 
ATOM     27  C   UNL     1      10.003  13.179  20.617  0.00  0.00    +0.000 C 
ATOM     28  C   UNL     1      11.655  14.149  19.040  0.00  0.00    +0.000 C 
ENDBRANCH   8  19
TORSDOF 1
ENDMDL
MODEL 2
REMARK VINA RESULT:      -8.1      0.082      1.409
REMARK  Name = 
REMARK  2 active torsions:
REMARK  status: ('A' for Active; 'I' for Inactive)
REMARK    1  A    between atoms: C_1  and  N_2
REMARK    2  A    between atoms: C_8  and  C_10
REMARK                            x       y       z     vdW  Elec       q    Type
REMARK                         _______ _______ _______ _____ _____    ______ ____
ROOT
ATOM      1  C   UNL     1       3.543  14.199  20.021  0.00  0.00    +0.000 C 
ATOM      2  N   UNL     1       3.268  15.364  19.215  0.00  0.00    +0.000 N 
ATOM      3  C   UNL     1       4.145  16.249  18.624  0.00  0.00    +0.000 A 
ATOM      4  N   UNL     1       5.485  16.090  18.707  0.00  0.00    +0.000 N 
ATOM      5  C   UNL     1       6.413  17.232  18.734  0.00  0.00    +0.000 C 
ATOM      6  C   UNL     1       7.518  16.931  19.789  0.00  0.00    +0.000 C 
ATOM      7  N   UNL     1       8.127  15.588  19.593  0.00  0.00    +0.000 N 
ATOM      8  C   UNL     1       9.506  15.446  19.563  0.00  0.00    +0.000 C 
ATOM      9  O   UNL     1      10.238  16.429  19.705  0.00  0.00    +0.000 OA
ATOM     10  C   UNL     1       7.126  14.522  19.486  0.00  0.00    +0.000 C 
ATOM     11  C   UNL     1       6.134  14.834  18.357  0.00  0.00    +0.000 C 
ATOM     12  N   UNL     1       3.486  17.246  18.070  0.00  0.00    +0.000 NA
ATOM     13  C   UNL     1       2.149  16.961  18.241  0.00  0.00    +0.000 A 
ATOM     14  C   UNL     1       1.003  17.640  17.805  0.00  0.00    +0.000 A 
ATOM     15  C   UNL     1      -0.262  17.137  18.157  0.00  0.00    +0.000 A 
ATOM     16  C   UNL     1      -0.390  15.986  18.930  0.00  0.00    +0.000 A 
ATOM     17  C   UNL     1       0.740  15.282  19.359  0.00  0.00    +0.000 A 
ATOM     18  C   UNL     1       1.986  15.795  18.983  0.00  0.00    +0.000 A 
ENDROOT
BRANCH   8  19
ATOM     19  C   UNL     1      10.132  14.041  19.352  0.00  0.00    +0.000 C 
ATOM     20  C   UNL     1       9.819  13.095  20.544  0.00  0.00    +0.000 C 
ATOM     21  C   UNL     1      10.489  11.730  20.346  0.00  0.00    +0.000 C 
ATOM     22  C   UNL     1       9.869  11.065  19.111  0.00  0.00    +0.000 C 
ATOM     23  C   UNL     1      10.110  11.946  17.875  0.00  0.00    +0.000 C 
ATOM     24  C   UNL     1      11.624  12.080  17.654  0.00  0.00    +0.000 C 
ATOM     25  C   UNL     1      12.269  12.755  18.871  0.00  0.00    +0.000 C 
ATOM     26  C   UNL     1      12.000  11.918  20.134  0.00  0.00    +0.000 C 
ATOM     27  C   UNL     1      11.649  14.148  19.042  0.00  0.00    +0.000 C 
ATOM     28  C   UNL     1       9.496  13.347  18.103  0.00  0.00    +0.000 C 
ENDBRANCH   8  19
TORSDOF 1
ENDMDL
MODEL 3
REMARK VINA RESULT:      -8.1      0.144      1.434
REMARK  Name = 
REMARK  2 active torsions:
REMARK  status: ('A' for Active; 'I' for Inactive)
REMARK    1  A    between atoms: C_1  and  N_2
REMARK    2  A    between atoms: C_8  and  C_10
REMARK                            x       y       z     vdW  Elec       q    Type
REMARK                         _______ _______ _______ _____ _____    ______ ____
ROOT
ATOM      1  C   UNL     1       3.555  14.157  20.042  0.00  0.00    +0.000 C 
ATOM      2  N   UNL     1       3.250  15.290  19.202  0.00  0.00    +0.000 N 
ATOM      3  C   UNL     1       4.105  16.159  18.558  0.00  0.00    +0.000 A 
ATOM      4  N   UNL     1       5.448  16.013  18.613  0.00  0.00    +0.000 N 
ATOM      5  C   UNL     1       6.367  17.162  18.575  0.00  0.00    +0.000 C 
ATOM      6  C   UNL     1       7.501  16.906  19.612  0.00  0.00    +0.000 C 
ATOM      7  N   UNL     1       8.115  15.561  19.449  0.00  0.00    +0.000 N 
ATOM      8  C   UNL     1       9.494  15.429  19.389  0.00  0.00    +0.000 C 
ATOM      9  O   UNL     1      10.222  16.422  19.477  0.00  0.00    +0.000 OA
ATOM     10  C   UNL     1       7.120  14.485  19.405  0.00  0.00    +0.000 C 
ATOM     11  C   UNL     1       6.098  14.749  18.291  0.00  0.00    +0.000 C 
ATOM     12  N   UNL     1       3.424  17.131  17.985  0.00  0.00    +0.000 NA
ATOM     13  C   UNL     1       2.095  16.842  18.200  0.00  0.00    +0.000 A 
ATOM     14  C   UNL     1       0.932  17.497  17.769  0.00  0.00    +0.000 A 
ATOM     15  C   UNL     1      -0.319  16.998  18.171  0.00  0.00    +0.000 A 
ATOM     16  C   UNL     1      -0.418  15.874  18.987  0.00  0.00    +0.000 A 
ATOM     17  C   UNL     1       0.727  15.195  19.412  0.00  0.00    +0.000 A 
ATOM     18  C   UNL     1       1.959  15.703  18.987  0.00  0.00    +0.000 A 
ENDROOT
BRANCH   8  19
ATOM     19  C   UNL     1      10.126  14.022  19.213  0.00  0.00    +0.000 C 
ATOM     20  C   UNL     1      11.667  14.107  19.038  0.00  0.00    +0.000 C 
ATOM     21  C   UNL     1      12.268  12.716  18.811  0.00  0.00    +0.000 C 
ATOM     22  C   UNL     1      12.038  11.881  20.076  0.00  0.00    +0.000 C 
ATOM     23  C   UNL     1      10.529  11.758  20.345  0.00  0.00    +0.000 C 
ATOM     24  C   UNL     1       9.874  11.040  19.155  0.00  0.00    +0.000 C 
ATOM     25  C   UNL     1      10.079  11.862  17.876  0.00  0.00    +0.000 C 
ATOM     26  C   UNL     1      11.584  12.043  17.609  0.00  0.00    +0.000 C 
ATOM     27  C   UNL     1       9.427  13.237  18.070  0.00  0.00    +0.000 C 
ATOM     28  C   UNL     1       9.910  13.165  20.504  0.00  0.00    +0.000 C 
ENDBRANCH   8  19
TORSDOF 1
ENDMDL
MODEL 4
REMARK VINA RESULT:      -8.0      7.914      8.993
REMARK  Name = 
REMARK  2 active torsions:
REMARK  status: ('A' for Active; 'I' for Inactive)
REMARK    1  A    between atoms: C_1  and  N_2
REMARK    2  A    between atoms: C_8  and  C_10
REMARK                            x       y       z     vdW  Elec       q    Type
REMARK                         _______ _______ _______ _____ _____    ______ ____
ROOT
ATOM      1  C   UNL     1      -0.289   9.813  17.938  0.00  0.00    +0.000 C 
ATOM      2  N   UNL     1      -0.309  10.159  19.339  0.00  0.00    +0.000 N 
ATOM      3  C   UNL     1       0.375   9.591  20.393  0.00  0.00    +0.000 A 
ATOM      4  N   UNL     1       1.252   8.578  20.212  0.00  0.00    +0.000 N 
ATOM      5  C   UNL     1       1.468   7.532  21.226  0.00  0.00    +0.000 C 
ATOM      6  C   UNL     1       1.580   6.164  20.489  0.00  0.00    +0.000 C 
ATOM      7  N   UNL     1       2.557   6.211  19.369  0.00  0.00    +0.000 N 
ATOM      8  C   UNL     1       3.531   5.231  19.254  0.00  0.00    +0.000 C 
ATOM      9  O   UNL     1       3.591   4.311  20.074  0.00  0.00    +0.000 OA
ATOM     10  C   UNL     1       2.323   7.337  18.460  0.00  0.00    +0.000 C 
ATOM     11  C   UNL     1       2.332   8.661  19.237  0.00  0.00    +0.000 C 
ATOM     12  N   UNL     1      -0.013  10.126  21.533  0.00  0.00    +0.000 NA
ATOM     13  C   UNL     1      -0.914  11.114  21.203  0.00  0.00    +0.000 A 
ATOM     14  C   UNL     1      -1.597  12.038  22.005  0.00  0.00    +0.000 A 
ATOM     15  C   UNL     1      -2.501  12.929  21.400  0.00  0.00    +0.000 A 
ATOM     16  C   UNL     1      -2.728  12.902  20.026  0.00  0.00    +0.000 A 
ATOM     17  C   UNL     1      -2.042  12.002  19.204  0.00  0.00    +0.000 A 
ATOM     18  C   UNL     1      -1.138  11.137  19.829  0.00  0.00    +0.000 A 
ENDROOT
BRANCH   8  19
ATOM     19  C   UNL     1       4.549   5.291  18.084  0.00  0.00    +0.000 C 
ATOM     20  C   UNL     1       4.932   6.757  17.737  0.00  0.00    +0.000 C 
ATOM     21  C   UNL     1       5.895   6.802  16.546  0.00  0.00    +0.000 C 
ATOM     22  C   UNL     1       7.202   6.116  16.959  0.00  0.00    +0.000 C 
ATOM     23  C   UNL     1       6.920   4.655  17.344  0.00  0.00    +0.000 C 
ATOM     24  C   UNL     1       6.347   3.926  16.118  0.00  0.00    +0.000 C 
ATOM     25  C   UNL     1       5.029   4.586  15.691  0.00  0.00    +0.000 C 
ATOM     26  C   UNL     1       5.275   6.065  15.347  0.00  0.00    +0.000 C 
ATOM     27  C   UNL     1       4.036   4.491  16.857  0.00  0.00    +0.000 C 
ATOM     28  C   UNL     1       5.893   4.608  18.499  0.00  0.00    +0.000 C 
ENDBRANCH   8  19
TORSDOF 1
ENDMDL
MODEL 5
REMARK VINA RESULT:      -7.9      7.913      9.345
REMARK  Name = 
REMARK  2 active torsions:
REMARK  status: ('A' for Active; 'I' for Inactive)
REMARK    1  A    between atoms: C_1  and  N_2
REMARK    2  A    between atoms: C_8  and  C_10
REMARK                            x       y       z     vdW  Elec       q    Type
REMARK                         _______ _______ _______ _____ _____    ______ ____
ROOT
ATOM      1  C   UNL     1       0.240  10.007  18.701  0.00  0.00    +0.000 C 
ATOM      2  N   UNL     1       0.061   9.921  20.130  0.00  0.00    +0.000 N 
ATOM      3  C   UNL     1       0.542   8.984  21.020  0.00  0.00    +0.000 A 
ATOM      4  N   UNL     1       1.343   7.969  20.624  0.00  0.00    +0.000 N 
ATOM      5  C   UNL     1       1.324   6.651  21.280  0.00  0.00    +0.000 C 
ATOM      6  C   UNL     1       1.412   5.560  20.171  0.00  0.00    +0.000 C 
ATOM      7  N   UNL     1       2.532   5.813  19.226  0.00  0.00    +0.000 N 
ATOM      8  C   UNL     1       3.422   4.796  18.912  0.00  0.00    +0.000 C 
ATOM      9  O   UNL     1       3.288   3.675  19.409  0.00  0.00    +0.000 OA
ATOM     10  C   UNL     1       2.526   7.179  18.692  0.00  0.00    +0.000 C 
ATOM     11  C   UNL     1       2.547   8.200  19.838  0.00  0.00    +0.000 C 
ATOM     12  N   UNL     1       0.053   9.202  22.224  0.00  0.00    +0.000 NA
ATOM     13  C   UNL     1      -0.703  10.348  22.126  0.00  0.00    +0.000 A 
ATOM     14  C   UNL     1      -1.403  11.072  23.101  0.00  0.00    +0.000 A 
ATOM     15  C   UNL     1      -2.134  12.209  22.714  0.00  0.00    +0.000 A 
ATOM     16  C   UNL     1      -2.173  12.620  21.384  0.00  0.00    +0.000 A 
ATOM     17  C   UNL     1      -1.466  11.925  20.398  0.00  0.00    +0.000 A 
ATOM     18  C   UNL     1      -0.736  10.806  20.812  0.00  0.00    +0.000 A 
ENDROOT
BRANCH   8  19
ATOM     19  C   UNL     1       4.591   5.072  17.929  0.00  0.00    +0.000 C 
ATOM     20  C   UNL     1       5.931   5.290  18.685  0.00  0.00    +0.000 C 
ATOM     21  C   UNL     1       7.063   5.615  17.704  0.00  0.00    +0.000 C 
ATOM     22  C   UNL     1       7.285   4.393  16.805  0.00  0.00    +0.000 C 
ATOM     23  C   UNL     1       5.996   4.084  16.026  0.00  0.00    +0.000 C 
ATOM     24  C   UNL     1       5.655   5.293  15.140  0.00  0.00    +0.000 C 
ATOM     25  C   UNL     1       5.415   6.528  16.018  0.00  0.00    +0.000 C 
ATOM     26  C   UNL     1       6.676   6.831  16.846  0.00  0.00    +0.000 C 
ATOM     27  C   UNL     1       4.243   6.235  16.962  0.00  0.00    +0.000 C 
ATOM     28  C   UNL     1       4.836   3.826  17.016  0.00  0.00    +0.000 C 
ENDBRANCH   8  19
TORSDOF 1
ENDMDL
MODEL 6
REMARK VINA RESULT:      -7.8      7.940      9.325
REMARK  Name = 
REMARK  2 active torsions:
REMARK  status: ('A' for Active; 'I' for Inactive)
REMARK    1  A    between atoms: C_1  and  N_2
REMARK    2  A    between atoms: C_8  and  C_10
REMARK                            x       y       z     vdW  Elec       q    Type
REMARK                         _______ _______ _______ _____ _____    ______ ____
ROOT
ATOM      1  C   UNL     1       0.265   9.976  18.717  0.00  0.00    +0.000 C 
ATOM      2  N   UNL     1       0.094   9.866  20.146  0.00  0.00    +0.000 N 
ATOM      3  C   UNL     1       0.572   8.909  21.015  0.00  0.00    +0.000 A 
ATOM      4  N   UNL     1       1.360   7.893  20.596  0.00  0.00    +0.000 N 
ATOM      5  C   UNL     1       1.333   6.563  21.229  0.00  0.00    +0.000 C 
ATOM      6  C   UNL     1       1.403   5.492  20.100  0.00  0.00    +0.000 C 
ATOM      7  N   UNL     1       2.520   5.752  19.152  0.00  0.00    +0.000 N 
ATOM      8  C   UNL     1       3.397   4.732  18.814  0.00  0.00    +0.000 C 
ATOM      9  O   UNL     1       3.256   3.603  19.291  0.00  0.00    +0.000 OA
ATOM     10  C   UNL     1       2.523   7.126  18.642  0.00  0.00    +0.000 C 
ATOM     11  C   UNL     1       2.562   8.126  19.806  0.00  0.00    +0.000 C 
ATOM     12  N   UNL     1       0.093   9.109  22.226  0.00  0.00    +0.000 NA
ATOM     13  C   UNL     1      -0.652  10.265  22.154  0.00  0.00    +0.000 A 
ATOM     14  C   UNL     1      -1.339  10.977  23.147  0.00  0.00    +0.000 A 
ATOM     15  C   UNL     1      -2.061  12.128  22.785  0.00  0.00    +0.000 A 
ATOM     16  C   UNL     1      -2.106  12.563  21.463  0.00  0.00    +0.000 A 
ATOM     17  C   UNL     1      -1.411  11.880  20.460  0.00  0.00    +0.000 A 
ATOM     18  C   UNL     1      -0.689  10.746  20.849  0.00  0.00    +0.000 A 
ENDROOT
BRANCH   8  19
ATOM     19  C   UNL     1       4.562   5.014  17.828  0.00  0.00    +0.000 C 
ATOM     20  C   UNL     1       4.305   6.302  16.997  0.00  0.00    +0.000 C 
ATOM     21  C   UNL     1       5.438   6.536  15.991  0.00  0.00    +0.000 C 
ATOM     22  C   UNL     1       6.730   6.796  16.774  0.00  0.00    +0.000 C 
ATOM     23  C   UNL     1       7.057   5.575  17.649  0.00  0.00    +0.000 C 
ATOM     24  C   UNL     1       7.271   4.359  16.736  0.00  0.00    +0.000 C 
ATOM     25  C   UNL     1       5.986   4.069  15.949  0.00  0.00    +0.000 C 
ATOM     26  C   UNL     1       5.608   5.295  15.100  0.00  0.00    +0.000 C 
ATOM     27  C   UNL     1       4.859   3.772  16.947  0.00  0.00    +0.000 C 
ATOM     28  C   UNL     1       5.884   5.295  18.616  0.00  0.00    +0.000 C 
ENDBRANCH   8  19
TORSDOF 1
ENDMDL
MODEL 7
REMARK VINA RESULT:      -7.8      7.920      9.284
REMARK  Name = 
REMARK  2 active torsions:
REMARK  status: ('A' for Active; 'I' for Inactive)
REMARK    1  A    between atoms: C_1  and  N_2
REMARK    2  A    between atoms: C_8  and  C_10
REMARK                            x       y       z     vdW  Elec       q    Type
REMARK                         _______ _______ _______ _____ _____    ______ ____
ROOT
ATOM      1  C   UNL     1       0.252   9.975  18.666  0.00  0.00    +0.000 C 
ATOM      2  N   UNL     1       0.078   9.898  20.097  0.00  0.00    +0.000 N 
ATOM      3  C   UNL     1       0.561   8.965  20.990  0.00  0.00    +0.000 A 
ATOM      4  N   UNL     1       1.357   7.945  20.598  0.00  0.00    +0.000 N 
ATOM      5  C   UNL     1       1.338   6.632  21.262  0.00  0.00    +0.000 C 
ATOM      6  C   UNL     1       1.420   5.534  20.160  0.00  0.00    +0.000 C 
ATOM      7  N   UNL     1       2.537   5.779  19.209  0.00  0.00    +0.000 N 
ATOM      8  C   UNL     1       3.423   4.758  18.899  0.00  0.00    +0.000 C 
ATOM      9  O   UNL     1       3.289   3.640  19.403  0.00  0.00    +0.000 OA
ATOM     10  C   UNL     1       2.531   7.141  18.667  0.00  0.00    +0.000 C 
ATOM     11  C   UNL     1       2.559   8.169  19.806  0.00  0.00    +0.000 C 
ATOM     12  N   UNL     1       0.076   9.191  22.194  0.00  0.00    +0.000 NA
ATOM     13  C   UNL     1      -0.677  10.339  22.093  0.00  0.00    +0.000 A 
ATOM     14  C   UNL     1      -1.373  11.070  23.066  0.00  0.00    +0.000 A 
ATOM     15  C   UNL     1      -2.102  12.206  22.674  0.00  0.00    +0.000 A 
ATOM     16  C   UNL     1      -2.146  12.609  21.342  0.00  0.00    +0.000 A 
ATOM     17  C   UNL     1      -1.444  11.907  20.357  0.00  0.00    +0.000 A 
ATOM     18  C   UNL     1      -0.714  10.789  20.776  0.00  0.00    +0.000 A 
ENDROOT
BRANCH   8  19
ATOM     19  C   UNL     1       4.589   5.025  17.910  0.00  0.00    +0.000 C 
ATOM     20  C   UNL     1       4.793   3.832  16.935  0.00  0.00    +0.000 C 
ATOM     21  C   UNL     1       5.981   4.087  16.001  0.00  0.00    +0.000 C 
ATOM     22  C   UNL     1       5.647   5.295  15.118  0.00  0.00    +0.000 C 
ATOM     23  C   UNL     1       5.405   6.530  16.002  0.00  0.00    +0.000 C 
ATOM     24  C   UNL     1       6.692   6.833  16.785  0.00  0.00    +0.000 C 
ATOM     25  C   UNL     1       7.043   5.644  17.688  0.00  0.00    +0.000 C 
ATOM     26  C   UNL     1       7.242   4.381  16.832  0.00  0.00    +0.000 C 
ATOM     27  C   UNL     1       5.885   5.417  18.668  0.00  0.00    +0.000 C 
ATOM     28  C   UNL     1       4.253   6.246  16.993  0.00  0.00    +0.000 C 
ENDBRANCH   8  19
TORSDOF 1
ENDMDL
MODEL 8
REMARK VINA RESULT:      -7.6      7.970      9.591
REMARK  Name = 
REMARK  2 active torsions:
REMARK  status: ('A' for Active; 'I' for Inactive)
REMARK    1  A    between atoms: C_1  and  N_2
REMARK    2  A    between atoms: C_8  and  C_10
REMARK                            x       y       z     vdW  Elec       q    Type
REMARK                         _______ _______ _______ _____ _____    ______ ____
ROOT
ATOM      1  C   UNL     1       0.813  10.070  22.105  0.00  0.00    +0.000 C 
ATOM      2  N   UNL     1       0.351  10.896  21.015  0.00  0.00    +0.000 N 
ATOM      3  C   UNL     1       0.464  10.697  19.655  0.00  0.00    +0.000 A 
ATOM      4  N   UNL     1       1.038   9.587  19.140  0.00  0.00    +0.000 N 
ATOM      5  C   UNL     1       1.781   9.601  17.869  0.00  0.00    +0.000 C 
ATOM      6  C   UNL     1       3.055   8.722  18.046  0.00  0.00    +0.000 C 
ATOM      7  N   UNL     1       2.736   7.384  18.611  0.00  0.00    +0.000 N 
ATOM      8  C   UNL     1       3.233   6.237  18.009  0.00  0.00    +0.000 C 
ATOM      9  O   UNL     1       3.948   6.319  17.006  0.00  0.00    +0.000 OA
ATOM     10  C   UNL     1       1.916   7.461  19.824  0.00  0.00    +0.000 C 
ATOM     11  C   UNL     1       0.628   8.249  19.548  0.00  0.00    +0.000 C 
ATOM     12  N   UNL     1       0.012  11.747  19.000  0.00  0.00    +0.000 NA
ATOM     13  C   UNL     1      -0.473  12.613  19.955  0.00  0.00    +0.000 A 
ATOM     14  C   UNL     1      -1.117  13.851  19.830  0.00  0.00    +0.000 A 
ATOM     15  C   UNL     1      -1.482  14.551  20.993  0.00  0.00    +0.000 A 
ATOM     16  C   UNL     1      -1.210  14.037  22.258  0.00  0.00    +0.000 A 
ATOM     17  C   UNL     1      -0.586  12.794  22.407  0.00  0.00    +0.000 A 
ATOM     18  C   UNL     1      -0.247  12.111  21.234  0.00  0.00    +0.000 A 
ENDROOT
BRANCH   8  19
ATOM     19  C   UNL     1       2.890   4.845  18.603  0.00  0.00    +0.000 C 
ATOM     20  C   UNL     1       1.562   4.288  18.018  0.00  0.00    +0.000 C 
ATOM     21  C   UNL     1       1.210   2.939  18.654  0.00  0.00    +0.000 C 
ATOM     22  C   UNL     1       2.294   1.927  18.265  0.00  0.00    +0.000 C 
ATOM     23  C   UNL     1       3.659   2.406  18.786  0.00  0.00    +0.000 C 
ATOM     24  C   UNL     1       3.596   2.496  20.318  0.00  0.00    +0.000 C 
ATOM     25  C   UNL     1       2.526   3.514  20.735  0.00  0.00    +0.000 C 
ATOM     26  C   UNL     1       1.156   3.084  20.184  0.00  0.00    +0.000 C 
ATOM     27  C   UNL     1       2.902   4.883  20.154  0.00  0.00    +0.000 C 
ATOM     28  C   UNL     1       3.982   3.800  18.200  0.00  0.00    +0.000 C 
ENDBRANCH   8  19
TORSDOF 1
ENDMDL
MODEL 9
REMARK VINA RESULT:      -7.5      8.029      9.771
REMARK  Name = 
REMARK  2 active torsions:
REMARK  status: ('A' for Active; 'I' for Inactive)
REMARK    1  A    between atoms: C_1  and  N_2
REMARK    2  A    between atoms: C_8  and  C_10
REMARK                            x       y       z     vdW  Elec       q    Type
REMARK                         _______ _______ _______ _____ _____    ______ ____
ROOT
ATOM      1  C   UNL     1       0.505   9.630  22.480  0.00  0.00    +0.000 C 
ATOM      2  N   UNL     1      -0.101  10.483  21.486  0.00  0.00    +0.000 N 
ATOM      3  C   UNL     1      -0.024  10.418  20.110  0.00  0.00    +0.000 A 
ATOM      4  N   UNL     1       0.657   9.436  19.478  0.00  0.00    +0.000 N 
ATOM      5  C   UNL     1       1.336   9.653  18.190  0.00  0.00    +0.000 C 
ATOM      6  C   UNL     1       2.713   8.928  18.244  0.00  0.00    +0.000 C 
ATOM      7  N   UNL     1       2.584   7.516  18.695  0.00  0.00    +0.000 N 
ATOM      8  C   UNL     1       3.190   6.497  17.974  0.00  0.00    +0.000 C 
ATOM      9  O   UNL     1       3.845   6.753  16.961  0.00  0.00    +0.000 OA
ATOM     10  C   UNL     1       1.815   7.385  19.936  0.00  0.00    +0.000 C 
ATOM     11  C   UNL     1       0.430   8.028  19.776  0.00  0.00    +0.000 C 
ATOM     12  N   UNL     1      -0.629  11.456  19.569  0.00  0.00    +0.000 NA
ATOM     13  C   UNL     1      -1.173  12.168  20.614  0.00  0.00    +0.000 A 
ATOM     14  C   UNL     1      -1.967  13.323  20.623  0.00  0.00    +0.000 A 
ATOM     15  C   UNL     1      -2.363  13.869  21.857  0.00  0.00    +0.000 A 
ATOM     16  C   UNL     1      -1.976  13.285  23.060  0.00  0.00    +0.000 A 
ATOM     17  C   UNL     1      -1.200  12.122  23.075  0.00  0.00    +0.000 A 
ATOM     18  C   UNL     1      -0.832  11.591  21.834  0.00  0.00    +0.000 A 
ENDROOT
BRANCH   8  19
ATOM     19  C   UNL     1       3.045   5.027  18.450  0.00  0.00    +0.000 C 
ATOM     20  C   UNL     1       3.090   4.923  20.000  0.00  0.00    +0.000 C 
ATOM     21  C   UNL     1       3.000   3.461  20.451  0.00  0.00    +0.000 C 
ATOM     22  C   UNL     1       1.630   2.913  20.035  0.00  0.00    +0.000 C 
ATOM     23  C   UNL     1       1.483   2.996  18.507  0.00  0.00    +0.000 C 
ATOM     24  C   UNL     1       2.575   2.130  17.861  0.00  0.00    +0.000 C 
ATOM     25  C   UNL     1       3.959   2.666  18.251  0.00  0.00    +0.000 C 
ATOM     26  C   UNL     1       4.115   2.640  19.781  0.00  0.00    +0.000 C 
ATOM     27  C   UNL     1       4.083   4.110  17.749  0.00  0.00    +0.000 C 
ATOM     28  C   UNL     1       1.644   4.462  18.045  0.00  0.00    +0.000 C 
ENDBRANCH   8  19
TORSDOF 1
ENDMDL
