MODEL 1
REMARK VINA RESULT:      -8.0      0.000      0.000
REMARK  Name = 
REMARK  10 active torsions:
REMARK  status: ('A' for Active; 'I' for Inactive)
REMARK    1  A    between atoms: C_1  and  C_2
REMARK    2  A    between atoms: C_2  and  C_3
REMARK    3  A    between atoms: C_3  and  O_5
REMARK    4  A    between atoms: O_5  and  C_6
REMARK    5  A    between atoms: C_6  and  C_7
REMARK    6  A    between atoms: C_10  and  C_11
REMARK    7  A    between atoms: C_16  and  C_17
REMARK    8  A    between atoms: N_19  and  C_20
REMARK    9  A    between atoms: C_23  and  C_24
REMARK   10  A    between atoms: C_24  and  C_25
REMARK                            x       y       z     vdW  Elec       q    Type
REMARK                         _______ _______ _______ _____ _____    ______ ____
ROOT
ATOM      1  C   UNL     1       4.293   5.136  17.355  0.00  0.00    +0.000 A 
ATOM      2  C   UNL     1       4.590   3.818  17.695  0.00  0.00    +0.000 A 
ATOM      3  N   UNL     1       4.142   3.195  18.808  0.00  0.00    +0.000 NA
ATOM      4  C   UNL     1       3.340   3.897  19.643  0.00  0.00    +0.000 A 
ATOM      5  C   UNL     1       2.835   3.185  20.860  0.00  0.00    +0.000 C 
ATOM      6  C   UNL     1       2.991   5.216  19.383  0.00  0.00    +0.000 A 
ATOM      7  O   UNL     1       2.164   5.903  20.295  0.00  0.00    +0.000 OA
ATOM      8  C   UNL     1       1.798   7.234  20.110  0.00  0.00    +0.000 A 
ATOM      9  O   UNL     1       1.123   7.834  20.940  0.00  0.00    +0.000 OA
ATOM     10  C   UNL     1       2.263   7.883  18.875  0.00  0.00    +0.000 A 
ATOM     11  C   UNL     1       3.050   7.220  18.011  0.00  0.00    +0.000 A 
ATOM     12  C   UNL     1       3.465   5.846  18.236  0.00  0.00    +0.000 A 
ENDROOT
BRANCH  10  13
ATOM     13  C   UNL     1       1.915   9.276  18.468  0.00  0.00    +0.000 C 
ATOM     14  O   UNL     1       2.094   9.606  17.298  0.00  0.00    +0.000 OA
ATOM     15  N   UNL     1       1.449  10.119  19.453  0.00  0.00    +0.000 N 
ATOM     16  H   UNL     1       1.466   9.789  20.417  0.00  0.00    +0.000 HD
BRANCH  15  17
ATOM     17  C   UNL     1       1.010  11.448  19.234  0.00  0.00    +0.000 A 
ATOM     18  C   UNL     1      -0.333  11.774  19.025  0.00  0.00    +0.000 A 
ATOM     19  C   UNL     1      -0.731  13.091  18.803  0.00  0.00    +0.000 A 
ATOM     20  C   UNL     1       0.210  14.119  18.776  0.00  0.00    +0.000 A 
ATOM     21  C   UNL     1       1.557  13.804  19.002  0.00  0.00    +0.000 A 
ATOM     22  C   UNL     1       1.953  12.479  19.241  0.00  0.00    +0.000 A 
BRANCH  20  23
ATOM     23  C   UNL     1      -0.243  15.533  18.525  0.00  0.00    +0.000 C 
ATOM     24  C   UNL     1      -0.993  16.116  19.712  0.00  0.00    +0.000 C 
ENDBRANCH  20  23
ENDBRANCH  15  17
ENDBRANCH  10  13
BRANCH   1  25
ATOM     25  C   UNL     1       4.863   5.715  16.086  0.00  0.00    +0.000 C 
BRANCH  25  26
ATOM     26  O   UNL     1       5.942   6.621  16.363  0.00  0.00    +0.000 OA
BRANCH  26  27
ATOM     27  C   UNL     1       7.086   6.034  16.803  0.00  0.00    +0.000 C 
ATOM     28  O   UNL     1       7.616   5.062  16.288  0.00  0.00    +0.000 OA
BRANCH  27  30
ATOM     29  C   UNL     1       7.809   8.244  17.719  0.00  0.00    +0.000 C 
ATOM     30  C   UNL     1       7.600   6.770  18.019  0.00  0.00    +0.000 C 
ENDBRANCH  27  30
ENDBRANCH  26  27
ENDBRANCH  25  26
ENDBRANCH   1  25
TORSDOF 7
ENDMDL
MODEL 2
REMARK VINA RESULT:      -8.0      0.767      1.232
REMARK  Name = 
REMARK  10 active torsions:
REMARK  status: ('A' for Active; 'I' for Inactive)
REMARK    1  A    between atoms: C_1  and  C_2
REMARK    2  A    between atoms: C_2  and  C_3
REMARK    3  A    between atoms: C_3  and  O_5
REMARK    4  A    between atoms: O_5  and  C_6
REMARK    5  A    between atoms: C_6  and  C_7
REMARK    6  A    between atoms: C_10  and  C_11
REMARK    7  A    between atoms: C_16  and  C_17
REMARK    8  A    between atoms: N_19  and  C_20
REMARK    9  A    between atoms: C_23  and  C_24
REMARK   10  A    between atoms: C_24  and  C_25
REMARK                            x       y       z     vdW  Elec       q    Type
REMARK                         _______ _______ _______ _____ _____    ______ ____
ROOT
ATOM      1  C   UNL     1       4.017   4.827  18.069  0.00  0.00    +0.000 A 
ATOM      2  C   UNL     1       4.224   3.523  18.514  0.00  0.00    +0.000 A 
ATOM      3  N   UNL     1       3.666   2.997  19.628  0.00  0.00    +0.000 NA
ATOM      4  C   UNL     1       2.840   3.788  20.353  0.00  0.00    +0.000 A 
ATOM      5  C   UNL     1       2.214   3.184  21.572  0.00  0.00    +0.000 C 
ATOM      6  C   UNL     1       2.576   5.101  19.982  0.00  0.00    +0.000 A 
ATOM      7  O   UNL     1       1.718   5.884  20.782  0.00  0.00    +0.000 OA
ATOM      8  C   UNL     1       1.431   7.213  20.484  0.00  0.00    +0.000 A 
ATOM      9  O   UNL     1       0.728   7.898  21.220  0.00  0.00    +0.000 OA
ATOM     10  C   UNL     1       2.017   7.756  19.249  0.00  0.00    +0.000 A 
ATOM     11  C   UNL     1       2.832   7.002  18.492  0.00  0.00    +0.000 A 
ATOM     12  C   UNL     1       3.161   5.630  18.837  0.00  0.00    +0.000 A 
ENDROOT
BRANCH  10  13
ATOM     13  C   UNL     1       1.768   9.132  18.728  0.00  0.00    +0.000 C 
ATOM     14  O   UNL     1       1.981   9.355  17.538  0.00  0.00    +0.000 OA
ATOM     15  N   UNL     1       1.348  10.080  19.634  0.00  0.00    +0.000 N 
ATOM     16  H   UNL     1       1.332   9.828  20.622  0.00  0.00    +0.000 HD
BRANCH  15  17
ATOM     17  C   UNL     1       1.002  11.413  19.304  0.00  0.00    +0.000 A 
ATOM     18  C   UNL     1       1.959  12.395  19.030  0.00  0.00    +0.000 A 
ATOM     19  C   UNL     1       1.586  13.701  18.718  0.00  0.00    +0.000 A 
ATOM     20  C   UNL     1       0.240  14.062  18.680  0.00  0.00    +0.000 A 
ATOM     21  C   UNL     1      -0.727  13.080  18.936  0.00  0.00    +0.000 A 
ATOM     22  C   UNL     1      -0.350  11.762  19.235  0.00  0.00    +0.000 A 
BRANCH  20  23
ATOM     23  C   UNL     1      -0.138  15.482  18.350  0.00  0.00    +0.000 C 
ATOM     24  C   UNL     1      -0.184  16.367  19.585  0.00  0.00    +0.000 C 
ENDBRANCH  20  23
ENDBRANCH  15  17
ENDBRANCH  10  13
BRANCH   1  25
ATOM     25  C   UNL     1       4.706   5.292  16.812  0.00  0.00    +0.000 C 
BRANCH  25  26
ATOM     26  O   UNL     1       6.036   4.761  16.717  0.00  0.00    +0.000 OA
BRANCH  26  27
ATOM     27  C   UNL     1       6.987   5.660  16.347  0.00  0.00    +0.000 C 
ATOM     28  O   UNL     1       7.536   5.687  15.257  0.00  0.00    +0.000 OA
BRANCH  27  30
ATOM     29  C   UNL     1       7.663   5.875  18.743  0.00  0.00    +0.000 C 
ATOM     30  C   UNL     1       7.252   6.618  17.485  0.00  0.00    +0.000 C 
ENDBRANCH  27  30
ENDBRANCH  26  27
ENDBRANCH  25  26
ENDBRANCH   1  25
TORSDOF 7
ENDMDL
MODEL 3
REMARK VINA RESULT:      -7.9      1.177      1.845
REMARK  Name = 
REMARK  10 active torsions:
REMARK  status: ('A' for Active; 'I' for Inactive)
REMARK    1  A    between atoms: C_1  and  C_2
REMARK    2  A    between atoms: C_2  and  C_3
REMARK    3  A    between atoms: C_3  and  O_5
REMARK    4  A    between atoms: O_5  and  C_6
REMARK    5  A    between atoms: C_6  and  C_7
REMARK    6  A    between atoms: C_10  and  C_11
REMARK    7  A    between atoms: C_16  and  C_17
REMARK    8  A    between atoms: N_19  and  C_20
REMARK    9  A    between atoms: C_23  and  C_24
REMARK   10  A    between atoms: C_24  and  C_25
REMARK                            x       y       z     vdW  Elec       q    Type
REMARK                         _______ _______ _______ _____ _____    ______ ____
ROOT
ATOM      1  C   UNL     1       3.837   4.635  17.853  0.00  0.00    +0.000 A 
ATOM      2  C   UNL     1       4.047   3.328  18.287  0.00  0.00    +0.000 A 
ATOM      3  N   UNL     1       3.591   2.828  19.459  0.00  0.00    +0.000 NA
ATOM      4  C   UNL     1       2.871   3.652  20.257  0.00  0.00    +0.000 A 
ATOM      5  C   UNL     1       2.356   3.076  21.540  0.00  0.00    +0.000 C 
ATOM      6  C   UNL     1       2.613   4.970  19.903  0.00  0.00    +0.000 A 
ATOM      7  O   UNL     1       1.869   5.786  20.780  0.00  0.00    +0.000 OA
ATOM      8  C   UNL     1       1.596   7.123  20.500  0.00  0.00    +0.000 A 
ATOM      9  O   UNL     1       0.996   7.835  21.299  0.00  0.00    +0.000 OA
ATOM     10  C   UNL     1       2.068   7.637  19.206  0.00  0.00    +0.000 A 
ATOM     11  C   UNL     1       2.774   6.852  18.376  0.00  0.00    +0.000 A 
ATOM     12  C   UNL     1       3.093   5.471  18.698  0.00  0.00    +0.000 A 
ENDROOT
BRANCH  10  13
ATOM     13  C   UNL     1       1.810   9.017  18.700  0.00  0.00    +0.000 C 
ATOM     14  O   UNL     1       2.069   9.268  17.525  0.00  0.00    +0.000 OA
ATOM     15  N   UNL     1       1.331   9.939  19.605  0.00  0.00    +0.000 N 
ATOM     16  H   UNL     1       1.278   9.667  20.586  0.00  0.00    +0.000 HD
BRANCH  15  17
ATOM     17  C   UNL     1       0.970  11.270  19.285  0.00  0.00    +0.000 A 
ATOM     18  C   UNL     1       1.905  12.305  19.198  0.00  0.00    +0.000 A 
ATOM     19  C   UNL     1       1.517  13.607  18.891  0.00  0.00    +0.000 A 
ATOM     20  C   UNL     1       0.174  13.911  18.670  0.00  0.00    +0.000 A 
ATOM     21  C   UNL     1      -0.769  12.876  18.737  0.00  0.00    +0.000 A 
ATOM     22  C   UNL     1      -0.373  11.562  19.031  0.00  0.00    +0.000 A 
BRANCH  20  23
ATOM     23  C   UNL     1      -0.223  15.327  18.348  0.00  0.00    +0.000 C 
ATOM     24  C   UNL     1       0.849  16.330  18.746  0.00  0.00    +0.000 C 
ENDBRANCH  20  23
ENDBRANCH  15  17
ENDBRANCH  10  13
BRANCH   1  25
ATOM     25  C   UNL     1       4.406   5.069  16.527  0.00  0.00    +0.000 C 
BRANCH  25  26
ATOM     26  O   UNL     1       5.764   5.515  16.661  0.00  0.00    +0.000 OA
BRANCH  26  27
ATOM     27  C   UNL     1       6.601   5.107  15.670  0.00  0.00    +0.000 C 
ATOM     28  O   UNL     1       7.665   5.638  15.391  0.00  0.00    +0.000 OA
BRANCH  27  30
ATOM     29  C   UNL     1       6.313   3.926  13.487  0.00  0.00    +0.000 C 
ATOM     30  C   UNL     1       6.017   3.899  14.975  0.00  0.00    +0.000 C 
ENDBRANCH  27  30
ENDBRANCH  26  27
ENDBRANCH  25  26
ENDBRANCH   1  25
TORSDOF 7
ENDMDL
MODEL 4
REMARK VINA RESULT:      -7.9      2.436      4.634
REMARK  Name = 
REMARK  10 active torsions:
REMARK  status: ('A' for Active; 'I' for Inactive)
REMARK    1  A    between atoms: C_1  and  C_2
REMARK    2  A    between atoms: C_2  and  C_3
REMARK    3  A    between atoms: C_3  and  O_5
REMARK    4  A    between atoms: O_5  and  C_6
REMARK    5  A    between atoms: C_6  and  C_7
REMARK    6  A    between atoms: C_10  and  C_11
REMARK    7  A    between atoms: C_16  and  C_17
REMARK    8  A    between atoms: N_19  and  C_20
REMARK    9  A    between atoms: C_23  and  C_24
REMARK   10  A    between atoms: C_24  and  C_25
REMARK                            x       y       z     vdW  Elec       q    Type
REMARK                         _______ _______ _______ _____ _____    ______ ____
ROOT
ATOM      1  C   UNL     1       4.256   4.384  19.096  0.00  0.00    +0.000 A 
ATOM      2  C   UNL     1       5.098   3.762  18.176  0.00  0.00    +0.000 A 
ATOM      3  N   UNL     1       5.422   4.275  16.967  0.00  0.00    +0.000 NA
ATOM      4  C   UNL     1       4.902   5.480  16.634  0.00  0.00    +0.000 A 
ATOM      5  C   UNL     1       5.288   6.043  15.301  0.00  0.00    +0.000 C 
ATOM      6  C   UNL     1       4.054   6.171  17.490  0.00  0.00    +0.000 A 
ATOM      7  O   UNL     1       3.532   7.416  17.084  0.00  0.00    +0.000 OA
ATOM      8  C   UNL     1       2.656   8.150  17.881  0.00  0.00    +0.000 A 
ATOM      9  O   UNL     1       2.166   9.204  17.491  0.00  0.00    +0.000 OA
ATOM     10  C   UNL     1       2.345   7.595  19.207  0.00  0.00    +0.000 A 
ATOM     11  C   UNL     1       2.849   6.408  19.585  0.00  0.00    +0.000 A 
ATOM     12  C   UNL     1       3.726   5.629  18.728  0.00  0.00    +0.000 A 
ENDROOT
BRANCH  10  13
ATOM     13  C   UNL     1       1.487   8.268  20.226  0.00  0.00    +0.000 C 
ATOM     14  O   UNL     1       1.128   7.622  21.208  0.00  0.00    +0.000 OA
ATOM     15  N   UNL     1       1.118   9.571  19.974  0.00  0.00    +0.000 N 
ATOM     16  H   UNL     1       1.356   9.971  19.067  0.00  0.00    +0.000 HD
BRANCH  15  17
ATOM     17  C   UNL     1       0.366  10.381  20.859  0.00  0.00    +0.000 A 
ATOM     18  C   UNL     1      -0.276   9.868  21.991  0.00  0.00    +0.000 A 
ATOM     19  C   UNL     1      -1.018  10.690  22.836  0.00  0.00    +0.000 A 
ATOM     20  C   UNL     1      -1.145  12.051  22.567  0.00  0.00    +0.000 A 
ATOM     21  C   UNL     1      -0.491  12.578  21.444  0.00  0.00    +0.000 A 
ATOM     22  C   UNL     1       0.269  11.751  20.602  0.00  0.00    +0.000 A 
BRANCH  20  23
ATOM     23  C   UNL     1      -1.959  12.918  23.490  0.00  0.00    +0.000 C 
ATOM     24  C   UNL     1      -3.331  12.327  23.772  0.00  0.00    +0.000 C 
ENDBRANCH  20  23
ENDBRANCH  15  17
ENDBRANCH  10  13
BRANCH   1  25
ATOM     25  C   UNL     1       3.969   3.702  20.408  0.00  0.00    +0.000 C 
BRANCH  25  26
ATOM     26  O   UNL     1       2.977   2.675  20.259  0.00  0.00    +0.000 OA
BRANCH  26  27
ATOM     27  C   UNL     1       1.851   2.855  20.998  0.00  0.00    +0.000 C 
ATOM     28  O   UNL     1       1.800   2.807  22.217  0.00  0.00    +0.000 OA
BRANCH  27  30
ATOM     29  C   UNL     1       0.975   2.675  18.665  0.00  0.00    +0.000 C 
ATOM     30  C   UNL     1       0.679   3.127  20.083  0.00  0.00    +0.000 C 
ENDBRANCH  27  30
ENDBRANCH  26  27
ENDBRANCH  25  26
ENDBRANCH   1  25
TORSDOF 7
ENDMDL
MODEL 5
REMARK VINA RESULT:      -7.8      2.204      2.622
REMARK  Name = 
REMARK  10 active torsions:
REMARK  status: ('A' for Active; 'I' for Inactive)
REMARK    1  A    between atoms: C_1  and  C_2
REMARK    2  A    between atoms: C_2  and  C_3
REMARK    3  A    between atoms: C_3  and  O_5
REMARK    4  A    between atoms: O_5  and  C_6
REMARK    5  A    between atoms: C_6  and  C_7
REMARK    6  A    between atoms: C_10  and  C_11
REMARK    7  A    between atoms: C_16  and  C_17
REMARK    8  A    between atoms: N_19  and  C_20
REMARK    9  A    between atoms: C_23  and  C_24
REMARK   10  A    between atoms: C_24  and  C_25
REMARK                            x       y       z     vdW  Elec       q    Type
REMARK                         _______ _______ _______ _____ _____    ______ ____
ROOT
ATOM      1  C   UNL     1       4.556   5.402  16.743  0.00  0.00    +0.000 A 
ATOM      2  C   UNL     1       5.042   4.149  16.377  0.00  0.00    +0.000 A 
ATOM      3  N   UNL     1       4.724   2.993  17.002  0.00  0.00    +0.000 NA
ATOM      4  C   UNL     1       3.867   3.057  18.048  0.00  0.00    +0.000 A 
ATOM      5  C   UNL     1       3.510   1.765  18.716  0.00  0.00    +0.000 C 
ATOM      6  C   UNL     1       3.333   4.264  18.482  0.00  0.00    +0.000 A 
ATOM      7  O   UNL     1       2.455   4.273  19.585  0.00  0.00    +0.000 OA
ATOM      8  C   UNL     1       1.905   5.449  20.088  0.00  0.00    +0.000 A 
ATOM      9  O   UNL     1       1.188   5.447  21.083  0.00  0.00    +0.000 OA
ATOM     10  C   UNL     1       2.232   6.692  19.372  0.00  0.00    +0.000 A 
ATOM     11  C   UNL     1       3.068   6.673  18.320  0.00  0.00    +0.000 A 
ATOM     12  C   UNL     1       3.673   5.446  17.831  0.00  0.00    +0.000 A 
ENDROOT
BRANCH  10  13
ATOM     13  C   UNL     1       1.683   8.036  19.716  0.00  0.00    +0.000 C 
ATOM     14  O   UNL     1       1.711   8.917  18.860  0.00  0.00    +0.000 OA
ATOM     15  N   UNL     1       1.212   8.212  20.999  0.00  0.00    +0.000 N 
ATOM     16  H   UNL     1       1.358   7.460  21.672  0.00  0.00    +0.000 HD
BRANCH  15  17
ATOM     17  C   UNL     1       0.599   9.395  21.477  0.00  0.00    +0.000 A 
ATOM     18  C   UNL     1      -0.320   9.396  22.531  0.00  0.00    +0.000 A 
ATOM     19  C   UNL     1      -0.913  10.577  22.972  0.00  0.00    +0.000 A 
ATOM     20  C   UNL     1      -0.608  11.793  22.361  0.00  0.00    +0.000 A 
ATOM     21  C   UNL     1       0.325  11.804  21.315  0.00  0.00    +0.000 A 
ATOM     22  C   UNL     1       0.933  10.615  20.883  0.00  0.00    +0.000 A 
BRANCH  20  23
ATOM     23  C   UNL     1      -1.269  13.055  22.849  0.00  0.00    +0.000 C 
ATOM     24  C   UNL     1      -2.616  12.784  23.499  0.00  0.00    +0.000 C 
ENDBRANCH  20  23
ENDBRANCH  15  17
ENDBRANCH  10  13
BRANCH   1  25
ATOM     25  C   UNL     1       4.994   6.616  15.966  0.00  0.00    +0.000 C 
BRANCH  25  26
ATOM     26  O   UNL     1       5.982   7.370  16.685  0.00  0.00    +0.000 OA
BRANCH  26  27
ATOM     27  C   UNL     1       7.208   6.788  16.755  0.00  0.00    +0.000 C 
ATOM     28  O   UNL     1       7.763   6.213  15.831  0.00  0.00    +0.000 OA
BRANCH  27  30
ATOM     29  C   UNL     1       7.605   5.708  18.973  0.00  0.00    +0.000 C 
ATOM     30  C   UNL     1       7.778   6.968  18.142  0.00  0.00    +0.000 C 
ENDBRANCH  27  30
ENDBRANCH  26  27
ENDBRANCH  25  26
ENDBRANCH   1  25
TORSDOF 7
ENDMDL
MODEL 6
REMARK VINA RESULT:      -7.7      2.884      9.002
REMARK  Name = 
REMARK  10 active torsions:
REMARK  status: ('A' for Active; 'I' for Inactive)
REMARK    1  A    between atoms: C_1  and  C_2
REMARK    2  A    between atoms: C_2  and  C_3
REMARK    3  A    between atoms: C_3  and  O_5
REMARK    4  A    between atoms: O_5  and  C_6
REMARK    5  A    between atoms: C_6  and  C_7
REMARK    6  A    between atoms: C_10  and  C_11
REMARK    7  A    between atoms: C_16  and  C_17
REMARK    8  A    between atoms: N_19  and  C_20
REMARK    9  A    between atoms: C_23  and  C_24
REMARK   10  A    between atoms: C_24  and  C_25
REMARK                            x       y       z     vdW  Elec       q    Type
REMARK                         _______ _______ _______ _____ _____    ______ ____
ROOT
ATOM      1  C   UNL     1      -1.654  11.715  18.963  0.00  0.00    +0.000 A 
ATOM      2  C   UNL     1      -2.434  12.462  19.843  0.00  0.00    +0.000 A 
ATOM      3  N   UNL     1      -2.343  12.397  21.191  0.00  0.00    +0.000 NA
ATOM      4  C   UNL     1      -1.422  11.556  21.720  0.00  0.00    +0.000 A 
ATOM      5  C   UNL     1      -1.320  11.511  23.213  0.00  0.00    +0.000 C 
ATOM      6  C   UNL     1      -0.601  10.774  20.918  0.00  0.00    +0.000 A 
ATOM      7  O   UNL     1       0.330   9.906  21.523  0.00  0.00    +0.000 OA
ATOM      8  C   UNL     1       1.165   9.075  20.780  0.00  0.00    +0.000 A 
ATOM      9  O   UNL     1       1.931   8.285  21.322  0.00  0.00    +0.000 OA
ATOM     10  C   UNL     1       1.078   9.188  19.316  0.00  0.00    +0.000 A 
ATOM     11  C   UNL     1       0.188  10.019  18.748  0.00  0.00    +0.000 A 
ATOM     12  C   UNL     1      -0.710  10.848  19.533  0.00  0.00    +0.000 A 
ENDROOT
BRANCH  10  13
ATOM     13  C   UNL     1       1.938   8.435  18.357  0.00  0.00    +0.000 C 
ATOM     14  O   UNL     1       2.168   8.937  17.259  0.00  0.00    +0.000 OA
ATOM     15  N   UNL     1       2.389   7.196  18.757  0.00  0.00    +0.000 N 
ATOM     16  H   UNL     1       2.030   6.813  19.631  0.00  0.00    +0.000 HD
BRANCH  15  17
ATOM     17  C   UNL     1       3.264   6.376  18.005  0.00  0.00    +0.000 A 
ATOM     18  C   UNL     1       4.435   6.863  17.416  0.00  0.00    +0.000 A 
ATOM     19  C   UNL     1       5.271   6.032  16.673  0.00  0.00    +0.000 A 
ATOM     20  C   UNL     1       4.952   4.687  16.493  0.00  0.00    +0.000 A 
ATOM     21  C   UNL     1       3.790   4.185  17.094  0.00  0.00    +0.000 A 
ATOM     22  C   UNL     1       2.957   5.021  17.855  0.00  0.00    +0.000 A 
BRANCH  20  23
ATOM     23  C   UNL     1       5.867   3.810  15.679  0.00  0.00    +0.000 C 
ATOM     24  C   UNL     1       6.382   4.516  14.434  0.00  0.00    +0.000 C 
ENDBRANCH  20  23
ENDBRANCH  15  17
ENDBRANCH  10  13
BRANCH   1  25
ATOM     25  C   UNL     1      -1.860  11.877  17.479  0.00  0.00    +0.000 C 
BRANCH  25  26
ATOM     26  O   UNL     1      -2.649  10.806  16.940  0.00  0.00    +0.000 OA
BRANCH  26  27
ATOM     27  C   UNL     1      -3.583  11.184  16.028  0.00  0.00    +0.000 C 
ATOM     28  O   UNL     1      -3.458  11.087  14.817  0.00  0.00    +0.000 OA
BRANCH  27  30
ATOM     29  C   UNL     1      -5.193  10.851  17.910  0.00  0.00    +0.000 C 
ATOM     30  C   UNL     1      -4.797  11.735  16.741  0.00  0.00    +0.000 C 
ENDBRANCH  27  30
ENDBRANCH  26  27
ENDBRANCH  25  26
ENDBRANCH   1  25
TORSDOF 7
ENDMDL
MODEL 7
REMARK VINA RESULT:      -7.7      2.920      8.797
REMARK  Name = 
REMARK  10 active torsions:
REMARK  status: ('A' for Active; 'I' for Inactive)
REMARK    1  A    between atoms: C_1  and  C_2
REMARK    2  A    between atoms: C_2  and  C_3
REMARK    3  A    between atoms: C_3  and  O_5
REMARK    4  A    between atoms: O_5  and  C_6
REMARK    5  A    between atoms: C_6  and  C_7
REMARK    6  A    between atoms: C_10  and  C_11
REMARK    7  A    between atoms: C_16  and  C_17
REMARK    8  A    between atoms: N_19  and  C_20
REMARK    9  A    between atoms: C_23  and  C_24
REMARK   10  A    between atoms: C_24  and  C_25
REMARK                            x       y       z     vdW  Elec       q    Type
REMARK                         _______ _______ _______ _____ _____    ______ ____
ROOT
ATOM      1  C   UNL     1      -1.799  11.884  19.030  0.00  0.00    +0.000 A 
ATOM      2  C   UNL     1      -2.575  12.639  19.906  0.00  0.00    +0.000 A 
ATOM      3  N   UNL     1      -2.479  12.587  21.254  0.00  0.00    +0.000 NA
ATOM      4  C   UNL     1      -1.556  11.751  21.787  0.00  0.00    +0.000 A 
ATOM      5  C   UNL     1      -1.448  11.720  23.280  0.00  0.00    +0.000 C 
ATOM      6  C   UNL     1      -0.739  10.961  20.989  0.00  0.00    +0.000 A 
ATOM      7  O   UNL     1       0.196  10.099  21.599  0.00  0.00    +0.000 OA
ATOM      8  C   UNL     1       1.027   9.262  20.859  0.00  0.00    +0.000 A 
ATOM      9  O   UNL     1       1.795   8.477  21.406  0.00  0.00    +0.000 OA
ATOM     10  C   UNL     1       0.934   9.361  19.395  0.00  0.00    +0.000 A 
ATOM     11  C   UNL     1       0.042  10.186  18.823  0.00  0.00    +0.000 A 
ATOM     12  C   UNL     1      -0.853  11.023  19.604  0.00  0.00    +0.000 A 
ENDROOT
BRANCH  10  13
ATOM     13  C   UNL     1       1.791   8.599  18.439  0.00  0.00    +0.000 C 
ATOM     14  O   UNL     1       2.061   9.114  17.357  0.00  0.00    +0.000 OA
ATOM     15  N   UNL     1       2.193   7.339  18.824  0.00  0.00    +0.000 N 
ATOM     16  H   UNL     1       1.803   6.950  19.683  0.00  0.00    +0.000 HD
BRANCH  15  17
ATOM     17  C   UNL     1       3.058   6.505  18.075  0.00  0.00    +0.000 A 
ATOM     18  C   UNL     1       2.868   5.124  17.965  0.00  0.00    +0.000 A 
ATOM     19  C   UNL     1       3.743   4.330  17.228  0.00  0.00    +0.000 A 
ATOM     20  C   UNL     1       4.842   4.898  16.585  0.00  0.00    +0.000 A 
ATOM     21  C   UNL     1       5.032   6.284  16.674  0.00  0.00    +0.000 A 
ATOM     22  C   UNL     1       4.139   7.084  17.405  0.00  0.00    +0.000 A 
BRANCH  20  23
ATOM     23  C   UNL     1       5.780   4.018  15.801  0.00  0.00    +0.000 C 
ATOM     24  C   UNL     1       7.239   4.318  16.106  0.00  0.00    +0.000 C 
ENDBRANCH  20  23
ENDBRANCH  15  17
ENDBRANCH  10  13
BRANCH   1  25
ATOM     25  C   UNL     1      -2.011  12.033  17.545  0.00  0.00    +0.000 C 
BRANCH  25  26
ATOM     26  O   UNL     1      -3.273  11.483  17.139  0.00  0.00    +0.000 OA
BRANCH  26  27
ATOM     27  C   UNL     1      -3.271  10.140  16.925  0.00  0.00    +0.000 C 
ATOM     28  O   UNL     1      -3.686   9.306  17.714  0.00  0.00    +0.000 OA
BRANCH  27  30
ATOM     29  C   UNL     1      -3.653  10.217  14.457  0.00  0.00    +0.000 C 
ATOM     30  C   UNL     1      -2.685   9.843  15.564  0.00  0.00    +0.000 C 
ENDBRANCH  27  30
ENDBRANCH  26  27
ENDBRANCH  25  26
ENDBRANCH   1  25
TORSDOF 7
ENDMDL
MODEL 8
REMARK VINA RESULT:      -7.6      2.443      4.587
REMARK  Name = 
REMARK  10 active torsions:
REMARK  status: ('A' for Active; 'I' for Inactive)
REMARK    1  A    between atoms: C_1  and  C_2
REMARK    2  A    between atoms: C_2  and  C_3
REMARK    3  A    between atoms: C_3  and  O_5
REMARK    4  A    between atoms: O_5  and  C_6
REMARK    5  A    between atoms: C_6  and  C_7
REMARK    6  A    between atoms: C_10  and  C_11
REMARK    7  A    between atoms: C_16  and  C_17
REMARK    8  A    between atoms: N_19  and  C_20
REMARK    9  A    between atoms: C_23  and  C_24
REMARK   10  A    between atoms: C_24  and  C_25
REMARK                            x       y       z     vdW  Elec       q    Type
REMARK                         _______ _______ _______ _____ _____    ______ ____
ROOT
ATOM      1  C   UNL     1       4.129   4.507  18.846  0.00  0.00    +0.000 A 
ATOM      2  C   UNL     1       5.003   3.956  17.912  0.00  0.00    +0.000 A 
ATOM      3  N   UNL     1       5.386   4.568  16.768  0.00  0.00    +0.000 NA
ATOM      4  C   UNL     1       4.894   5.805  16.520  0.00  0.00    +0.000 A 
ATOM      5  C   UNL     1       5.344   6.477  15.259  0.00  0.00    +0.000 C 
ATOM      6  C   UNL     1       4.017   6.431  17.397  0.00  0.00    +0.000 A 
ATOM      7  O   UNL     1       3.527   7.715  17.082  0.00  0.00    +0.000 OA
ATOM      8  C   UNL     1       2.625   8.388  17.902  0.00  0.00    +0.000 A 
ATOM      9  O   UNL     1       2.164   9.480  17.587  0.00  0.00    +0.000 OA
ATOM     10  C   UNL     1       2.251   7.724  19.160  0.00  0.00    +0.000 A 
ATOM     11  C   UNL     1       2.725   6.501  19.452  0.00  0.00    +0.000 A 
ATOM     12  C   UNL     1       3.629   5.787  18.567  0.00  0.00    +0.000 A 
ENDROOT
BRANCH  10  13
ATOM     13  C   UNL     1       1.357   8.317  20.197  0.00  0.00    +0.000 C 
ATOM     14  O   UNL     1       1.165   7.687  21.234  0.00  0.00    +0.000 OA
ATOM     15  N   UNL     1       0.769   9.528  19.901  0.00  0.00    +0.000 N 
ATOM     16  H   UNL     1       0.885   9.902  18.959  0.00  0.00    +0.000 HD
BRANCH  15  17
ATOM     17  C   UNL     1      -0.051  10.264  20.790  0.00  0.00    +0.000 A 
ATOM     18  C   UNL     1      -0.123   9.984  22.158  0.00  0.00    +0.000 A 
ATOM     19  C   UNL     1      -0.947  10.721  23.005  0.00  0.00    +0.000 A 
ATOM     20  C   UNL     1      -1.732  11.758  22.502  0.00  0.00    +0.000 A 
ATOM     21  C   UNL     1      -1.654  12.058  21.134  0.00  0.00    +0.000 A 
ATOM     22  C   UNL     1      -0.810  11.323  20.286  0.00  0.00    +0.000 A 
BRANCH  20  23
ATOM     23  C   UNL     1      -2.623  12.534  23.435  0.00  0.00    +0.000 C 
ATOM     24  C   UNL     1      -2.067  13.916  23.743  0.00  0.00    +0.000 C 
ENDBRANCH  20  23
ENDBRANCH  15  17
ENDBRANCH  10  13
BRANCH   1  25
ATOM     25  C   UNL     1       3.778   3.717  20.080  0.00  0.00    +0.000 C 
BRANCH  25  26
ATOM     26  O   UNL     1       3.093   2.501  19.745  0.00  0.00    +0.000 OA
BRANCH  26  27
ATOM     27  C   UNL     1       1.777   2.650  19.439  0.00  0.00    +0.000 C 
ATOM     28  O   UNL     1       1.256   2.289  18.396  0.00  0.00    +0.000 OA
BRANCH  27  30
ATOM     29  C   UNL     1       1.305   2.584  21.892  0.00  0.00    +0.000 C 
ATOM     30  C   UNL     1       1.061   3.322  20.588  0.00  0.00    +0.000 C 
ENDBRANCH  27  30
ENDBRANCH  26  27
ENDBRANCH  25  26
ENDBRANCH   1  25
TORSDOF 7
ENDMDL
MODEL 9
REMARK VINA RESULT:      -7.5      1.340      1.528
REMARK  Name = 
REMARK  10 active torsions:
REMARK  status: ('A' for Active; 'I' for Inactive)
REMARK    1  A    between atoms: C_1  and  C_2
REMARK    2  A    between atoms: C_2  and  C_3
REMARK    3  A    between atoms: C_3  and  O_5
REMARK    4  A    between atoms: O_5  and  C_6
REMARK    5  A    between atoms: C_6  and  C_7
REMARK    6  A    between atoms: C_10  and  C_11
REMARK    7  A    between atoms: C_16  and  C_17
REMARK    8  A    between atoms: N_19  and  C_20
REMARK    9  A    between atoms: C_23  and  C_24
REMARK   10  A    between atoms: C_24  and  C_25
REMARK                            x       y       z     vdW  Elec       q    Type
REMARK                         _______ _______ _______ _____ _____    ______ ____
ROOT
ATOM      1  C   UNL     1       4.575   5.334  16.686  0.00  0.00    +0.000 A 
ATOM      2  C   UNL     1       5.011   4.052  16.359  0.00  0.00    +0.000 A 
ATOM      3  N   UNL     1       4.641   2.928  17.015  0.00  0.00    +0.000 NA
ATOM      4  C   UNL     1       3.780   3.057  18.052  0.00  0.00    +0.000 A 
ATOM      5  C   UNL     1       3.365   1.801  18.753  0.00  0.00    +0.000 C 
ATOM      6  C   UNL     1       3.294   4.298  18.447  0.00  0.00    +0.000 A 
ATOM      7  O   UNL     1       2.410   4.375  19.542  0.00  0.00    +0.000 OA
ATOM      8  C   UNL     1       1.906   5.587  20.007  0.00  0.00    +0.000 A 
ATOM      9  O   UNL     1       1.182   5.643  20.996  0.00  0.00    +0.000 OA
ATOM     10  C   UNL     1       2.289   6.794  19.258  0.00  0.00    +0.000 A 
ATOM     11  C   UNL     1       3.131   6.710  18.215  0.00  0.00    +0.000 A 
ATOM     12  C   UNL     1       3.687   5.445  17.766  0.00  0.00    +0.000 A 
ENDROOT
BRANCH  10  13
ATOM     13  C   UNL     1       1.794   8.169  19.560  0.00  0.00    +0.000 C 
ATOM     14  O   UNL     1       1.669   8.501  20.737  0.00  0.00    +0.000 OA
ATOM     15  N   UNL     1       1.470   8.969  18.487  0.00  0.00    +0.000 N 
ATOM     16  H   UNL     1       1.480   8.553  17.556  0.00  0.00    +0.000 HD
BRANCH  15  17
ATOM     17  C   UNL     1       1.050  10.318  18.585  0.00  0.00    +0.000 A 
ATOM     18  C   UNL     1      -0.290  10.680  18.755  0.00  0.00    +0.000 A 
ATOM     19  C   UNL     1      -0.672  12.017  18.838  0.00  0.00    +0.000 A 
ATOM     20  C   UNL     1       0.279  13.032  18.744  0.00  0.00    +0.000 A 
ATOM     21  C   UNL     1       1.627  12.678  18.591  0.00  0.00    +0.000 A 
ATOM     22  C   UNL     1       2.011  11.329  18.524  0.00  0.00    +0.000 A 
BRANCH  20  23
ATOM     23  C   UNL     1      -0.159  14.470  18.827  0.00  0.00    +0.000 C 
ATOM     24  C   UNL     1       1.019  15.431  18.829  0.00  0.00    +0.000 C 
ENDBRANCH  20  23
ENDBRANCH  15  17
ENDBRANCH  10  13
BRANCH   1  25
ATOM     25  C   UNL     1       5.068   6.506  15.878  0.00  0.00    +0.000 C 
BRANCH  25  26
ATOM     26  O   UNL     1       5.960   7.331  16.642  0.00  0.00    +0.000 OA
BRANCH  26  27
ATOM     27  C   UNL     1       7.219   6.837  16.783  0.00  0.00    +0.000 C 
ATOM     28  O   UNL     1       7.764   6.078  15.997  0.00  0.00    +0.000 OA
BRANCH  27  30
ATOM     29  C   UNL     1       8.143   8.858  17.927  0.00  0.00    +0.000 C 
ATOM     30  C   UNL     1       7.839   7.375  18.052  0.00  0.00    +0.000 C 
ENDBRANCH  27  30
ENDBRANCH  26  27
ENDBRANCH  25  26
ENDBRANCH   1  25
TORSDOF 7
ENDMDL
