MODEL 1
REMARK VINA RESULT:      -6.6      0.000      0.000
REMARK  Name = 
REMARK  2 active torsions:
REMARK  status: ('A' for Active; 'I' for Inactive)
REMARK    1  A    between atoms: C_1  and  O_2
REMARK    2  A    between atoms: O_2  and  C_3
REMARK                            x       y       z     vdW  Elec       q    Type
REMARK                         _______ _______ _______ _____ _____    ______ ____
ROOT
ATOM      1  C   UNL     1       6.942   4.843  17.676  0.00  0.00    +0.000 C 
ATOM      2  N   UNL     1       7.328   4.766  18.904  0.00  0.00    +0.000 NA
ATOM      3  O   UNL     1       6.178   5.073  19.676  0.00  0.00    +0.000 OA
ATOM      4  C   UNL     1       5.010   4.833  18.832  0.00  0.00    +0.000 C 
ATOM      5  C   UNL     1       5.538   5.260  17.464  0.00  0.00    +0.000 C 
ATOM      6  C   UNL     1       4.698   3.315  18.911  0.00  0.00    +0.000 C 
ATOM      7  C   UNL     1       3.210   2.966  18.924  0.00  0.00    +0.000 C 
ATOM      8  C   UNL     1       2.477   3.366  17.647  0.00  0.00    +0.000 C 
ATOM      9  C   UNL     1       1.979   4.781  17.920  0.00  0.00    +0.000 C 
ATOM     10  C   UNL     1       2.480   5.101  19.325  0.00  0.00    +0.000 C 
ATOM     11  C   UNL     1       3.874   5.738  19.355  0.00  0.00    +0.000 C 
ATOM     12  N   UNL     1       2.564   3.780  19.959  0.00  0.00    +0.000 NA
ATOM     13  H   UNL     1       1.621   3.425  20.121  0.00  0.00    +0.000 HD
ENDROOT
BRANCH   1  15
ATOM     14  C   UNL     1       6.996   4.653  15.320  0.00  0.00    +0.000 C 
ATOM     15  O   UNL     1       7.672   4.583  16.583  0.00  0.00    +0.000 OA
ENDBRANCH   1  15
TORSDOF 1
ENDMDL
MODEL 2
REMARK VINA RESULT:      -6.5      1.729      2.144
REMARK  Name = 
REMARK  2 active torsions:
REMARK  status: ('A' for Active; 'I' for Inactive)
REMARK    1  A    between atoms: C_1  and  O_2
REMARK    2  A    between atoms: O_2  and  C_3
REMARK                            x       y       z     vdW  Elec       q    Type
REMARK                         _______ _______ _______ _____ _____    ______ ____
ROOT
ATOM      1  C   UNL     1       5.552   5.410  18.566  0.00  0.00    +0.000 C 
ATOM      2  N   UNL     1       6.344   4.402  18.707  0.00  0.00    +0.000 NA
ATOM      3  O   UNL     1       5.579   3.419  19.386  0.00  0.00    +0.000 OA
ATOM      4  C   UNL     1       4.170   3.740  19.171  0.00  0.00    +0.000 C 
ATOM      5  C   UNL     1       4.208   5.266  19.168  0.00  0.00    +0.000 C 
ATOM      6  C   UNL     1       3.774   3.144  17.794  0.00  0.00    +0.000 C 
ATOM      7  C   UNL     1       2.365   2.555  17.730  0.00  0.00    +0.000 C 
ATOM      8  C   UNL     1       1.261   3.586  17.948  0.00  0.00    +0.000 C 
ATOM      9  C   UNL     1       1.020   3.574  19.453  0.00  0.00    +0.000 C 
ATOM     10  C   UNL     1       2.018   2.554  19.995  0.00  0.00    +0.000 C 
ATOM     11  C   UNL     1       3.380   3.154  20.360  0.00  0.00    +0.000 C 
ATOM     12  N   UNL     1       2.207   1.638  18.864  0.00  0.00    +0.000 NA
ATOM     13  H   UNL     1       1.357   1.089  18.731  0.00  0.00    +0.000 HD
ENDROOT
BRANCH   1  15
ATOM     14  C   UNL     1       7.172   6.775  17.516  0.00  0.00    +0.000 C 
ATOM     15  O   UNL     1       5.817   6.561  17.933  0.00  0.00    +0.000 OA
ENDBRANCH   1  15
TORSDOF 1
ENDMDL
MODEL 3
REMARK VINA RESULT:      -6.5      1.853      2.833
REMARK  Name = 
REMARK  2 active torsions:
REMARK  status: ('A' for Active; 'I' for Inactive)
REMARK    1  A    between atoms: C_1  and  O_2
REMARK    2  A    between atoms: O_2  and  C_3
REMARK                            x       y       z     vdW  Elec       q    Type
REMARK                         _______ _______ _______ _____ _____    ______ ____
ROOT
ATOM      1  C   UNL     1       5.889   4.577  18.827  0.00  0.00    +0.000 C 
ATOM      2  N   UNL     1       5.926   4.653  17.540  0.00  0.00    +0.000 NA
ATOM      3  O   UNL     1       4.879   3.812  17.086  0.00  0.00    +0.000 OA
ATOM      4  C   UNL     1       3.935   3.657  18.190  0.00  0.00    +0.000 C 
ATOM      5  C   UNL     1       4.879   3.654  19.390  0.00  0.00    +0.000 C 
ATOM      6  C   UNL     1       2.998   4.894  18.163  0.00  0.00    +0.000 C 
ATOM      7  C   UNL     1       1.540   4.602  18.515  0.00  0.00    +0.000 C 
ATOM      8  C   UNL     1       1.345   4.098  19.942  0.00  0.00    +0.000 C 
ATOM      9  C   UNL     1       1.449   2.581  19.829  0.00  0.00    +0.000 C 
ATOM     10  C   UNL     1       1.719   2.323  18.350  0.00  0.00    +0.000 C 
ATOM     11  C   UNL     1       3.208   2.311  17.985  0.00  0.00    +0.000 C 
ATOM     12  N   UNL     1       1.093   3.474  17.690  0.00  0.00    +0.000 NA
ATOM     13  H   UNL     1       0.078   3.391  17.762  0.00  0.00    +0.000 HD
ENDROOT
BRANCH   1  15
ATOM     14  C   UNL     1       7.853   5.844  19.179  0.00  0.00    +0.000 C 
ATOM     15  O   UNL     1       6.657   5.245  19.697  0.00  0.00    +0.000 OA
ENDBRANCH   1  15
TORSDOF 1
ENDMDL
MODEL 4
REMARK VINA RESULT:      -6.5      1.724      1.997
REMARK  Name = 
REMARK  2 active torsions:
REMARK  status: ('A' for Active; 'I' for Inactive)
REMARK    1  A    between atoms: C_1  and  O_2
REMARK    2  A    between atoms: O_2  and  C_3
REMARK                            x       y       z     vdW  Elec       q    Type
REMARK                         _______ _______ _______ _____ _____    ______ ____
ROOT
ATOM      1  C   UNL     1       6.766   5.636  15.842  0.00  0.00    +0.000 C 
ATOM      2  N   UNL     1       7.375   6.491  16.591  0.00  0.00    +0.000 NA
ATOM      3  O   UNL     1       6.356   7.096  17.370  0.00  0.00    +0.000 OA
ATOM      4  C   UNL     1       5.215   6.185  17.378  0.00  0.00    +0.000 C 
ATOM      5  C   UNL     1       5.293   5.596  15.971  0.00  0.00    +0.000 C 
ATOM      6  C   UNL     1       5.483   5.133  18.487  0.00  0.00    +0.000 C 
ATOM      7  C   UNL     1       4.246   4.702  19.275  0.00  0.00    +0.000 C 
ATOM      8  C   UNL     1       3.195   3.994  18.425  0.00  0.00    +0.000 C 
ATOM      9  C   UNL     1       2.287   5.113  17.930  0.00  0.00    +0.000 C 
ATOM     10  C   UNL     1       2.893   6.387  18.512  0.00  0.00    +0.000 C 
ATOM     11  C   UNL     1       3.950   7.037  17.611  0.00  0.00    +0.000 C 
ATOM     12  N   UNL     1       3.557   5.914  19.732  0.00  0.00    +0.000 NA
ATOM     13  H   UNL     1       2.849   5.654  20.420  0.00  0.00    +0.000 HD
ENDROOT
BRANCH   1  15
ATOM     14  C   UNL     1       6.433   3.971  14.197  0.00  0.00    +0.000 C 
ATOM     15  O   UNL     1       7.325   4.783  14.972  0.00  0.00    +0.000 OA
ENDBRANCH   1  15
TORSDOF 1
ENDMDL
MODEL 5
REMARK VINA RESULT:      -6.4      2.056      2.772
REMARK  Name = 
REMARK  2 active torsions:
REMARK  status: ('A' for Active; 'I' for Inactive)
REMARK    1  A    between atoms: C_1  and  O_2
REMARK    2  A    between atoms: O_2  and  C_3
REMARK                            x       y       z     vdW  Elec       q    Type
REMARK                         _______ _______ _______ _____ _____    ______ ____
ROOT
ATOM      1  C   UNL     1       6.696   4.715  14.512  0.00  0.00    +0.000 C 
ATOM      2  N   UNL     1       7.621   5.446  15.033  0.00  0.00    +0.000 NA
ATOM      3  O   UNL     1       6.974   6.203  16.043  0.00  0.00    +0.000 OA
ATOM      4  C   UNL     1       5.746   5.496  16.398  0.00  0.00    +0.000 C 
ATOM      5  C   UNL     1       5.331   4.921  15.045  0.00  0.00    +0.000 C 
ATOM      6  C   UNL     1       6.137   4.399  17.425  0.00  0.00    +0.000 C 
ATOM      7  C   UNL     1       5.115   4.171  18.539  0.00  0.00    +0.000 C 
ATOM      8  C   UNL     1       3.768   3.659  18.038  0.00  0.00    +0.000 C 
ATOM      9  C   UNL     1       2.954   4.921  17.776  0.00  0.00    +0.000 C 
ATOM     10  C   UNL     1       3.899   6.068  18.123  0.00  0.00    +0.000 C 
ATOM     11  C   UNL     1       4.755   6.544  16.943  0.00  0.00    +0.000 C 
ATOM     12  N   UNL     1       4.790   5.475  19.127  0.00  0.00    +0.000 NA
ATOM     13  H   UNL     1       4.270   5.328  19.993  0.00  0.00    +0.000 HD
ENDROOT
BRANCH   1  15
ATOM     14  C   UNL     1       5.702   3.536  12.720  0.00  0.00    +0.000 C 
ATOM     15  O   UNL     1       6.842   3.793  13.551  0.00  0.00    +0.000 OA
ENDBRANCH   1  15
TORSDOF 1
ENDMDL
MODEL 6
REMARK VINA RESULT:      -6.3      2.147      3.079
REMARK  Name = 
REMARK  2 active torsions:
REMARK  status: ('A' for Active; 'I' for Inactive)
REMARK    1  A    between atoms: C_1  and  O_2
REMARK    2  A    between atoms: O_2  and  C_3
REMARK                            x       y       z     vdW  Elec       q    Type
REMARK                         _______ _______ _______ _____ _____    ______ ____
ROOT
ATOM      1  C   UNL     1       5.056   4.153  17.795  0.00  0.00    +0.000 C 
ATOM      2  N   UNL     1       4.284   4.140  16.762  0.00  0.00    +0.000 NA
ATOM      3  O   UNL     1       3.147   3.389  17.155  0.00  0.00    +0.000 OA
ATOM      4  C   UNL     1       3.095   3.410  18.615  0.00  0.00    +0.000 C 
ATOM      5  C   UNL     1       4.581   3.385  18.967  0.00  0.00    +0.000 C 
ATOM      6  C   UNL     1       2.402   4.737  19.024  0.00  0.00    +0.000 C 
ATOM      7  C   UNL     1       1.472   4.629  20.233  0.00  0.00    +0.000 C 
ATOM      8  C   UNL     1       2.190   4.246  21.524  0.00  0.00    +0.000 C 
ATOM      9  C   UNL     1       2.135   2.722  21.553  0.00  0.00    +0.000 C 
ATOM     10  C   UNL     1       1.409   2.339  20.266  0.00  0.00    +0.000 C 
ATOM     11  C   UNL     1       2.341   2.142  19.065  0.00  0.00    +0.000 C 
ATOM     12  N   UNL     1       0.559   3.505  20.002  0.00  0.00    +0.000 NA
ATOM     13  H   UNL     1      -0.191   3.538  20.694  0.00  0.00    +0.000 HD
ENDROOT
BRANCH   1  15
ATOM     14  C   UNL     1       7.192   4.578  16.878  0.00  0.00    +0.000 C 
ATOM     15  O   UNL     1       6.228   4.790  17.918  0.00  0.00    +0.000 OA
ENDBRANCH   1  15
TORSDOF 1
ENDMDL
MODEL 7
REMARK VINA RESULT:      -6.3      2.341      3.375
REMARK  Name = 
REMARK  2 active torsions:
REMARK  status: ('A' for Active; 'I' for Inactive)
REMARK    1  A    between atoms: C_1  and  O_2
REMARK    2  A    between atoms: O_2  and  C_3
REMARK                            x       y       z     vdW  Elec       q    Type
REMARK                         _______ _______ _______ _____ _____    ______ ____
ROOT
ATOM      1  C   UNL     1       4.013   6.199  17.701  0.00  0.00    +0.000 C 
ATOM      2  N   UNL     1       4.464   5.426  16.773  0.00  0.00    +0.000 NA
ATOM      3  O   UNL     1       4.454   4.124  17.334  0.00  0.00    +0.000 OA
ATOM      4  C   UNL     1       3.505   4.136  18.444  0.00  0.00    +0.000 C 
ATOM      5  C   UNL     1       3.705   5.547  18.993  0.00  0.00    +0.000 C 
ATOM      6  C   UNL     1       2.093   3.921  17.836  0.00  0.00    +0.000 C 
ATOM      7  C   UNL     1       1.158   3.052  18.677  0.00  0.00    +0.000 C 
ATOM      8  C   UNL     1       0.819   3.656  20.036  0.00  0.00    +0.000 C 
ATOM      9  C   UNL     1       1.894   3.116  20.972  0.00  0.00    +0.000 C 
ATOM     10  C   UNL     1       2.786   2.259  20.080  0.00  0.00    +0.000 C 
ATOM     11  C   UNL     1       3.940   3.032  19.431  0.00  0.00    +0.000 C 
ATOM     12  N   UNL     1       1.874   1.818  19.019  0.00  0.00    +0.000 NA
ATOM     13  H   UNL     1       1.211   1.145  19.405  0.00  0.00    +0.000 HD
ENDROOT
BRANCH   1  15
ATOM     14  C   UNL     1       2.487   7.981  17.995  0.00  0.00    +0.000 C 
ATOM     15  O   UNL     1       3.790   7.518  17.616  0.00  0.00    +0.000 OA
ENDBRANCH   1  15
TORSDOF 1
ENDMDL
MODEL 8
REMARK VINA RESULT:      -6.3      1.952      2.900
REMARK  Name = 
REMARK  2 active torsions:
REMARK  status: ('A' for Active; 'I' for Inactive)
REMARK    1  A    between atoms: C_1  and  O_2
REMARK    2  A    between atoms: O_2  and  C_3
REMARK                            x       y       z     vdW  Elec       q    Type
REMARK                         _______ _______ _______ _____ _____    ______ ____
ROOT
ATOM      1  C   UNL     1       5.402   4.599  18.473  0.00  0.00    +0.000 C 
ATOM      2  N   UNL     1       4.841   5.531  17.780  0.00  0.00    +0.000 NA
ATOM      3  O   UNL     1       3.469   5.175  17.721  0.00  0.00    +0.000 OA
ATOM      4  C   UNL     1       3.205   4.268  18.835  0.00  0.00    +0.000 C 
ATOM      5  C   UNL     1       4.520   3.494  18.907  0.00  0.00    +0.000 C 
ATOM      6  C   UNL     1       2.956   5.151  20.087  0.00  0.00    +0.000 C 
ATOM      7  C   UNL     1       1.873   4.631  21.033  0.00  0.00    +0.000 C 
ATOM      8  C   UNL     1       2.210   3.284  21.667  0.00  0.00    +0.000 C 
ATOM      9  C   UNL     1       1.631   2.254  20.703  0.00  0.00    +0.000 C 
ATOM     10  C   UNL     1       1.023   3.082  19.574  0.00  0.00    +0.000 C 
ATOM     11  C   UNL     1       2.002   3.389  18.435  0.00  0.00    +0.000 C 
ATOM     12  N   UNL     1       0.676   4.345  20.235  0.00  0.00    +0.000 NA
ATOM     13  H   UNL     1      -0.113   4.189  20.864  0.00  0.00    +0.000 HD
ENDROOT
BRANCH   1  15
ATOM     14  C   UNL     1       7.488   5.702  18.619  0.00  0.00    +0.000 C 
ATOM     15  O   UNL     1       6.689   4.533  18.842  0.00  0.00    +0.000 OA
ENDBRANCH   1  15
TORSDOF 1
ENDMDL
MODEL 9
REMARK VINA RESULT:      -6.2      2.051      4.614
REMARK  Name = 
REMARK  2 active torsions:
REMARK  status: ('A' for Active; 'I' for Inactive)
REMARK    1  A    between atoms: C_1  and  O_2
REMARK    2  A    between atoms: O_2  and  C_3
REMARK                            x       y       z     vdW  Elec       q    Type
REMARK                         _______ _______ _______ _____ _____    ______ ____
ROOT
ATOM      1  C   UNL     1       3.008   6.013  19.137  0.00  0.00    +0.000 C 
ATOM      2  N   UNL     1       2.994   4.863  19.721  0.00  0.00    +0.000 NA
ATOM      3  O   UNL     1       3.909   4.063  18.990  0.00  0.00    +0.000 OA
ATOM      4  C   UNL     1       4.809   4.968  18.280  0.00  0.00    +0.000 C 
ATOM      5  C   UNL     1       3.864   6.118  17.935  0.00  0.00    +0.000 C 
ATOM      6  C   UNL     1       5.919   5.382  19.283  0.00  0.00    +0.000 C 
ATOM      7  C   UNL     1       7.315   5.518  18.674  0.00  0.00    +0.000 C 
ATOM      8  C   UNL     1       7.420   6.621  17.625  0.00  0.00    +0.000 C 
ATOM      9  C   UNL     1       7.093   5.927  16.308  0.00  0.00    +0.000 C 
ATOM     10  C   UNL     1       6.801   4.481  16.696  0.00  0.00    +0.000 C 
ATOM     11  C   UNL     1       5.330   4.216  17.039  0.00  0.00    +0.000 C 
ATOM     12  N   UNL     1       7.597   4.295  17.915  0.00  0.00    +0.000 NA
ATOM     13  H   UNL     1       8.588   4.278  17.669  0.00  0.00    +0.000 HD
ENDROOT
BRANCH   1  15
ATOM     14  C   UNL     1       2.202   8.149  18.524  0.00  0.00    +0.000 C 
ATOM     15  O   UNL     1       2.338   7.113  19.506  0.00  0.00    +0.000 OA
ENDBRANCH   1  15
TORSDOF 1
ENDMDL
