MODEL 1
REMARK VINA RESULT:      -7.0      0.000      0.000
REMARK  Name = 
REMARK  15 active torsions:
REMARK  status: ('A' for Active; 'I' for Inactive)
REMARK    1  A    between atoms: C_1  and  C_2
REMARK    2  A    between atoms: C_2  and  C_3
REMARK    3  A    between atoms: C_3  and  C_4
REMARK    4  A    between atoms: C_4  and  C_5
REMARK    5  A    between atoms: C_5  and  C_6
REMARK    6  A    between atoms: N_8  and  C_9
REMARK    7  A    between atoms: C_9  and  C_10
REMARK    8  A    between atoms: C_13  and  C_14
REMARK    9  A    between atoms: N_16  and  CA_17
REMARK   10  A    between atoms: CA_17  and  C_18
REMARK   11  A    between atoms: CA_17  and  CB_21
REMARK   12  A    between atoms: C_18  and  OXT_20
REMARK   13  A    between atoms: CB_21  and  CG2_22
REMARK   14  A    between atoms: CB_21  and  CG1_23
REMARK   15  A    between atoms: CG1_23  and  CD1_24
REMARK                            x       y       z     vdW  Elec       q    Type
REMARK                         _______ _______ _______ _____ _____    ______ ____
ROOT
ATOM      1  C   UNK A   0       3.855   6.205  18.581  0.00  0.00    +0.000 A 
ATOM      2  C   UNK A   0       4.935   5.397  18.962  0.00  0.00    +0.000 A 
ATOM      3  C   UNK A   0       5.889   4.993  18.019  0.00  0.00    +0.000 A 
ATOM      4  C   UNK A   0       5.789   5.410  16.686  0.00  0.00    +0.000 A 
ATOM      5  C   UNK A   0       4.732   6.247  16.307  0.00  0.00    +0.000 A 
ATOM      6  C   UNK A   0       3.778   6.646  17.251  0.00  0.00    +0.000 A 
ENDROOT
BRANCH   4   7
ATOM      7  C   UNK A   0       6.790   4.910  15.700  0.00  0.00    +0.000 C 
ATOM      8  O   UNK A   0       7.890   4.493  16.053  0.00  0.00    +0.000 OA
ATOM      9  N   ILE A   1       6.476   5.031  14.365  0.00  0.00    +0.000 N 
ATOM     10  H   ILE A   1       5.746   5.686  14.119  0.00  0.00    +0.000 HD
BRANCH   9  11
ATOM     11  CA  ILE A   1       7.370   4.572  13.279  0.00  0.00    +0.000 C 
BRANCH  11  12
ATOM     12  C   ILE A   1       8.283   5.723  12.790  0.00  0.00    +0.000 C 
ATOM     13  O   ILE A   1       9.288   6.120  13.364  0.00  0.00    +0.000 OA
BRANCH  12  14
ATOM     14  OXT ILE A   1       7.823   6.343  11.675  0.00  0.00    +0.000 OA
ATOM     15  HXT ILE A   1       6.872   6.143  11.490  0.00  0.00    +0.000 HD
ENDBRANCH  12  14
ENDBRANCH  11  12
BRANCH  11  16
ATOM     16  CB  ILE A   1       6.544   3.865  12.163  0.00  0.00    +0.000 C 
ATOM     17  CG2 ILE A   1       7.257   2.646  11.559  0.00  0.00    +0.000 C 
BRANCH  16  18
ATOM     18  CG1 ILE A   1       5.107   3.525  12.629  0.00  0.00    +0.000 C 
ATOM     19  CD1 ILE A   1       4.125   3.296  11.482  0.00  0.00    +0.000 C 
ENDBRANCH  16  18
ENDBRANCH  11  16
ENDBRANCH   9  11
ENDBRANCH   4   7
BRANCH   1  20
ATOM     20  C   UNK A   0       2.787   6.586  19.575  0.00  0.00    +0.000 C 
BRANCH  20  23
ATOM     21  C   UNK A   0       1.702   4.486  20.219  0.00  0.00    +0.000 C 
ATOM     22  O   UNK A   0       1.128   4.377  19.140  0.00  0.00    +0.000 OA
ATOM     23  N   UNK A   0       2.543   5.531  20.527  0.00  0.00    +0.000 N 
ATOM     24  H   UNK A   0       3.089   5.504  21.377  0.00  0.00    +0.000 HD
BRANCH  21  25
ATOM     25  C   UNK A   0       1.535   3.471  21.333  0.00  0.00    +0.000 C 
BRANCH  25  26
ATOM     26  C   UNK A   0       2.629   2.408  21.268  0.00  0.00    +0.000 C 
BRANCH  26  27
ATOM     27  C   UNK A   0       3.629   2.664  20.142  0.00  0.00    +0.000 C 
BRANCH  27  29
ATOM     28  C   UNK A   0       3.337   2.261  17.663  0.00  0.00    +0.000 C 
ATOM     29  C   UNK A   0       3.454   1.623  19.035  0.00  0.00    +0.000 C 
ENDBRANCH  27  29
ENDBRANCH  26  27
ENDBRANCH  25  26
ENDBRANCH  21  25
ENDBRANCH  20  23
ENDBRANCH   1  20
TORSDOF 12
ENDMDL
MODEL 2
REMARK VINA RESULT:      -6.9      4.831      8.524
REMARK  Name = 
REMARK  15 active torsions:
REMARK  status: ('A' for Active; 'I' for Inactive)
REMARK    1  A    between atoms: C_1  and  C_2
REMARK    2  A    between atoms: C_2  and  C_3
REMARK    3  A    between atoms: C_3  and  C_4
REMARK    4  A    between atoms: C_4  and  C_5
REMARK    5  A    between atoms: C_5  and  C_6
REMARK    6  A    between atoms: N_8  and  C_9
REMARK    7  A    between atoms: C_9  and  C_10
REMARK    8  A    between atoms: C_13  and  C_14
REMARK    9  A    between atoms: N_16  and  CA_17
REMARK   10  A    between atoms: CA_17  and  C_18
REMARK   11  A    between atoms: CA_17  and  CB_21
REMARK   12  A    between atoms: C_18  and  OXT_20
REMARK   13  A    between atoms: CB_21  and  CG2_22
REMARK   14  A    between atoms: CB_21  and  CG1_23
REMARK   15  A    between atoms: CG1_23  and  CD1_24
REMARK                            x       y       z     vdW  Elec       q    Type
REMARK                         _______ _______ _______ _____ _____    ______ ____
ROOT
ATOM      1  C   UNK A   0       3.338   6.809  18.415  0.00  0.00    +0.000 A 
ATOM      2  C   UNK A   0       2.623   6.791  19.620  0.00  0.00    +0.000 A 
ATOM      3  C   UNK A   0       1.716   7.814  19.925  0.00  0.00    +0.000 A 
ATOM      4  C   UNK A   0       1.495   8.859  19.019  0.00  0.00    +0.000 A 
ATOM      5  C   UNK A   0       2.180   8.863  17.798  0.00  0.00    +0.000 A 
ATOM      6  C   UNK A   0       3.088   7.841  17.498  0.00  0.00    +0.000 A 
ENDROOT
BRANCH   4   7
ATOM      7  C   UNK A   0       0.567   9.961  19.406  0.00  0.00    +0.000 C 
ATOM      8  O   UNK A   0       0.083  10.030  20.532  0.00  0.00    +0.000 OA
ATOM      9  N   ILE A   1       0.190  10.844  18.419  0.00  0.00    +0.000 N 
ATOM     10  H   ILE A   1       0.320  10.549  17.460  0.00  0.00    +0.000 HD
BRANCH   9  11
ATOM     11  CA  ILE A   1      -0.718  11.986  18.661  0.00  0.00    +0.000 C 
BRANCH  11  12
ATOM     12  C   ILE A   1      -2.042  11.816  17.877  0.00  0.00    +0.000 C 
ATOM     13  O   ILE A   1      -3.137  11.598  18.378  0.00  0.00    +0.000 OA
BRANCH  12  14
ATOM     14  OXT ILE A   1      -1.883  11.845  16.531  0.00  0.00    +0.000 OA
ATOM     15  HXT ILE A   1      -2.743  11.912  16.045  0.00  0.00    +0.000 HD
ENDBRANCH  12  14
ENDBRANCH  11  12
BRANCH  11  16
ATOM     16  CB  ILE A   1       0.029  13.331  18.412  0.00  0.00    +0.000 C 
ATOM     17  CG2 ILE A   1      -0.400  14.452  19.369  0.00  0.00    +0.000 C 
BRANCH  16  18
ATOM     18  CG1 ILE A   1       1.566  13.147  18.386  0.00  0.00    +0.000 C 
ATOM     19  CD1 ILE A   1       2.251  13.495  19.706  0.00  0.00    +0.000 C 
ENDBRANCH  16  18
ENDBRANCH  11  16
ENDBRANCH   9  11
ENDBRANCH   4   7
BRANCH   1  20
ATOM     20  C   UNK A   0       4.366   5.749  18.111  0.00  0.00    +0.000 C 
BRANCH  20  23
ATOM     21  C   UNK A   0       4.176   3.350  18.574  0.00  0.00    +0.000 C 
ATOM     22  O   UNK A   0       5.066   3.378  19.418  0.00  0.00    +0.000 OA
ATOM     23  N   UNK A   0       3.756   4.463  17.882  0.00  0.00    +0.000 N 
ATOM     24  H   UNK A   0       2.935   4.410  17.295  0.00  0.00    +0.000 HD
BRANCH  21  25
ATOM     25  C   UNK A   0       3.449   2.073  18.204  0.00  0.00    +0.000 C 
BRANCH  25  26
ATOM     26  C   UNK A   0       2.258   1.839  19.130  0.00  0.00    +0.000 C 
BRANCH  26  27
ATOM     27  C   UNK A   0       1.142   2.861  18.922  0.00  0.00    +0.000 C 
BRANCH  27  29
ATOM     28  C   UNK A   0       1.828   3.279  21.319  0.00  0.00    +0.000 C 
ATOM     29  C   UNK A   0       0.774   3.518  20.253  0.00  0.00    +0.000 C 
ENDBRANCH  27  29
ENDBRANCH  26  27
ENDBRANCH  25  26
ENDBRANCH  21  25
ENDBRANCH  20  23
ENDBRANCH   1  20
TORSDOF 12
ENDMDL
MODEL 3
REMARK VINA RESULT:      -6.9      4.704      8.599
REMARK  Name = 
REMARK  15 active torsions:
REMARK  status: ('A' for Active; 'I' for Inactive)
REMARK    1  A    between atoms: C_1  and  C_2
REMARK    2  A    between atoms: C_2  and  C_3
REMARK    3  A    between atoms: C_3  and  C_4
REMARK    4  A    between atoms: C_4  and  C_5
REMARK    5  A    between atoms: C_5  and  C_6
REMARK    6  A    between atoms: N_8  and  C_9
REMARK    7  A    between atoms: C_9  and  C_10
REMARK    8  A    between atoms: C_13  and  C_14
REMARK    9  A    between atoms: N_16  and  CA_17
REMARK   10  A    between atoms: CA_17  and  C_18
REMARK   11  A    between atoms: CA_17  and  CB_21
REMARK   12  A    between atoms: C_18  and  OXT_20
REMARK   13  A    between atoms: CB_21  and  CG2_22
REMARK   14  A    between atoms: CB_21  and  CG1_23
REMARK   15  A    between atoms: CG1_23  and  CD1_24
REMARK                            x       y       z     vdW  Elec       q    Type
REMARK                         _______ _______ _______ _____ _____    ______ ____
ROOT
ATOM      1  C   UNK A   0       3.443   6.708  18.261  0.00  0.00    +0.000 A 
ATOM      2  C   UNK A   0       3.137   7.879  17.555  0.00  0.00    +0.000 A 
ATOM      3  C   UNK A   0       2.232   8.809  18.080  0.00  0.00    +0.000 A 
ATOM      4  C   UNK A   0       1.636   8.594  19.329  0.00  0.00    +0.000 A 
ATOM      5  C   UNK A   0       1.966   7.443  20.055  0.00  0.00    +0.000 A 
ATOM      6  C   UNK A   0       2.869   6.513  19.526  0.00  0.00    +0.000 A 
ENDROOT
BRANCH   4   7
ATOM      7  C   UNK A   0       0.632   9.578  19.827  0.00  0.00    +0.000 C 
ATOM      8  O   UNK A   0      -0.040   9.360  20.831  0.00  0.00    +0.000 OA
ATOM      9  N   ILE A   1       0.411  10.698  19.058  0.00  0.00    +0.000 N 
ATOM     10  H   ILE A   1       0.711  10.664  18.093  0.00  0.00    +0.000 HD
BRANCH   9  11
ATOM     11  CA  ILE A   1      -0.548  11.759  19.433  0.00  0.00    +0.000 C 
BRANCH  11  12
ATOM     12  C   ILE A   1      -1.549  12.032  18.283  0.00  0.00    +0.000 C 
ATOM     13  O   ILE A   1      -2.651  11.515  18.168  0.00  0.00    +0.000 OA
BRANCH  12  14
ATOM     14  OXT ILE A   1      -1.061  12.859  17.325  0.00  0.00    +0.000 OA
ATOM     15  HXT ILE A   1      -0.164  13.214  17.546  0.00  0.00    +0.000 HD
ENDBRANCH  12  14
ENDBRANCH  11  12
BRANCH  11  16
ATOM     16  CB  ILE A   1       0.211  13.014  19.959  0.00  0.00    +0.000 C 
ATOM     17  CG2 ILE A   1       0.107  13.195  21.480  0.00  0.00    +0.000 C 
BRANCH  16  18
ATOM     18  CG1 ILE A   1       1.680  13.053  19.469  0.00  0.00    +0.000 C 
ATOM     19  CD1 ILE A   1       1.981  14.206  18.515  0.00  0.00    +0.000 C 
ENDBRANCH  16  18
ENDBRANCH  11  16
ENDBRANCH   9  11
ENDBRANCH   4   7
BRANCH   1  20
ATOM     20  C   UNK A   0       4.363   5.669  17.671  0.00  0.00    +0.000 C 
BRANCH  20  23
ATOM     21  C   UNK A   0       4.263   3.349  18.451  0.00  0.00    +0.000 C 
ATOM     22  O   UNK A   0       5.226   3.491  19.198  0.00  0.00    +0.000 OA
ATOM     23  N   UNK A   0       3.759   4.360  17.666  0.00  0.00    +0.000 N 
ATOM     24  H   UNK A   0       2.888   4.227  17.170  0.00  0.00    +0.000 HD
BRANCH  21  25
ATOM     25  C   UNK A   0       3.528   2.030  18.317  0.00  0.00    +0.000 C 
BRANCH  25  26
ATOM     26  C   UNK A   0       2.051   2.260  18.003  0.00  0.00    +0.000 C 
BRANCH  26  27
ATOM     27  C   UNK A   0       1.152   2.052  19.220  0.00  0.00    +0.000 C 
BRANCH  27  29
ATOM     28  C   UNK A   0       1.721   3.433  21.260  0.00  0.00    +0.000 C 
ATOM     29  C   UNK A   0       0.947   3.377  19.956  0.00  0.00    +0.000 C 
ENDBRANCH  27  29
ENDBRANCH  26  27
ENDBRANCH  25  26
ENDBRANCH  21  25
ENDBRANCH  20  23
ENDBRANCH   1  20
TORSDOF 12
ENDMDL
MODEL 4
REMARK VINA RESULT:      -6.8      4.901      7.051
REMARK  Name = 
REMARK  15 active torsions:
REMARK  status: ('A' for Active; 'I' for Inactive)
REMARK    1  A    between atoms: C_1  and  C_2
REMARK    2  A    between atoms: C_2  and  C_3
REMARK    3  A    between atoms: C_3  and  C_4
REMARK    4  A    between atoms: C_4  and  C_5
REMARK    5  A    between atoms: C_5  and  C_6
REMARK    6  A    between atoms: N_8  and  C_9
REMARK    7  A    between atoms: C_9  and  C_10
REMARK    8  A    between atoms: C_13  and  C_14
REMARK    9  A    between atoms: N_16  and  CA_17
REMARK   10  A    between atoms: CA_17  and  C_18
REMARK   11  A    between atoms: CA_17  and  CB_21
REMARK   12  A    between atoms: C_18  and  OXT_20
REMARK   13  A    between atoms: CB_21  and  CG2_22
REMARK   14  A    between atoms: CB_21  and  CG1_23
REMARK   15  A    between atoms: CG1_23  and  CD1_24
REMARK                            x       y       z     vdW  Elec       q    Type
REMARK                         _______ _______ _______ _____ _____    ______ ____
ROOT
ATOM      1  C   UNK A   0       0.976   9.886  19.518  0.00  0.00    +0.000 A 
ATOM      2  C   UNK A   0       1.229   8.874  20.454  0.00  0.00    +0.000 A 
ATOM      3  C   UNK A   0       1.858   7.686  20.064  0.00  0.00    +0.000 A 
ATOM      4  C   UNK A   0       2.265   7.501  18.737  0.00  0.00    +0.000 A 
ATOM      5  C   UNK A   0       2.048   8.523  17.805  0.00  0.00    +0.000 A 
ATOM      6  C   UNK A   0       1.415   9.709  18.198  0.00  0.00    +0.000 A 
ENDROOT
BRANCH   4   7
ATOM      7  C   UNK A   0       2.878   6.198  18.347  0.00  0.00    +0.000 C 
ATOM      8  O   UNK A   0       2.205   5.177  18.236  0.00  0.00    +0.000 OA
ATOM      9  N   ILE A   1       4.248   6.158  18.217  0.00  0.00    +0.000 N 
ATOM     10  H   ILE A   1       4.776   6.902  18.654  0.00  0.00    +0.000 HD
BRANCH   9  11
ATOM     11  CA  ILE A   1       4.988   4.938  17.829  0.00  0.00    +0.000 C 
BRANCH  11  12
ATOM     12  C   ILE A   1       5.740   4.339  19.043  0.00  0.00    +0.000 C 
ATOM     13  O   ILE A   1       6.519   4.948  19.763  0.00  0.00    +0.000 OA
BRANCH  12  14
ATOM     14  OXT ILE A   1       5.529   3.009  19.209  0.00  0.00    +0.000 OA
ATOM     15  HXT ILE A   1       4.876   2.812  19.926  0.00  0.00    +0.000 HD
ENDBRANCH  12  14
ENDBRANCH  11  12
BRANCH  11  16
ATOM     16  CB  ILE A   1       5.872   5.217  16.577  0.00  0.00    +0.000 C 
ATOM     17  CG2 ILE A   1       7.309   4.696  16.718  0.00  0.00    +0.000 C 
BRANCH  16  18
ATOM     18  CG1 ILE A   1       5.201   4.725  15.271  0.00  0.00    +0.000 C 
ATOM     19  CD1 ILE A   1       6.190   4.217  14.224  0.00  0.00    +0.000 C 
ENDBRANCH  16  18
ENDBRANCH  11  16
ENDBRANCH   9  11
ENDBRANCH   4   7
BRANCH   1  20
ATOM     20  C   UNK A   0       0.237  11.139  19.917  0.00  0.00    +0.000 C 
BRANCH  20  23
ATOM     21  C   UNK A   0      -1.773  12.072  18.872  0.00  0.00    +0.000 C 
ATOM     22  O   UNK A   0      -1.181  13.072  18.477  0.00  0.00    +0.000 OA
ATOM     23  N   UNK A   0      -1.163  11.063  19.581  0.00  0.00    +0.000 N 
ATOM     24  H   UNK A   0      -1.664  10.205  19.768  0.00  0.00    +0.000 HD
BRANCH  21  25
ATOM     25  C   UNK A   0      -3.251  11.851  18.618  0.00  0.00    +0.000 C 
BRANCH  25  26
ATOM     26  C   UNK A   0      -3.466  10.734  17.599  0.00  0.00    +0.000 C 
BRANCH  26  27
ATOM     27  C   UNK A   0      -2.678  10.957  16.309  0.00  0.00    +0.000 C 
BRANCH  27  29
ATOM     28  C   UNK A   0      -3.572  10.088  14.109  0.00  0.00    +0.000 C 
ATOM     29  C   UNK A   0      -2.825   9.746  15.386  0.00  0.00    +0.000 C 
ENDBRANCH  27  29
ENDBRANCH  26  27
ENDBRANCH  25  26
ENDBRANCH  21  25
ENDBRANCH  20  23
ENDBRANCH   1  20
TORSDOF 12
ENDMDL
MODEL 5
REMARK VINA RESULT:      -6.7      5.037      8.873
REMARK  Name = 
REMARK  15 active torsions:
REMARK  status: ('A' for Active; 'I' for Inactive)
REMARK    1  A    between atoms: C_1  and  C_2
REMARK    2  A    between atoms: C_2  and  C_3
REMARK    3  A    between atoms: C_3  and  C_4
REMARK    4  A    between atoms: C_4  and  C_5
REMARK    5  A    between atoms: C_5  and  C_6
REMARK    6  A    between atoms: N_8  and  C_9
REMARK    7  A    between atoms: C_9  and  C_10
REMARK    8  A    between atoms: C_13  and  C_14
REMARK    9  A    between atoms: N_16  and  CA_17
REMARK   10  A    between atoms: CA_17  and  C_18
REMARK   11  A    between atoms: CA_17  and  CB_21
REMARK   12  A    between atoms: C_18  and  OXT_20
REMARK   13  A    between atoms: CB_21  and  CG2_22
REMARK   14  A    between atoms: CB_21  and  CG1_23
REMARK   15  A    between atoms: CG1_23  and  CD1_24
REMARK                            x       y       z     vdW  Elec       q    Type
REMARK                         _______ _______ _______ _____ _____    ______ ____
ROOT
ATOM      1  C   UNK A   0       3.292   6.886  18.211  0.00  0.00    +0.000 A 
ATOM      2  C   UNK A   0       2.990   8.048  17.488  0.00  0.00    +0.000 A 
ATOM      3  C   UNK A   0       2.103   8.999  18.009  0.00  0.00    +0.000 A 
ATOM      4  C   UNK A   0       1.523   8.812  19.270  0.00  0.00    +0.000 A 
ATOM      5  C   UNK A   0       1.849   7.670  20.012  0.00  0.00    +0.000 A 
ATOM      6  C   UNK A   0       2.733   6.720  19.486  0.00  0.00    +0.000 A 
ENDROOT
BRANCH   4   7
ATOM      7  C   UNK A   0       0.537   9.817  19.764  0.00  0.00    +0.000 C 
ATOM      8  O   UNK A   0      -0.207   9.577  20.711  0.00  0.00    +0.000 OA
ATOM      9  N   ILE A   1       0.420  10.989  19.053  0.00  0.00    +0.000 N 
ATOM     10  H   ILE A   1       0.778  10.994  18.107  0.00  0.00    +0.000 HD
BRANCH   9  11
ATOM     11  CA  ILE A   1      -0.510  12.075  19.432  0.00  0.00    +0.000 C 
BRANCH  11  12
ATOM     12  C   ILE A   1      -1.733  12.113  18.482  0.00  0.00    +0.000 C 
ATOM     13  O   ILE A   1      -2.889  11.889  18.811  0.00  0.00    +0.000 OA
BRANCH  12  14
ATOM     14  OXT ILE A   1      -1.406  12.341  17.186  0.00  0.00    +0.000 OA
ATOM     15  HXT ILE A   1      -0.902  13.184  17.061  0.00  0.00    +0.000 HD
ENDBRANCH  12  14
ENDBRANCH  11  12
BRANCH  11  16
ATOM     16  CB  ILE A   1       0.261  13.422  19.570  0.00  0.00    +0.000 C 
ATOM     17  CG2 ILE A   1       1.429  13.559  18.582  0.00  0.00    +0.000 C 
BRANCH  16  18
ATOM     18  CG1 ILE A   1      -0.689  14.644  19.518  0.00  0.00    +0.000 C 
ATOM     19  CD1 ILE A   1      -0.697  15.473  20.800  0.00  0.00    +0.000 C 
ENDBRANCH  16  18
ENDBRANCH  11  16
ENDBRANCH   9  11
ENDBRANCH   4   7
BRANCH   1  20
ATOM     20  C   UNK A   0       4.191   5.827  17.626  0.00  0.00    +0.000 C 
BRANCH  20  23
ATOM     21  C   UNK A   0       4.244   3.537  18.496  0.00  0.00    +0.000 C 
ATOM     22  O   UNK A   0       5.297   3.721  19.097  0.00  0.00    +0.000 OA
ATOM     23  N   UNK A   0       3.618   4.510  17.751  0.00  0.00    +0.000 N 
ATOM     24  H   UNK A   0       2.690   4.345  17.385  0.00  0.00    +0.000 HD
BRANCH  21  25
ATOM     25  C   UNK A   0       3.524   2.203  18.511  0.00  0.00    +0.000 C 
BRANCH  25  26
ATOM     26  C   UNK A   0       2.112   2.341  17.946  0.00  0.00    +0.000 C 
BRANCH  26  27
ATOM     27  C   UNK A   0       1.032   2.131  19.006  0.00  0.00    +0.000 C 
BRANCH  27  29
ATOM     28  C   UNK A   0       1.343   2.930  21.385  0.00  0.00    +0.000 C 
ATOM     29  C   UNK A   0       0.993   3.325  19.962  0.00  0.00    +0.000 C 
ENDBRANCH  27  29
ENDBRANCH  26  27
ENDBRANCH  25  26
ENDBRANCH  21  25
ENDBRANCH  20  23
ENDBRANCH   1  20
TORSDOF 12
ENDMDL
MODEL 6
REMARK VINA RESULT:      -6.6      4.952      7.227
REMARK  Name = 
REMARK  15 active torsions:
REMARK  status: ('A' for Active; 'I' for Inactive)
REMARK    1  A    between atoms: C_1  and  C_2
REMARK    2  A    between atoms: C_2  and  C_3
REMARK    3  A    between atoms: C_3  and  C_4
REMARK    4  A    between atoms: C_4  and  C_5
REMARK    5  A    between atoms: C_5  and  C_6
REMARK    6  A    between atoms: N_8  and  C_9
REMARK    7  A    between atoms: C_9  and  C_10
REMARK    8  A    between atoms: C_13  and  C_14
REMARK    9  A    between atoms: N_16  and  CA_17
REMARK   10  A    between atoms: CA_17  and  C_18
REMARK   11  A    between atoms: CA_17  and  CB_21
REMARK   12  A    between atoms: C_18  and  OXT_20
REMARK   13  A    between atoms: CB_21  and  CG2_22
REMARK   14  A    between atoms: CB_21  and  CG1_23
REMARK   15  A    between atoms: CG1_23  and  CD1_24
REMARK                            x       y       z     vdW  Elec       q    Type
REMARK                         _______ _______ _______ _____ _____    ______ ____
ROOT
ATOM      1  C   UNK A   0       0.930  10.047  19.508  0.00  0.00    +0.000 A 
ATOM      2  C   UNK A   0       1.334   9.881  18.176  0.00  0.00    +0.000 A 
ATOM      3  C   UNK A   0       1.979   8.706  17.770  0.00  0.00    +0.000 A 
ATOM      4  C   UNK A   0       2.209   7.670  18.684  0.00  0.00    +0.000 A 
ATOM      5  C   UNK A   0       1.775   7.816  20.007  0.00  0.00    +0.000 A 
ATOM      6  C   UNK A   0       1.134   8.993  20.411  0.00  0.00    +0.000 A 
ENDROOT
BRANCH   4   7
ATOM      7  C   UNK A   0       2.952   6.460  18.227  0.00  0.00    +0.000 C 
ATOM      8  O   UNK A   0       2.384   5.386  18.047  0.00  0.00    +0.000 OA
ATOM      9  N   ILE A   1       4.320   6.564  18.114  0.00  0.00    +0.000 N 
ATOM     10  H   ILE A   1       4.767   7.329  18.602  0.00  0.00    +0.000 HD
BRANCH   9  11
ATOM     11  CA  ILE A   1       5.181   5.448  17.667  0.00  0.00    +0.000 C 
BRANCH  11  12
ATOM     12  C   ILE A   1       5.748   4.667  18.878  0.00  0.00    +0.000 C 
ATOM     13  O   ILE A   1       6.412   5.151  19.783  0.00  0.00    +0.000 OA
BRANCH  12  14
ATOM     14  OXT ILE A   1       5.517   3.332  18.818  0.00  0.00    +0.000 OA
ATOM     15  HXT ILE A   1       5.964   2.900  18.048  0.00  0.00    +0.000 HD
ENDBRANCH  12  14
ENDBRANCH  11  12
BRANCH  11  16
ATOM     16  CB  ILE A   1       6.248   5.962  16.654  0.00  0.00    +0.000 C 
ATOM     17  CG2 ILE A   1       7.172   7.041  17.238  0.00  0.00    +0.000 C 
BRANCH  16  18
ATOM     18  CG1 ILE A   1       7.046   4.801  16.011  0.00  0.00    +0.000 C 
ATOM     19  CD1 ILE A   1       6.499   4.353  14.657  0.00  0.00    +0.000 C 
ENDBRANCH  16  18
ENDBRANCH  11  16
ENDBRANCH   9  11
ENDBRANCH   4   7
BRANCH   1  20
ATOM     20  C   UNK A   0       0.298  11.337  19.967  0.00  0.00    +0.000 C 
BRANCH  20  23
ATOM     21  C   UNK A   0      -2.066  11.979  19.934  0.00  0.00    +0.000 C 
ATOM     22  O   UNK A   0      -2.116  12.099  21.154  0.00  0.00    +0.000 OA
ATOM     23  N   UNK A   0      -0.924  11.616  19.257  0.00  0.00    +0.000 N 
ATOM     24  H   UNK A   0      -0.903  11.659  18.247  0.00  0.00    +0.000 HD
BRANCH  21  25
ATOM     25  C   UNK A   0      -3.270  12.219  19.045  0.00  0.00    +0.000 C 
BRANCH  25  26
ATOM     26  C   UNK A   0      -3.595  10.974  18.223  0.00  0.00    +0.000 C 
BRANCH  26  27
ATOM     27  C   UNK A   0      -4.177  11.311  16.852  0.00  0.00    +0.000 C 
BRANCH  27  29
ATOM     28  C   UNK A   0      -2.169   9.879  16.296  0.00  0.00    +0.000 C 
ATOM     29  C   UNK A   0      -3.273  10.766  15.746  0.00  0.00    +0.000 C 
ENDBRANCH  27  29
ENDBRANCH  26  27
ENDBRANCH  25  26
ENDBRANCH  21  25
ENDBRANCH  20  23
ENDBRANCH   1  20
TORSDOF 12
ENDMDL
MODEL 7
REMARK VINA RESULT:      -6.6      2.906      4.361
REMARK  Name = 
REMARK  15 active torsions:
REMARK  status: ('A' for Active; 'I' for Inactive)
REMARK    1  A    between atoms: C_1  and  C_2
REMARK    2  A    between atoms: C_2  and  C_3
REMARK    3  A    between atoms: C_3  and  C_4
REMARK    4  A    between atoms: C_4  and  C_5
REMARK    5  A    between atoms: C_5  and  C_6
REMARK    6  A    between atoms: N_8  and  C_9
REMARK    7  A    between atoms: C_9  and  C_10
REMARK    8  A    between atoms: C_13  and  C_14
REMARK    9  A    between atoms: N_16  and  CA_17
REMARK   10  A    between atoms: CA_17  and  C_18
REMARK   11  A    between atoms: CA_17  and  CB_21
REMARK   12  A    between atoms: C_18  and  OXT_20
REMARK   13  A    between atoms: CB_21  and  CG2_22
REMARK   14  A    between atoms: CB_21  and  CG1_23
REMARK   15  A    between atoms: CG1_23  and  CD1_24
REMARK                            x       y       z     vdW  Elec       q    Type
REMARK                         _______ _______ _______ _____ _____    ______ ____
ROOT
ATOM      1  C   UNK A   0       3.721   6.338  18.406  0.00  0.00    +0.000 A 
ATOM      2  C   UNK A   0       4.474   5.187  18.675  0.00  0.00    +0.000 A 
ATOM      3  C   UNK A   0       5.458   4.756  17.777  0.00  0.00    +0.000 A 
ATOM      4  C   UNK A   0       5.718   5.480  16.607  0.00  0.00    +0.000 A 
ATOM      5  C   UNK A   0       4.993   6.651  16.351  0.00  0.00    +0.000 A 
ATOM      6  C   UNK A   0       4.008   7.078  17.250  0.00  0.00    +0.000 A 
ENDROOT
BRANCH   4   7
ATOM      7  C   UNK A   0       6.731   4.956  15.646  0.00  0.00    +0.000 C 
ATOM      8  O   UNK A   0       7.818   4.527  16.025  0.00  0.00    +0.000 OA
ATOM      9  N   ILE A   1       6.445   5.067  14.304  0.00  0.00    +0.000 N 
ATOM     10  H   ILE A   1       5.730   5.730  14.036  0.00  0.00    +0.000 HD
BRANCH   9  11
ATOM     11  CA  ILE A   1       7.353   4.584  13.241  0.00  0.00    +0.000 C 
BRANCH  11  12
ATOM     12  C   ILE A   1       8.289   5.718  12.754  0.00  0.00    +0.000 C 
ATOM     13  O   ILE A   1       9.311   6.081  13.318  0.00  0.00    +0.000 OA
BRANCH  12  14
ATOM     14  OXT ILE A   1       7.830   6.364  11.654  0.00  0.00    +0.000 OA
ATOM     15  HXT ILE A   1       7.810   5.786  10.851  0.00  0.00    +0.000 HD
ENDBRANCH  12  14
ENDBRANCH  11  12
BRANCH  11  16
ATOM     16  CB  ILE A   1       6.541   3.871  12.119  0.00  0.00    +0.000 C 
ATOM     17  CG2 ILE A   1       7.244   2.627  11.555  0.00  0.00    +0.000 C 
BRANCH  16  18
ATOM     18  CG1 ILE A   1       5.087   3.567  12.557  0.00  0.00    +0.000 C 
ATOM     19  CD1 ILE A   1       4.147   3.252  11.397  0.00  0.00    +0.000 C 
ENDBRANCH  16  18
ENDBRANCH  11  16
ENDBRANCH   9  11
ENDBRANCH   4   7
BRANCH   1  20
ATOM     20  C   UNK A   0       2.613   6.769  19.334  0.00  0.00    +0.000 C 
BRANCH  20  23
ATOM     21  C   UNK A   0       1.324   8.780  19.875  0.00  0.00    +0.000 C 
ATOM     22  O   UNK A   0       1.025   8.367  20.991  0.00  0.00    +0.000 OA
ATOM     23  N   UNK A   0       2.105   8.073  18.990  0.00  0.00    +0.000 N 
ATOM     24  H   UNK A   0       2.427   8.514  18.140  0.00  0.00    +0.000 HD
BRANCH  21  25
ATOM     25  C   UNK A   0       0.853  10.125  19.356  0.00  0.00    +0.000 C 
BRANCH  25  26
ATOM     26  C   UNK A   0      -0.057   9.950  18.142  0.00  0.00    +0.000 C 
BRANCH  26  27
ATOM     27  C   UNK A   0      -1.508  10.325  18.437  0.00  0.00    +0.000 C 
BRANCH  27  29
ATOM     28  C   UNK A   0      -3.712  10.880  17.329  0.00  0.00    +0.000 C 
ATOM     29  C   UNK A   0      -2.343  10.247  17.158  0.00  0.00    +0.000 C 
ENDBRANCH  27  29
ENDBRANCH  26  27
ENDBRANCH  25  26
ENDBRANCH  21  25
ENDBRANCH  20  23
ENDBRANCH   1  20
TORSDOF 12
ENDMDL
MODEL 8
REMARK VINA RESULT:      -6.6      4.534      8.174
REMARK  Name = 
REMARK  15 active torsions:
REMARK  status: ('A' for Active; 'I' for Inactive)
REMARK    1  A    between atoms: C_1  and  C_2
REMARK    2  A    between atoms: C_2  and  C_3
REMARK    3  A    between atoms: C_3  and  C_4
REMARK    4  A    between atoms: C_4  and  C_5
REMARK    5  A    between atoms: C_5  and  C_6
REMARK    6  A    between atoms: N_8  and  C_9
REMARK    7  A    between atoms: C_9  and  C_10
REMARK    8  A    between atoms: C_13  and  C_14
REMARK    9  A    between atoms: N_16  and  CA_17
REMARK   10  A    between atoms: CA_17  and  C_18
REMARK   11  A    between atoms: CA_17  and  CB_21
REMARK   12  A    between atoms: C_18  and  OXT_20
REMARK   13  A    between atoms: CB_21  and  CG2_22
REMARK   14  A    between atoms: CB_21  and  CG1_23
REMARK   15  A    between atoms: CG1_23  and  CD1_24
REMARK                            x       y       z     vdW  Elec       q    Type
REMARK                         _______ _______ _______ _____ _____    ______ ____
ROOT
ATOM      1  C   UNK A   0       3.776   6.447  18.111  0.00  0.00    +0.000 A 
ATOM      2  C   UNK A   0       3.124   6.391  19.350  0.00  0.00    +0.000 A 
ATOM      3  C   UNK A   0       2.219   7.392  19.724  0.00  0.00    +0.000 A 
ATOM      4  C   UNK A   0       1.936   8.453  18.854  0.00  0.00    +0.000 A 
ATOM      5  C   UNK A   0       2.557   8.495  17.600  0.00  0.00    +0.000 A 
ATOM      6  C   UNK A   0       3.464   7.494  17.231  0.00  0.00    +0.000 A 
ENDROOT
BRANCH   4   7
ATOM      7  C   UNK A   0       1.013   9.532  19.312  0.00  0.00    +0.000 C 
ATOM      8  O   UNK A   0       0.373   9.431  20.355  0.00  0.00    +0.000 OA
ATOM      9  N   ILE A   1       0.826  10.603  18.468  0.00  0.00    +0.000 N 
ATOM     10  H   ILE A   1       1.081  10.477  17.498  0.00  0.00    +0.000 HD
BRANCH   9  11
ATOM     11  CA  ILE A   1      -0.054  11.746  18.796  0.00  0.00    +0.000 C 
BRANCH  11  12
ATOM     12  C   ILE A   1      -1.459  11.559  18.172  0.00  0.00    +0.000 C 
ATOM     13  O   ILE A   1      -2.308  10.772  18.566  0.00  0.00    +0.000 OA
BRANCH  12  14
ATOM     14  OXT ILE A   1      -1.660  12.305  17.058  0.00  0.00    +0.000 OA
ATOM     15  HXT ILE A   1      -1.622  11.769  16.226  0.00  0.00    +0.000 HD
ENDBRANCH  12  14
ENDBRANCH  11  12
BRANCH  11  16
ATOM     16  CB  ILE A   1       0.652  13.089  18.443  0.00  0.00    +0.000 C 
ATOM     17  CG2 ILE A   1       0.276  14.241  19.387  0.00  0.00    +0.000 C 
BRANCH  16  18
ATOM     18  CG1 ILE A   1       2.186  12.923  18.312  0.00  0.00    +0.000 C 
ATOM     19  CD1 ILE A   1       2.949  14.246  18.281  0.00  0.00    +0.000 C 
ENDBRANCH  16  18
ENDBRANCH  11  16
ENDBRANCH   9  11
ENDBRANCH   4   7
BRANCH   1  20
ATOM     20  C   UNK A   0       4.802   5.410  17.731  0.00  0.00    +0.000 C 
BRANCH  20  23
ATOM     21  C   UNK A   0       3.735   3.206  17.827  0.00  0.00    +0.000 C 
ATOM     22  O   UNK A   0       3.174   3.361  16.747  0.00  0.00    +0.000 OA
ATOM     23  N   UNK A   0       4.561   4.151  18.392  0.00  0.00    +0.000 N 
ATOM     24  H   UNK A   0       5.098   3.922  19.216  0.00  0.00    +0.000 HD
BRANCH  21  25
ATOM     25  C   UNK A   0       3.569   1.947  18.655  0.00  0.00    +0.000 C 
BRANCH  25  26
ATOM     26  C   UNK A   0       2.365   2.065  19.587  0.00  0.00    +0.000 C 
BRANCH  26  27
ATOM     27  C   UNK A   0       2.747   2.563  20.979  0.00  0.00    +0.000 C 
BRANCH  27  29
ATOM     28  C   UNK A   0       0.759   3.998  20.358  0.00  0.00    +0.000 C 
ATOM     29  C   UNK A   0       1.817   3.701  21.405  0.00  0.00    +0.000 C 
ENDBRANCH  27  29
ENDBRANCH  26  27
ENDBRANCH  25  26
ENDBRANCH  21  25
ENDBRANCH  20  23
ENDBRANCH   1  20
TORSDOF 12
ENDMDL
MODEL 9
REMARK VINA RESULT:      -6.5      4.273      9.100
REMARK  Name = 
REMARK  15 active torsions:
REMARK  status: ('A' for Active; 'I' for Inactive)
REMARK    1  A    between atoms: C_1  and  C_2
REMARK    2  A    between atoms: C_2  and  C_3
REMARK    3  A    between atoms: C_3  and  C_4
REMARK    4  A    between atoms: C_4  and  C_5
REMARK    5  A    between atoms: C_5  and  C_6
REMARK    6  A    between atoms: N_8  and  C_9
REMARK    7  A    between atoms: C_9  and  C_10
REMARK    8  A    between atoms: C_13  and  C_14
REMARK    9  A    between atoms: N_16  and  CA_17
REMARK   10  A    between atoms: CA_17  and  C_18
REMARK   11  A    between atoms: CA_17  and  CB_21
REMARK   12  A    between atoms: C_18  and  OXT_20
REMARK   13  A    between atoms: CB_21  and  CG2_22
REMARK   14  A    between atoms: CB_21  and  CG1_23
REMARK   15  A    between atoms: CG1_23  and  CD1_24
REMARK                            x       y       z     vdW  Elec       q    Type
REMARK                         _______ _______ _______ _____ _____    ______ ____
ROOT
ATOM      1  C   UNK A   0       4.100   6.002  18.559  0.00  0.00    +0.000 A 
ATOM      2  C   UNK A   0       3.163   6.050  19.600  0.00  0.00    +0.000 A 
ATOM      3  C   UNK A   0       2.226   7.088  19.666  0.00  0.00    +0.000 A 
ATOM      4  C   UNK A   0       2.196   8.081  18.679  0.00  0.00    +0.000 A 
ATOM      5  C   UNK A   0       3.107   8.018  17.617  0.00  0.00    +0.000 A 
ATOM      6  C   UNK A   0       4.046   6.981  17.556  0.00  0.00    +0.000 A 
ENDROOT
BRANCH   4   7
ATOM      7  C   UNK A   0       1.223   9.203  18.816  0.00  0.00    +0.000 C 
ATOM      8  O   UNK A   0       0.612   9.647  17.847  0.00  0.00    +0.000 OA
ATOM      9  N   ILE A   1       1.111   9.794  20.053  0.00  0.00    +0.000 N 
ATOM     10  H   ILE A   1       1.866   9.643  20.709  0.00  0.00    +0.000 HD
BRANCH   9  11
ATOM     11  CA  ILE A   1       0.182  10.910  20.335  0.00  0.00    +0.000 C 
BRANCH  11  12
ATOM     12  C   ILE A   1       0.926  12.268  20.317  0.00  0.00    +0.000 C 
ATOM     13  O   ILE A   1       1.880  12.560  21.024  0.00  0.00    +0.000 OA
BRANCH  12  14
ATOM     14  OXT ILE A   1       0.369  13.181  19.484  0.00  0.00    +0.000 OA
ATOM     15  HXT ILE A   1       1.018  13.859  19.170  0.00  0.00    +0.000 HD
ENDBRANCH  12  14
ENDBRANCH  11  12
BRANCH  11  16
ATOM     16  CB  ILE A   1      -0.633  10.621  21.632  0.00  0.00    +0.000 C 
ATOM     17  CG2 ILE A   1       0.068   9.641  22.584  0.00  0.00    +0.000 C 
BRANCH  16  18
ATOM     18  CG1 ILE A   1      -1.063  11.923  22.351  0.00  0.00    +0.000 C 
ATOM     19  CD1 ILE A   1      -2.246  11.741  23.299  0.00  0.00    +0.000 C 
ENDBRANCH  16  18
ENDBRANCH  11  16
ENDBRANCH   9  11
ENDBRANCH   4   7
BRANCH   1  20
ATOM     20  C   UNK A   0       5.156   4.926  18.521  0.00  0.00    +0.000 C 
BRANCH  20  23
ATOM     21  C   UNK A   0       6.252   4.224  16.446  0.00  0.00    +0.000 C 
ATOM     22  O   UNK A   0       7.293   4.812  16.721  0.00  0.00    +0.000 OA
ATOM     23  N   UNK A   0       5.149   4.214  17.268  0.00  0.00    +0.000 N 
ATOM     24  H   UNK A   0       4.368   3.609  17.055  0.00  0.00    +0.000 HD
BRANCH  21  25
ATOM     25  C   UNK A   0       6.077   3.444  15.157  0.00  0.00    +0.000 C 
BRANCH  25  26
ATOM     26  C   UNK A   0       5.697   4.374  14.007  0.00  0.00    +0.000 C 
BRANCH  26  27
ATOM     27  C   UNK A   0       6.434   4.037  12.712  0.00  0.00    +0.000 C 
BRANCH  27  29
ATOM     28  C   UNK A   0       4.347   3.286  11.497  0.00  0.00    +0.000 C 
ATOM     29  C   UNK A   0       5.728   2.889  11.988  0.00  0.00    +0.000 C 
ENDBRANCH  27  29
ENDBRANCH  26  27
ENDBRANCH  25  26
ENDBRANCH  21  25
ENDBRANCH  20  23
ENDBRANCH   1  20
TORSDOF 12
ENDMDL
