MODEL 1
REMARK VINA RESULT:      -8.2      0.000      0.000
REMARK  Name = 
REMARK  6 active torsions:
REMARK  status: ('A' for Active; 'I' for Inactive)
REMARK    1  A    between atoms: C_1  and  C_2
REMARK    2  A    between atoms: C_2  and  C_3
REMARK    3  A    between atoms: C_3  and  N_4
REMARK    4  A    between atoms: C_10  and  C_11
REMARK    5  A    between atoms: C_18  and  C_19
REMARK    6  A    between atoms: C_23  and  O_24
REMARK                            x       y       z     vdW  Elec       q    Type
REMARK                         _______ _______ _______ _____ _____    ______ ____
ROOT
ATOM      1  N   UNL     1       6.289   6.193  17.287  0.00  0.00    +0.000 N 
ATOM      2  C   UNL     1       6.489   5.201  16.320  0.00  0.00    +0.000 C 
ATOM      3  O   UNL     1       7.200   5.231  15.332  0.00  0.00    +0.000 OA
ATOM      4  C   UNL     1       5.640   4.153  16.744  0.00  0.00    +0.000 A 
ATOM      5  N   UNL     1       5.251   2.941  16.326  0.00  0.00    +0.000 N 
ATOM      6  N   UNL     1       4.315   2.412  17.149  0.00  0.00    +0.000 NA
ATOM      7  C   UNL     1       4.125   3.336  18.124  0.00  0.00    +0.000 A 
ATOM      8  C   UNL     1       4.957   4.447  17.887  0.00  0.00    +0.000 A 
ATOM      9  C   UNL     1       5.347   5.791  18.373  0.00  0.00    +0.000 C 
ATOM     10  H   UNL     1       5.541   2.420  15.505  0.00  0.00    +0.000 HD
ENDROOT
BRANCH   7  11
ATOM     11  C   UNL     1       3.150   3.114  19.192  0.00  0.00    +0.000 A 
ATOM     12  C   UNL     1       3.551   2.755  20.485  0.00  0.00    +0.000 A 
ATOM     13  C   UNL     1       2.606   2.566  21.498  0.00  0.00    +0.000 A 
ATOM     14  C   UNL     1       1.248   2.725  21.226  0.00  0.00    +0.000 A 
ATOM     15  C   UNL     1       0.833   3.069  19.943  0.00  0.00    +0.000 A 
ATOM     16  C   UNL     1       1.777   3.261  18.933  0.00  0.00    +0.000 A 
ENDBRANCH   7  11
BRANCH   9  17
ATOM     17  C   UNL     1       4.114   6.652  18.465  0.00  0.00    +0.000 A 
ATOM     18  C   UNL     1       3.735   7.541  17.443  0.00  0.00    +0.000 A 
ATOM     19  C   UNL     1       2.605   8.348  17.579  0.00  0.00    +0.000 A 
ATOM     20  C   UNL     1       1.834   8.284  18.738  0.00  0.00    +0.000 A 
ATOM     21  C   UNL     1       2.205   7.414  19.755  0.00  0.00    +0.000 A 
ATOM     22  C   UNL     1       3.330   6.607  19.630  0.00  0.00    +0.000 A 
BRANCH  21  23
ATOM     23  O   UNL     1       1.488   7.323  20.911  0.00  0.00    +0.000 OA
ATOM     24  H   UNL     1       0.686   7.864  20.818  0.00  0.00    +0.000 HD
ENDBRANCH  21  23
ENDBRANCH   9  17
BRANCH   1  25
ATOM     25  C   UNL     1       6.874   7.519  17.198  0.00  0.00    +0.000 C 
BRANCH  25  27
ATOM     26  C   UNL     1       8.431   9.193  18.288  0.00  0.00    +0.000 C 
ATOM     27  C   UNL     1       8.065   7.725  18.130  0.00  0.00    +0.000 C 
ENDBRANCH  25  27
ENDBRANCH   1  25
TORSDOF 5
ENDMDL
MODEL 2
REMARK VINA RESULT:      -7.6      0.967      1.363
REMARK  Name = 
REMARK  6 active torsions:
REMARK  status: ('A' for Active; 'I' for Inactive)
REMARK    1  A    between atoms: C_1  and  C_2
REMARK    2  A    between atoms: C_2  and  C_3
REMARK    3  A    between atoms: C_3  and  N_4
REMARK    4  A    between atoms: C_10  and  C_11
REMARK    5  A    between atoms: C_18  and  C_19
REMARK    6  A    between atoms: C_23  and  O_24
REMARK                            x       y       z     vdW  Elec       q    Type
REMARK                         _______ _______ _______ _____ _____    ______ ____
ROOT
ATOM      1  N   UNL     1       5.919   6.334  17.307  0.00  0.00    +0.000 N 
ATOM      2  C   UNL     1       6.009   5.406  16.262  0.00  0.00    +0.000 C 
ATOM      3  O   UNL     1       6.617   5.497  15.212  0.00  0.00    +0.000 OA
ATOM      4  C   UNL     1       5.196   4.336  16.702  0.00  0.00    +0.000 A 
ATOM      5  N   UNL     1       4.752   3.156  16.248  0.00  0.00    +0.000 N 
ATOM      6  N   UNL     1       3.898   2.579  17.126  0.00  0.00    +0.000 NA
ATOM      7  C   UNL     1       3.818   3.438  18.174  0.00  0.00    +0.000 A 
ATOM      8  C   UNL     1       4.635   4.558  17.925  0.00  0.00    +0.000 A 
ATOM      9  C   UNL     1       5.087   5.866  18.455  0.00  0.00    +0.000 C 
ATOM     10  H   UNL     1       4.953   2.688  15.371  0.00  0.00    +0.000 HD
ENDROOT
BRANCH   7  11
ATOM     11  C   UNL     1       2.954   3.152  19.318  0.00  0.00    +0.000 A 
ATOM     12  C   UNL     1       3.479   2.711  20.539  0.00  0.00    +0.000 A 
ATOM     13  C   UNL     1       2.639   2.460  21.628  0.00  0.00    +0.000 A 
ATOM     14  C   UNL     1       1.262   2.640  21.506  0.00  0.00    +0.000 A 
ATOM     15  C   UNL     1       0.723   3.065  20.295  0.00  0.00    +0.000 A 
ATOM     16  C   UNL     1       1.563   3.319  19.209  0.00  0.00    +0.000 A 
ENDBRANCH   7  11
BRANCH   9  17
ATOM     17  C   UNL     1       3.880   6.725  18.726  0.00  0.00    +0.000 A 
ATOM     18  C   UNL     1       3.074   6.558  19.867  0.00  0.00    +0.000 A 
ATOM     19  C   UNL     1       1.943   7.351  20.067  0.00  0.00    +0.000 A 
ATOM     20  C   UNL     1       1.596   8.325  19.133  0.00  0.00    +0.000 A 
ATOM     21  C   UNL     1       2.384   8.493  18.000  0.00  0.00    +0.000 A 
ATOM     22  C   UNL     1       3.510   7.706  17.790  0.00  0.00    +0.000 A 
BRANCH  21  23
ATOM     23  O   UNL     1       2.079   9.426  17.054  0.00  0.00    +0.000 OA
ATOM     24  H   UNL     1       1.407  10.026  17.419  0.00  0.00    +0.000 HD
ENDBRANCH  21  23
ENDBRANCH   9  17
BRANCH   1  25
ATOM     25  C   UNL     1       6.508   7.659  17.245  0.00  0.00    +0.000 C 
BRANCH  25  27
ATOM     26  C   UNL     1       8.332   9.179  18.124  0.00  0.00    +0.000 C 
ATOM     27  C   UNL     1       7.892   7.744  17.881  0.00  0.00    +0.000 C 
ENDBRANCH  25  27
ENDBRANCH   1  25
TORSDOF 5
ENDMDL
MODEL 3
REMARK VINA RESULT:      -7.0      2.173      5.566
REMARK  Name = 
REMARK  6 active torsions:
REMARK  status: ('A' for Active; 'I' for Inactive)
REMARK    1  A    between atoms: C_1  and  C_2
REMARK    2  A    between atoms: C_2  and  C_3
REMARK    3  A    between atoms: C_3  and  N_4
REMARK    4  A    between atoms: C_10  and  C_11
REMARK    5  A    between atoms: C_18  and  C_19
REMARK    6  A    between atoms: C_23  and  O_24
REMARK                            x       y       z     vdW  Elec       q    Type
REMARK                         _______ _______ _______ _____ _____    ______ ____
ROOT
ATOM      1  N   UNL     1       3.474   5.277  18.945  0.00  0.00    +0.000 N 
ATOM      2  C   UNL     1       3.160   3.919  19.075  0.00  0.00    +0.000 C 
ATOM      3  O   UNL     1       2.540   3.361  19.961  0.00  0.00    +0.000 OA
ATOM      4  C   UNL     1       3.766   3.332  17.940  0.00  0.00    +0.000 A 
ATOM      5  N   UNL     1       3.950   2.113  17.414  0.00  0.00    +0.000 N 
ATOM      6  N   UNL     1       4.710   2.168  16.295  0.00  0.00    +0.000 NA
ATOM      7  C   UNL     1       5.000   3.482  16.117  0.00  0.00    +0.000 A 
ATOM      8  C   UNL     1       4.410   4.236  17.149  0.00  0.00    +0.000 A 
ATOM      9  C   UNL     1       4.245   5.598  17.708  0.00  0.00    +0.000 C 
ATOM     10  H   UNL     1       3.625   1.212  17.750  0.00  0.00    +0.000 HD
ENDROOT
BRANCH   7  11
ATOM     11  C   UNL     1       5.838   3.924  15.003  0.00  0.00    +0.000 A 
ATOM     12  C   UNL     1       6.960   4.736  15.209  0.00  0.00    +0.000 A 
ATOM     13  C   UNL     1       7.760   5.133  14.133  0.00  0.00    +0.000 A 
ATOM     14  C   UNL     1       7.442   4.729  12.838  0.00  0.00    +0.000 A 
ATOM     15  C   UNL     1       6.323   3.933  12.615  0.00  0.00    +0.000 A 
ATOM     16  C   UNL     1       5.526   3.533  13.690  0.00  0.00    +0.000 A 
ENDBRANCH   7  11
BRANCH   9  17
ATOM     17  C   UNL     1       5.607   6.186  17.970  0.00  0.00    +0.000 A 
ATOM     18  C   UNL     1       6.089   7.315  17.284  0.00  0.00    +0.000 A 
ATOM     19  C   UNL     1       7.371   7.809  17.530  0.00  0.00    +0.000 A 
ATOM     20  C   UNL     1       8.194   7.185  18.464  0.00  0.00    +0.000 A 
ATOM     21  C   UNL     1       7.729   6.066  19.143  0.00  0.00    +0.000 A 
ATOM     22  C   UNL     1       6.455   5.564  18.903  0.00  0.00    +0.000 A 
BRANCH  21  23
ATOM     23  O   UNL     1       8.502   5.416  20.059  0.00  0.00    +0.000 OA
ATOM     24  H   UNL     1       8.896   6.078  20.653  0.00  0.00    +0.000 HD
ENDBRANCH  21  23
ENDBRANCH   9  17
BRANCH   1  25
ATOM     25  C   UNL     1       3.155   6.266  19.958  0.00  0.00    +0.000 C 
BRANCH  25  27
ATOM     26  C   UNL     1       1.527   8.103  20.581  0.00  0.00    +0.000 C 
ATOM     27  C   UNL     1       2.256   7.391  19.453  0.00  0.00    +0.000 C 
ENDBRANCH  25  27
ENDBRANCH   1  25
TORSDOF 5
ENDMDL
MODEL 4
REMARK VINA RESULT:      -7.0      2.277      4.901
REMARK  Name = 
REMARK  6 active torsions:
REMARK  status: ('A' for Active; 'I' for Inactive)
REMARK    1  A    between atoms: C_1  and  C_2
REMARK    2  A    between atoms: C_2  and  C_3
REMARK    3  A    between atoms: C_3  and  N_4
REMARK    4  A    between atoms: C_10  and  C_11
REMARK    5  A    between atoms: C_18  and  C_19
REMARK    6  A    between atoms: C_23  and  O_24
REMARK                            x       y       z     vdW  Elec       q    Type
REMARK                         _______ _______ _______ _____ _____    ______ ____
ROOT
ATOM      1  N   UNL     1       5.677   4.423  15.028  0.00  0.00    +0.000 N 
ATOM      2  C   UNL     1       6.805   5.233  15.204  0.00  0.00    +0.000 C 
ATOM      3  O   UNL     1       7.908   5.123  14.702  0.00  0.00    +0.000 OA
ATOM      4  C   UNL     1       6.370   6.204  16.135  0.00  0.00    +0.000 A 
ATOM      5  N   UNL     1       6.873   7.244  16.814  0.00  0.00    +0.000 N 
ATOM      6  N   UNL     1       5.956   7.774  17.657  0.00  0.00    +0.000 NA
ATOM      7  C   UNL     1       4.832   7.033  17.483  0.00  0.00    +0.000 A 
ATOM      8  C   UNL     1       5.073   6.034  16.521  0.00  0.00    +0.000 A 
ATOM      9  C   UNL     1       4.485   4.879  15.803  0.00  0.00    +0.000 C 
ATOM     10  H   UNL     1       7.808   7.638  16.787  0.00  0.00    +0.000 HD
ENDROOT
BRANCH   7  11
ATOM     11  C   UNL     1       3.623   7.305  18.259  0.00  0.00    +0.000 A 
ATOM     12  C   UNL     1       3.238   6.484  19.326  0.00  0.00    +0.000 A 
ATOM     13  C   UNL     1       2.089   6.771  20.069  0.00  0.00    +0.000 A 
ATOM     14  C   UNL     1       1.306   7.878  19.746  0.00  0.00    +0.000 A 
ATOM     15  C   UNL     1       1.667   8.696  18.680  0.00  0.00    +0.000 A 
ATOM     16  C   UNL     1       2.816   8.411  17.941  0.00  0.00    +0.000 A 
ENDBRANCH   7  11
BRANCH   9  17
ATOM     17  C   UNL     1       3.991   3.877  16.815  0.00  0.00    +0.000 A 
ATOM     18  C   UNL     1       2.705   3.313  16.754  0.00  0.00    +0.000 A 
ATOM     19  C   UNL     1       2.271   2.413  17.729  0.00  0.00    +0.000 A 
ATOM     20  C   UNL     1       3.113   2.062  18.782  0.00  0.00    +0.000 A 
ATOM     21  C   UNL     1       4.384   2.619  18.853  0.00  0.00    +0.000 A 
ATOM     22  C   UNL     1       4.824   3.518  17.888  0.00  0.00    +0.000 A 
BRANCH  21  23
ATOM     23  O   UNL     1       5.239   2.313  19.869  0.00  0.00    +0.000 OA
ATOM     24  H   UNL     1       6.096   2.735  19.687  0.00  0.00    +0.000 HD
ENDBRANCH  21  23
ENDBRANCH   9  17
BRANCH   1  25
ATOM     25  C   UNL     1       5.687   3.207  14.236  0.00  0.00    +0.000 C 
BRANCH  25  27
ATOM     26  C   UNL     1       4.715   3.289  11.899  0.00  0.00    +0.000 C 
ATOM     27  C   UNL     1       5.963   3.444  12.754  0.00  0.00    +0.000 C 
ENDBRANCH  25  27
ENDBRANCH   1  25
TORSDOF 5
ENDMDL
MODEL 5
REMARK VINA RESULT:      -6.9      3.102      5.936
REMARK  Name = 
REMARK  6 active torsions:
REMARK  status: ('A' for Active; 'I' for Inactive)
REMARK    1  A    between atoms: C_1  and  C_2
REMARK    2  A    between atoms: C_2  and  C_3
REMARK    3  A    between atoms: C_3  and  N_4
REMARK    4  A    between atoms: C_10  and  C_11
REMARK    5  A    between atoms: C_18  and  C_19
REMARK    6  A    between atoms: C_23  and  O_24
REMARK                            x       y       z     vdW  Elec       q    Type
REMARK                         _______ _______ _______ _____ _____    ______ ____
ROOT
ATOM      1  N   UNL     1       1.358   7.977  20.462  0.00  0.00    +0.000 N 
ATOM      2  C   UNL     1       1.108   8.932  19.470  0.00  0.00    +0.000 C 
ATOM      3  O   UNL     1       0.274   9.819  19.459  0.00  0.00    +0.000 OA
ATOM      4  C   UNL     1       2.039   8.606  18.458  0.00  0.00    +0.000 A 
ATOM      5  N   UNL     1       2.364   9.008  17.221  0.00  0.00    +0.000 N 
ATOM      6  N   UNL     1       3.338   8.232  16.689  0.00  0.00    +0.000 NA
ATOM      7  C   UNL     1       3.633   7.314  17.645  0.00  0.00    +0.000 A 
ATOM      8  C   UNL     1       2.822   7.535  18.774  0.00  0.00    +0.000 A 
ATOM      9  C   UNL     1       2.480   7.048  20.131  0.00  0.00    +0.000 C 
ATOM     10  H   UNL     1       1.974   9.764  16.667  0.00  0.00    +0.000 HD
ENDROOT
BRANCH   7  11
ATOM     11  C   UNL     1       4.638   6.279  17.409  0.00  0.00    +0.000 A 
ATOM     12  C   UNL     1       5.253   5.602  18.469  0.00  0.00    +0.000 A 
ATOM     13  C   UNL     1       6.199   4.601  18.224  0.00  0.00    +0.000 A 
ATOM     14  C   UNL     1       6.546   4.273  16.915  0.00  0.00    +0.000 A 
ATOM     15  C   UNL     1       5.954   4.945  15.850  0.00  0.00    +0.000 A 
ATOM     16  C   UNL     1       5.007   5.942  16.096  0.00  0.00    +0.000 A 
ENDBRANCH   7  11
BRANCH   9  17
ATOM     17  C   UNL     1       2.070   5.601  20.040  0.00  0.00    +0.000 A 
ATOM     18  C   UNL     1       1.574   5.029  18.854  0.00  0.00    +0.000 A 
ATOM     19  C   UNL     1       1.173   3.693  18.818  0.00  0.00    +0.000 A 
ATOM     20  C   UNL     1       1.257   2.905  19.964  0.00  0.00    +0.000 A 
ATOM     21  C   UNL     1       1.741   3.463  21.141  0.00  0.00    +0.000 A 
ATOM     22  C   UNL     1       2.141   4.794  21.188  0.00  0.00    +0.000 A 
BRANCH  21  23
ATOM     23  O   UNL     1       1.833   2.734  22.289  0.00  0.00    +0.000 OA
ATOM     24  H   UNL     1       2.353   1.934  22.105  0.00  0.00    +0.000 HD
ENDBRANCH  21  23
ENDBRANCH   9  17
BRANCH   1  25
ATOM     25  C   UNL     1       0.550   7.845  21.661  0.00  0.00    +0.000 C 
BRANCH  25  27
ATOM     26  C   UNL     1      -0.592   9.694  22.960  0.00  0.00    +0.000 C 
ATOM     27  C   UNL     1       0.722   8.998  22.644  0.00  0.00    +0.000 C 
ENDBRANCH  25  27
ENDBRANCH   1  25
TORSDOF 5
ENDMDL
MODEL 6
REMARK VINA RESULT:      -6.8      2.531      6.212
REMARK  Name = 
REMARK  6 active torsions:
REMARK  status: ('A' for Active; 'I' for Inactive)
REMARK    1  A    between atoms: C_1  and  C_2
REMARK    2  A    between atoms: C_2  and  C_3
REMARK    3  A    between atoms: C_3  and  N_4
REMARK    4  A    between atoms: C_10  and  C_11
REMARK    5  A    between atoms: C_18  and  C_19
REMARK    6  A    between atoms: C_23  and  O_24
REMARK                            x       y       z     vdW  Elec       q    Type
REMARK                         _______ _______ _______ _____ _____    ______ ____
ROOT
ATOM      1  N   UNL     1       2.661   5.736  20.353  0.00  0.00    +0.000 N 
ATOM      2  C   UNL     1       2.131   6.954  19.912  0.00  0.00    +0.000 C 
ATOM      3  O   UNL     1       1.234   7.616  20.401  0.00  0.00    +0.000 OA
ATOM      4  C   UNL     1       2.866   7.226  18.736  0.00  0.00    +0.000 A 
ATOM      5  N   UNL     1       2.898   8.141  17.758  0.00  0.00    +0.000 N 
ATOM      6  N   UNL     1       3.812   7.821  16.811  0.00  0.00    +0.000 NA
ATOM      7  C   UNL     1       4.375   6.658  17.229  0.00  0.00    +0.000 A 
ATOM      8  C   UNL     1       3.790   6.265  18.448  0.00  0.00    +0.000 A 
ATOM      9  C   UNL     1       3.773   5.222  19.500  0.00  0.00    +0.000 C 
ATOM     10  H   UNL     1       2.338   8.979  17.642  0.00  0.00    +0.000 HD
ENDROOT
BRANCH   7  11
ATOM     11  C   UNL     1       5.403   5.990  16.432  0.00  0.00    +0.000 A 
ATOM     12  C   UNL     1       6.611   5.569  17.001  0.00  0.00    +0.000 A 
ATOM     13  C   UNL     1       7.574   4.915  16.227  0.00  0.00    +0.000 A 
ATOM     14  C   UNL     1       7.343   4.683  14.872  0.00  0.00    +0.000 A 
ATOM     15  C   UNL     1       6.153   5.107  14.288  0.00  0.00    +0.000 A 
ATOM     16  C   UNL     1       5.191   5.757  15.063  0.00  0.00    +0.000 A 
ENDBRANCH   7  11
BRANCH   9  17
ATOM     17  C   UNL     1       3.487   3.889  18.858  0.00  0.00    +0.000 A 
ATOM     18  C   UNL     1       2.475   3.713  17.898  0.00  0.00    +0.000 A 
ATOM     19  C   UNL     1       2.217   2.455  17.351  0.00  0.00    +0.000 A 
ATOM     20  C   UNL     1       2.964   1.350  17.754  0.00  0.00    +0.000 A 
ATOM     21  C   UNL     1       3.962   1.513  18.707  0.00  0.00    +0.000 A 
ATOM     22  C   UNL     1       4.225   2.762  19.259  0.00  0.00    +0.000 A 
BRANCH  21  23
ATOM     23  O   UNL     1       4.712   0.460  19.139  0.00  0.00    +0.000 OA
ATOM     24  H   UNL     1       4.597   0.375  20.101  0.00  0.00    +0.000 HD
ENDBRANCH  21  23
ENDBRANCH   9  17
BRANCH   1  25
ATOM     25  C   UNL     1       2.125   4.998  21.483  0.00  0.00    +0.000 C 
BRANCH  25  27
ATOM     26  C   UNL     1       1.552   2.541  21.701  0.00  0.00    +0.000 C 
ATOM     27  C   UNL     1       1.170   3.877  21.083  0.00  0.00    +0.000 C 
ENDBRANCH  25  27
ENDBRANCH   1  25
TORSDOF 5
ENDMDL
MODEL 7
REMARK VINA RESULT:      -6.6      2.863      6.026
REMARK  Name = 
REMARK  6 active torsions:
REMARK  status: ('A' for Active; 'I' for Inactive)
REMARK    1  A    between atoms: C_1  and  C_2
REMARK    2  A    between atoms: C_2  and  C_3
REMARK    3  A    between atoms: C_3  and  N_4
REMARK    4  A    between atoms: C_10  and  C_11
REMARK    5  A    between atoms: C_18  and  C_19
REMARK    6  A    between atoms: C_23  and  O_24
REMARK                            x       y       z     vdW  Elec       q    Type
REMARK                         _______ _______ _______ _____ _____    ______ ____
ROOT
ATOM      1  N   UNL     1       1.305   8.039  20.511  0.00  0.00    +0.000 N 
ATOM      2  C   UNL     1       1.044   8.956  19.487  0.00  0.00    +0.000 C 
ATOM      3  O   UNL     1       0.199   9.831  19.444  0.00  0.00    +0.000 OA
ATOM      4  C   UNL     1       1.981   8.608  18.487  0.00  0.00    +0.000 A 
ATOM      5  N   UNL     1       2.302   8.972  17.238  0.00  0.00    +0.000 N 
ATOM      6  N   UNL     1       3.287   8.190  16.734  0.00  0.00    +0.000 NA
ATOM      7  C   UNL     1       3.592   7.310  17.721  0.00  0.00    +0.000 A 
ATOM      8  C   UNL     1       2.777   7.559  18.841  0.00  0.00    +0.000 A 
ATOM      9  C   UNL     1       2.439   7.114  20.213  0.00  0.00    +0.000 C 
ATOM     10  H   UNL     1       1.903   9.702  16.658  0.00  0.00    +0.000 HD
ENDROOT
BRANCH   7  11
ATOM     11  C   UNL     1       4.611   6.280  17.522  0.00  0.00    +0.000 A 
ATOM     12  C   UNL     1       5.294   5.708  18.602  0.00  0.00    +0.000 A 
ATOM     13  C   UNL     1       6.252   4.711  18.394  0.00  0.00    +0.000 A 
ATOM     14  C   UNL     1       6.544   4.281  17.101  0.00  0.00    +0.000 A 
ATOM     15  C   UNL     1       5.884   4.849  16.015  0.00  0.00    +0.000 A 
ATOM     16  C   UNL     1       4.925   5.842  16.224  0.00  0.00    +0.000 A 
ENDBRANCH   7  11
BRANCH   9  17
ATOM     17  C   UNL     1       2.049   5.659  20.172  0.00  0.00    +0.000 A 
ATOM     18  C   UNL     1       2.107   4.829  21.305  0.00  0.00    +0.000 A 
ATOM     19  C   UNL     1       1.769   3.477  21.220  0.00  0.00    +0.000 A 
ATOM     20  C   UNL     1       1.370   2.930  20.002  0.00  0.00    +0.000 A 
ATOM     21  C   UNL     1       1.316   3.743  18.876  0.00  0.00    +0.000 A 
ATOM     22  C   UNL     1       1.652   5.089  18.950  0.00  0.00    +0.000 A 
BRANCH  21  23
ATOM     23  O   UNL     1       0.940   3.251  17.661  0.00  0.00    +0.000 OA
ATOM     24  H   UNL     1       1.318   2.360  17.560  0.00  0.00    +0.000 HD
ENDBRANCH  21  23
ENDBRANCH   9  17
BRANCH   1  25
ATOM     25  C   UNL     1       0.497   7.938  21.713  0.00  0.00    +0.000 C 
BRANCH  25  27
ATOM     26  C   UNL     1      -0.635   9.743  23.081  0.00  0.00    +0.000 C 
ATOM     27  C   UNL     1       0.685   9.106  22.676  0.00  0.00    +0.000 C 
ENDBRANCH  25  27
ENDBRANCH   1  25
TORSDOF 5
ENDMDL
MODEL 8
REMARK VINA RESULT:      -6.5      9.153     10.550
REMARK  Name = 
REMARK  6 active torsions:
REMARK  status: ('A' for Active; 'I' for Inactive)
REMARK    1  A    between atoms: C_1  and  C_2
REMARK    2  A    between atoms: C_2  and  C_3
REMARK    3  A    between atoms: C_3  and  N_4
REMARK    4  A    between atoms: C_10  and  C_11
REMARK    5  A    between atoms: C_18  and  C_19
REMARK    6  A    between atoms: C_23  and  O_24
REMARK                            x       y       z     vdW  Elec       q    Type
REMARK                         _______ _______ _______ _____ _____    ______ ____
ROOT
ATOM      1  N   UNL     1      10.790  14.924  17.682  0.00  0.00    +0.000 N 
ATOM      2  C   UNL     1      11.231  13.642  17.331  0.00  0.00    +0.000 C 
ATOM      3  O   UNL     1      11.768  13.276  16.302  0.00  0.00    +0.000 OA
ATOM      4  C   UNL     1      10.876  12.855  18.450  0.00  0.00    +0.000 A 
ATOM      5  N   UNL     1      10.913  11.570  18.829  0.00  0.00    +0.000 N 
ATOM      6  N   UNL     1      10.332  11.396  20.040  0.00  0.00    +0.000 NA
ATOM      7  C   UNL     1       9.927  12.631  20.429  0.00  0.00    +0.000 A 
ATOM      8  C   UNL     1      10.263  13.570  19.436  0.00  0.00    +0.000 A 
ATOM      9  C   UNL     1      10.186  14.997  19.045  0.00  0.00    +0.000 C 
ATOM     10  H   UNL     1      11.282  10.764  18.336  0.00  0.00    +0.000 HD
ENDROOT
BRANCH   7  11
ATOM     11  C   UNL     1       9.225  12.829  21.697  0.00  0.00    +0.000 A 
ATOM     12  C   UNL     1       9.299  14.042  22.393  0.00  0.00    +0.000 A 
ATOM     13  C   UNL     1       8.606  14.218  23.594  0.00  0.00    +0.000 A 
ATOM     14  C   UNL     1       7.837  13.180  24.118  0.00  0.00    +0.000 A 
ATOM     15  C   UNL     1       7.764  11.964  23.445  0.00  0.00    +0.000 A 
ATOM     16  C   UNL     1       8.453  11.790  22.244  0.00  0.00    +0.000 A 
ENDBRANCH   7  11
BRANCH   9  17
ATOM     17  C   UNL     1       8.742  15.427  19.053  0.00  0.00    +0.000 A 
ATOM     18  C   UNL     1       8.285  16.525  19.805  0.00  0.00    +0.000 A 
ATOM     19  C   UNL     1       6.933  16.872  19.814  0.00  0.00    +0.000 A 
ATOM     20  C   UNL     1       6.014  16.130  19.075  0.00  0.00    +0.000 A 
ATOM     21  C   UNL     1       6.457  15.041  18.334  0.00  0.00    +0.000 A 
ATOM     22  C   UNL     1       7.801  14.685  18.320  0.00  0.00    +0.000 A 
BRANCH  21  23
ATOM     23  O   UNL     1       5.594  14.279  17.603  0.00  0.00    +0.000 OA
ATOM     24  H   UNL     1       5.160  14.850  16.947  0.00  0.00    +0.000 HD
ENDBRANCH  21  23
ENDBRANCH   9  17
BRANCH   1  25
ATOM     25  C   UNL     1      10.837  16.056  16.775  0.00  0.00    +0.000 C 
BRANCH  25  27
ATOM     26  C   UNL     1      10.479  18.464  17.472  0.00  0.00    +0.000 C 
ATOM     27  C   UNL     1      11.460  17.306  17.389  0.00  0.00    +0.000 C 
ENDBRANCH  25  27
ENDBRANCH   1  25
TORSDOF 5
ENDMDL
MODEL 9
REMARK VINA RESULT:      -6.4      5.968      8.964
REMARK  Name = 
REMARK  6 active torsions:
REMARK  status: ('A' for Active; 'I' for Inactive)
REMARK    1  A    between atoms: C_1  and  C_2
REMARK    2  A    between atoms: C_2  and  C_3
REMARK    3  A    between atoms: C_3  and  N_4
REMARK    4  A    between atoms: C_10  and  C_11
REMARK    5  A    between atoms: C_18  and  C_19
REMARK    6  A    between atoms: C_23  and  O_24
REMARK                            x       y       z     vdW  Elec       q    Type
REMARK                         _______ _______ _______ _____ _____    ______ ____
ROOT
ATOM      1  N   UNL     1      -1.724  12.761  21.460  0.00  0.00    +0.000 N 
ATOM      2  C   UNL     1      -1.860  12.128  22.701  0.00  0.00    +0.000 C 
ATOM      3  O   UNL     1      -2.441  12.520  23.697  0.00  0.00    +0.000 OA
ATOM      4  C   UNL     1      -1.133  10.927  22.539  0.00  0.00    +0.000 A 
ATOM      5  N   UNL     1      -0.766   9.866  23.270  0.00  0.00    +0.000 N 
ATOM      6  N   UNL     1       0.029   9.029  22.562  0.00  0.00    +0.000 NA
ATOM      7  C   UNL     1       0.151   9.596  21.335  0.00  0.00    +0.000 A 
ATOM      8  C   UNL     1      -0.580  10.799  21.299  0.00  0.00    +0.000 A 
ATOM      9  C   UNL     1      -0.948  11.965  20.463  0.00  0.00    +0.000 C 
ATOM     10  H   UNL     1      -0.983   9.644  24.236  0.00  0.00    +0.000 HD
ENDROOT
BRANCH   7  11
ATOM     11  C   UNL     1       0.971   8.974  20.296  0.00  0.00    +0.000 A 
ATOM     12  C   UNL     1       1.654   7.774  20.525  0.00  0.00    +0.000 A 
ATOM     13  C   UNL     1       2.419   7.184  19.514  0.00  0.00    +0.000 A 
ATOM     14  C   UNL     1       2.517   7.794  18.264  0.00  0.00    +0.000 A 
ATOM     15  C   UNL     1       1.855   8.995  18.025  0.00  0.00    +0.000 A 
ATOM     16  C   UNL     1       1.088   9.581  19.034  0.00  0.00    +0.000 A 
ENDBRANCH   7  11
BRANCH   9  17
ATOM     17  C   UNL     1       0.312  12.641  19.987  0.00  0.00    +0.000 A 
ATOM     18  C   UNL     1       0.509  13.014  18.645  0.00  0.00    +0.000 A 
ATOM     19  C   UNL     1       1.704  13.607  18.235  0.00  0.00    +0.000 A 
ATOM     20  C   UNL     1       2.723  13.837  19.156  0.00  0.00    +0.000 A 
ATOM     21  C   UNL     1       2.540  13.467  20.483  0.00  0.00    +0.000 A 
ATOM     22  C   UNL     1       1.354  12.873  20.901  0.00  0.00    +0.000 A 
BRANCH  21  23
ATOM     23  O   UNL     1       3.512  13.663  21.418  0.00  0.00    +0.000 OA
ATOM     24  H   UNL     1       4.378  13.556  20.988  0.00  0.00    +0.000 HD
ENDBRANCH  21  23
ENDBRANCH   9  17
BRANCH   1  25
ATOM     25  C   UNL     1      -2.216  14.101  21.193  0.00  0.00    +0.000 C 
BRANCH  25  27
ATOM     26  C   UNL     1      -0.703  16.091  20.792  0.00  0.00    +0.000 C 
ATOM     27  C   UNL     1      -1.371  15.201  21.828  0.00  0.00    +0.000 C 
ENDBRANCH  25  27
ENDBRANCH   1  25
TORSDOF 5
ENDMDL
