MODEL 1
REMARK VINA RESULT:      -7.1      0.000      0.000
REMARK  Name = 
REMARK  4 active torsions:
REMARK  status: ('A' for Active; 'I' for Inactive)
REMARK    1  A    between atoms: C_4  and  C_5
REMARK    2  A    between atoms: C_5  and  S_6
REMARK    3  A    between atoms: S_6  and  C_7
REMARK    4  A    between atoms: C_16  and  O_17
REMARK                            x       y       z     vdW  Elec       q    Type
REMARK                         _______ _______ _______ _____ _____    ______ ____
ROOT
ATOM      1  O   UNL     1       3.480   1.163  18.414  0.00  0.00    +0.000 OA
ATOM      2  C   UNL     1       3.507   2.371  18.214  0.00  0.00    +0.000 A 
ATOM      3  C   UNL     1       4.153   2.922  17.015  0.00  0.00    +0.000 A 
ATOM      4  C   UNL     1       4.196   4.227  16.686  0.00  0.00    +0.000 A 
ATOM      5  C   UNL     1       3.613   5.173  17.664  0.00  0.00    +0.000 A 
ATOM      6  C   UNL     1       3.631   6.571  17.536  0.00  0.00    +0.000 A 
ATOM      7  C   UNL     1       3.063   7.401  18.521  0.00  0.00    +0.000 A 
ATOM      8  C   UNL     1       2.474   6.840  19.649  0.00  0.00    +0.000 A 
ATOM      9  C   UNL     1       2.439   5.466  19.809  0.00  0.00    +0.000 A 
ATOM     10  C   UNL     1       3.010   4.659  18.822  0.00  0.00    +0.000 A 
ATOM     11  O   UNL     1       2.942   3.278  19.080  0.00  0.00    +0.000 OA
ENDROOT
BRANCH   8  12
ATOM     12  O   UNL     1       1.918   7.605  20.631  0.00  0.00    +0.000 OA
ATOM     13  H   UNL     1       2.589   8.210  20.986  0.00  0.00    +0.000 HD
ENDBRANCH   8  12
BRANCH   4  14
ATOM     14  C   UNL     1       4.840   4.703  15.385  0.00  0.00    +0.000 C 
BRANCH  14  15
ATOM     15  S   UNL     1       6.678   4.530  15.432  0.00  0.00    +0.000 S 
BRANCH  15  16
ATOM     16  C   UNL     1       7.189   5.539  16.813  0.00  0.00    +0.000 A 
ATOM     17  C   UNL     1       7.599   4.880  17.984  0.00  0.00    +0.000 A 
ATOM     18  C   UNL     1       8.091   5.596  19.079  0.00  0.00    +0.000 A 
ATOM     19  C   UNL     1       8.188   6.982  19.013  0.00  0.00    +0.000 A 
ATOM     20  C   UNL     1       7.789   7.648  17.853  0.00  0.00    +0.000 A 
ATOM     21  C   UNL     1       7.294   6.930  16.757  0.00  0.00    +0.000 A 
ENDBRANCH  15  16
ENDBRANCH  14  15
ENDBRANCH   4  14
TORSDOF 4
ENDMDL
MODEL 2
REMARK VINA RESULT:      -7.0      2.311      4.407
REMARK  Name = 
REMARK  4 active torsions:
REMARK  status: ('A' for Active; 'I' for Inactive)
REMARK    1  A    between atoms: C_4  and  C_5
REMARK    2  A    between atoms: C_5  and  S_6
REMARK    3  A    between atoms: S_6  and  C_7
REMARK    4  A    between atoms: C_16  and  O_17
REMARK                            x       y       z     vdW  Elec       q    Type
REMARK                         _______ _______ _______ _____ _____    ______ ____
ROOT
ATOM      1  O   UNL     1       2.707   8.082  17.911  0.00  0.00    +0.000 OA
ATOM      2  C   UNL     1       3.044   6.968  18.294  0.00  0.00    +0.000 A 
ATOM      3  C   UNL     1       4.177   6.268  17.672  0.00  0.00    +0.000 A 
ATOM      4  C   UNL     1       4.649   5.066  18.050  0.00  0.00    +0.000 A 
ATOM      5  C   UNL     1       3.903   4.372  19.126  0.00  0.00    +0.000 A 
ATOM      6  C   UNL     1       4.195   3.085  19.602  0.00  0.00    +0.000 A 
ATOM      7  C   UNL     1       3.425   2.493  20.621  0.00  0.00    +0.000 A 
ATOM      8  C   UNL     1       2.352   3.183  21.173  0.00  0.00    +0.000 A 
ATOM      9  C   UNL     1       2.035   4.454  20.728  0.00  0.00    +0.000 A 
ATOM     10  C   UNL     1       2.808   5.024  19.714  0.00  0.00    +0.000 A 
ATOM     11  O   UNL     1       2.400   6.309  19.316  0.00  0.00    +0.000 OA
ENDROOT
BRANCH   8  12
ATOM     12  O   UNL     1       1.576   2.647  22.157  0.00  0.00    +0.000 OA
ATOM     13  H   UNL     1       1.152   1.838  21.828  0.00  0.00    +0.000 HD
ENDBRANCH   8  12
BRANCH   4  14
ATOM     14  C   UNL     1       5.872   4.440  17.382  0.00  0.00    +0.000 C 
BRANCH  14  15
ATOM     15  S   UNL     1       6.735   5.642  16.278  0.00  0.00    +0.000 S 
BRANCH  15  16
ATOM     16  C   UNL     1       6.578   4.941  14.643  0.00  0.00    +0.000 A 
ATOM     17  C   UNL     1       7.594   5.222  13.715  0.00  0.00    +0.000 A 
ATOM     18  C   UNL     1       7.586   4.644  12.441  0.00  0.00    +0.000 A 
ATOM     19  C   UNL     1       6.565   3.769  12.084  0.00  0.00    +0.000 A 
ATOM     20  C   UNL     1       5.552   3.479  13.000  0.00  0.00    +0.000 A 
ATOM     21  C   UNL     1       5.560   4.060  14.274  0.00  0.00    +0.000 A 
ENDBRANCH  15  16
ENDBRANCH  14  15
ENDBRANCH   4  14
TORSDOF 4
ENDMDL
MODEL 3
REMARK VINA RESULT:      -7.0      0.981      1.508
REMARK  Name = 
REMARK  4 active torsions:
REMARK  status: ('A' for Active; 'I' for Inactive)
REMARK    1  A    between atoms: C_4  and  C_5
REMARK    2  A    between atoms: C_5  and  S_6
REMARK    3  A    between atoms: S_6  and  C_7
REMARK    4  A    between atoms: C_16  and  O_17
REMARK                            x       y       z     vdW  Elec       q    Type
REMARK                         _______ _______ _______ _____ _____    ______ ____
ROOT
ATOM      1  O   UNL     1       3.839   2.181  20.419  0.00  0.00    +0.000 OA
ATOM      2  C   UNL     1       3.673   3.208  19.773  0.00  0.00    +0.000 A 
ATOM      3  C   UNL     1       4.152   3.312  18.388  0.00  0.00    +0.000 A 
ATOM      4  C   UNL     1       3.979   4.378  17.584  0.00  0.00    +0.000 A 
ATOM      5  C   UNL     1       3.324   5.561  18.188  0.00  0.00    +0.000 A 
ATOM      6  C   UNL     1       3.124   6.787  17.537  0.00  0.00    +0.000 A 
ATOM      7  C   UNL     1       2.502   7.868  18.190  0.00  0.00    +0.000 A 
ATOM      8  C   UNL     1       2.077   7.733  19.507  0.00  0.00    +0.000 A 
ATOM      9  C   UNL     1       2.258   6.539  20.181  0.00  0.00    +0.000 A 
ATOM     10  C   UNL     1       2.879   5.479  19.517  0.00  0.00    +0.000 A 
ATOM     11  O   UNL     1       3.035   4.313  20.288  0.00  0.00    +0.000 OA
ENDROOT
BRANCH   8  12
ATOM     12  O   UNL     1       1.476   8.755  20.181  0.00  0.00    +0.000 OA
ATOM     13  H   UNL     1       1.671   8.673  21.129  0.00  0.00    +0.000 HD
ENDBRANCH   8  12
BRANCH   4  14
ATOM     14  C   UNL     1       4.460   4.374  16.134  0.00  0.00    +0.000 C 
BRANCH  14  15
ATOM     15  S   UNL     1       6.263   3.992  16.017  0.00  0.00    +0.000 S 
BRANCH  15  16
ATOM     16  C   UNL     1       7.048   5.204  17.066  0.00  0.00    +0.000 A 
ATOM     17  C   UNL     1       7.046   6.539  16.632  0.00  0.00    +0.000 A 
ATOM     18  C   UNL     1       7.567   7.559  17.434  0.00  0.00    +0.000 A 
ATOM     19  C   UNL     1       8.088   7.255  18.688  0.00  0.00    +0.000 A 
ATOM     20  C   UNL     1       8.091   5.933  19.133  0.00  0.00    +0.000 A 
ATOM     21  C   UNL     1       7.572   4.912  18.327  0.00  0.00    +0.000 A 
ENDBRANCH  15  16
ENDBRANCH  14  15
ENDBRANCH   4  14
TORSDOF 4
ENDMDL
MODEL 4
REMARK VINA RESULT:      -7.0      2.352      4.328
REMARK  Name = 
REMARK  4 active torsions:
REMARK  status: ('A' for Active; 'I' for Inactive)
REMARK    1  A    between atoms: C_4  and  C_5
REMARK    2  A    between atoms: C_5  and  S_6
REMARK    3  A    between atoms: S_6  and  C_7
REMARK    4  A    between atoms: C_16  and  O_17
REMARK                            x       y       z     vdW  Elec       q    Type
REMARK                         _______ _______ _______ _____ _____    ______ ____
ROOT
ATOM      1  O   UNL     1       2.609   8.151  17.892  0.00  0.00    +0.000 OA
ATOM      2  C   UNL     1       2.936   7.036  18.279  0.00  0.00    +0.000 A 
ATOM      3  C   UNL     1       4.041   6.310  17.638  0.00  0.00    +0.000 A 
ATOM      4  C   UNL     1       4.502   5.104  18.018  0.00  0.00    +0.000 A 
ATOM      5  C   UNL     1       3.771   4.434  19.118  0.00  0.00    +0.000 A 
ATOM      6  C   UNL     1       4.052   3.147  19.601  0.00  0.00    +0.000 A 
ATOM      7  C   UNL     1       3.297   2.579  20.645  0.00  0.00    +0.000 A 
ATOM      8  C   UNL     1       2.250   3.293  21.214  0.00  0.00    +0.000 A 
ATOM      9  C   UNL     1       1.943   4.564  20.764  0.00  0.00    +0.000 A 
ATOM     10  C   UNL     1       2.702   5.111  19.726  0.00  0.00    +0.000 A 
ATOM     11  O   UNL     1       2.306   6.399  19.323  0.00  0.00    +0.000 OA
ENDROOT
BRANCH   8  12
ATOM     12  O   UNL     1       1.489   2.780  22.222  0.00  0.00    +0.000 OA
ATOM     13  H   UNL     1       0.594   2.601  21.891  0.00  0.00    +0.000 HD
ENDBRANCH   8  12
BRANCH   4  14
ATOM     14  C   UNL     1       5.698   4.450  17.328  0.00  0.00    +0.000 C 
BRANCH  14  15
ATOM     15  S   UNL     1       6.642   5.664  16.306  0.00  0.00    +0.000 S 
BRANCH  15  16
ATOM     16  C   UNL     1       6.712   4.925  14.682  0.00  0.00    +0.000 A 
ATOM     17  C   UNL     1       5.679   4.043  14.324  0.00  0.00    +0.000 A 
ATOM     18  C   UNL     1       5.618   3.488  13.042  0.00  0.00    +0.000 A 
ATOM     19  C   UNL     1       6.585   3.817  12.098  0.00  0.00    +0.000 A 
ATOM     20  C   UNL     1       7.614   4.697  12.440  0.00  0.00    +0.000 A 
ATOM     21  C   UNL     1       7.676   5.250  13.725  0.00  0.00    +0.000 A 
ENDBRANCH  15  16
ENDBRANCH  14  15
ENDBRANCH   4  14
TORSDOF 4
ENDMDL
MODEL 5
REMARK VINA RESULT:      -6.9      1.510      3.103
REMARK  Name = 
REMARK  4 active torsions:
REMARK  status: ('A' for Active; 'I' for Inactive)
REMARK    1  A    between atoms: C_4  and  C_5
REMARK    2  A    between atoms: C_5  and  S_6
REMARK    3  A    between atoms: S_6  and  C_7
REMARK    4  A    between atoms: C_16  and  O_17
REMARK                            x       y       z     vdW  Elec       q    Type
REMARK                         _______ _______ _______ _____ _____    ______ ____
ROOT
ATOM      1  O   UNL     1       2.657   8.344  18.143  0.00  0.00    +0.000 OA
ATOM      2  C   UNL     1       2.827   7.151  18.365  0.00  0.00    +0.000 A 
ATOM      3  C   UNL     1       3.491   6.288  17.379  0.00  0.00    +0.000 A 
ATOM      4  C   UNL     1       3.762   4.980  17.549  0.00  0.00    +0.000 A 
ATOM      5  C   UNL     1       3.270   4.362  18.802  0.00  0.00    +0.000 A 
ATOM      6  C   UNL     1       3.387   3.001  19.124  0.00  0.00    +0.000 A 
ATOM      7  C   UNL     1       2.880   2.492  20.335  0.00  0.00    +0.000 A 
ATOM      8  C   UNL     1       2.244   3.340  21.235  0.00  0.00    +0.000 A 
ATOM      9  C   UNL     1       2.110   4.687  20.950  0.00  0.00    +0.000 A 
ATOM     10  C   UNL     1       2.618   5.174  19.743  0.00  0.00    +0.000 A 
ATOM     11  O   UNL     1       2.419   6.550  19.534  0.00  0.00    +0.000 OA
ENDROOT
BRANCH   8  12
ATOM     12  O   UNL     1       1.732   2.890  22.415  0.00  0.00    +0.000 OA
ATOM     13  H   UNL     1       2.432   2.884  23.088  0.00  0.00    +0.000 HD
ENDBRANCH   8  12
BRANCH   4  14
ATOM     14  C   UNL     1       4.511   4.174  16.490  0.00  0.00    +0.000 C 
BRANCH  14  15
ATOM     15  S   UNL     1       5.774   5.201  15.618  0.00  0.00    +0.000 S 
BRANCH  15  16
ATOM     16  C   UNL     1       6.705   5.975  16.930  0.00  0.00    +0.000 A 
ATOM     17  C   UNL     1       7.173   5.153  17.968  0.00  0.00    +0.000 A 
ATOM     18  C   UNL     1       7.979   5.668  18.988  0.00  0.00    +0.000 A 
ATOM     19  C   UNL     1       8.336   7.013  18.976  0.00  0.00    +0.000 A 
ATOM     20  C   UNL     1       7.881   7.838  17.947  0.00  0.00    +0.000 A 
ATOM     21  C   UNL     1       7.072   7.322  16.927  0.00  0.00    +0.000 A 
ENDBRANCH  15  16
ENDBRANCH  14  15
ENDBRANCH   4  14
TORSDOF 4
ENDMDL
MODEL 6
REMARK VINA RESULT:      -6.8      3.085      5.820
REMARK  Name = 
REMARK  4 active torsions:
REMARK  status: ('A' for Active; 'I' for Inactive)
REMARK    1  A    between atoms: C_4  and  C_5
REMARK    2  A    between atoms: C_5  and  S_6
REMARK    3  A    between atoms: S_6  and  C_7
REMARK    4  A    between atoms: C_16  and  O_17
REMARK                            x       y       z     vdW  Elec       q    Type
REMARK                         _______ _______ _______ _____ _____    ______ ____
ROOT
ATOM      1  O   UNL     1       7.973   5.605  19.840  0.00  0.00    +0.000 OA
ATOM      2  C   UNL     1       7.250   5.341  18.887  0.00  0.00    +0.000 A 
ATOM      3  C   UNL     1       5.826   5.039  19.084  0.00  0.00    +0.000 A 
ATOM      4  C   UNL     1       4.943   4.781  18.101  0.00  0.00    +0.000 A 
ATOM      5  C   UNL     1       5.487   4.722  16.724  0.00  0.00    +0.000 A 
ATOM      6  C   UNL     1       4.743   4.394  15.581  0.00  0.00    +0.000 A 
ATOM      7  C   UNL     1       5.343   4.347  14.308  0.00  0.00    +0.000 A 
ATOM      8  C   UNL     1       6.697   4.626  14.167  0.00  0.00    +0.000 A 
ATOM      9  C   UNL     1       7.463   4.952  15.272  0.00  0.00    +0.000 A 
ATOM     10  C   UNL     1       6.851   4.991  16.527  0.00  0.00    +0.000 A 
ATOM     11  O   UNL     1       7.711   5.315  17.591  0.00  0.00    +0.000 OA
ENDROOT
BRANCH   8  12
ATOM     12  O   UNL     1       7.321   4.587  12.956  0.00  0.00    +0.000 OA
ATOM     13  H   UNL     1       8.173   4.130  13.047  0.00  0.00    +0.000 HD
ENDBRANCH   8  12
BRANCH   4  14
ATOM     14  C   UNL     1       3.465   4.535  18.396  0.00  0.00    +0.000 C 
BRANCH  14  15
ATOM     15  S   UNL     1       2.954   5.297  19.999  0.00  0.00    +0.000 S 
BRANCH  15  16
ATOM     16  C   UNL     1       2.377   6.927  19.557  0.00  0.00    +0.000 A 
ATOM     17  C   UNL     1       2.532   7.332  18.221  0.00  0.00    +0.000 A 
ATOM     18  C   UNL     1       2.033   8.561  17.777  0.00  0.00    +0.000 A 
ATOM     19  C   UNL     1       1.362   9.396  18.665  0.00  0.00    +0.000 A 
ATOM     20  C   UNL     1       1.196   9.002  19.993  0.00  0.00    +0.000 A 
ATOM     21  C   UNL     1       1.700   7.773  20.437  0.00  0.00    +0.000 A 
ENDBRANCH  15  16
ENDBRANCH  14  15
ENDBRANCH   4  14
TORSDOF 4
ENDMDL
MODEL 7
REMARK VINA RESULT:      -6.8      2.883      5.466
REMARK  Name = 
REMARK  4 active torsions:
REMARK  status: ('A' for Active; 'I' for Inactive)
REMARK    1  A    between atoms: C_4  and  C_5
REMARK    2  A    between atoms: C_5  and  S_6
REMARK    3  A    between atoms: S_6  and  C_7
REMARK    4  A    between atoms: C_16  and  O_17
REMARK                            x       y       z     vdW  Elec       q    Type
REMARK                         _______ _______ _______ _____ _____    ______ ____
ROOT
ATOM      1  O   UNL     1       7.111   5.541  20.099  0.00  0.00    +0.000 OA
ATOM      2  C   UNL     1       6.692   5.126  19.025  0.00  0.00    +0.000 A 
ATOM      3  C   UNL     1       5.561   4.191  18.968  0.00  0.00    +0.000 A 
ATOM      4  C   UNL     1       5.002   3.715  17.840  0.00  0.00    +0.000 A 
ATOM      5  C   UNL     1       5.645   4.113  16.566  0.00  0.00    +0.000 A 
ATOM      6  C   UNL     1       5.256   3.661  15.296  0.00  0.00    +0.000 A 
ATOM      7  C   UNL     1       5.932   4.080  14.134  0.00  0.00    +0.000 A 
ATOM      8  C   UNL     1       7.008   4.955  14.232  0.00  0.00    +0.000 A 
ATOM      9  C   UNL     1       7.420   5.421  15.468  0.00  0.00    +0.000 A 
ATOM     10  C   UNL     1       6.739   4.992  16.610  0.00  0.00    +0.000 A 
ATOM     11  O   UNL     1       7.239   5.504  17.820  0.00  0.00    +0.000 OA
ENDROOT
BRANCH   8  12
ATOM     12  O   UNL     1       7.695   5.382  13.135  0.00  0.00    +0.000 OA
ATOM     13  H   UNL     1       8.149   6.215  13.344  0.00  0.00    +0.000 HD
ENDBRANCH   8  12
BRANCH   4  14
ATOM     14  C   UNL     1       3.787   2.790  17.876  0.00  0.00    +0.000 C 
BRANCH  14  15
ATOM     15  S   UNL     1       2.251   3.660  17.335  0.00  0.00    +0.000 S 
BRANCH  15  16
ATOM     16  C   UNL     1       2.131   5.075  18.418  0.00  0.00    +0.000 A 
ATOM     17  C   UNL     1       1.769   4.841  19.755  0.00  0.00    +0.000 A 
ATOM     18  C   UNL     1       1.734   5.885  20.685  0.00  0.00    +0.000 A 
ATOM     19  C   UNL     1       2.071   7.175  20.290  0.00  0.00    +0.000 A 
ATOM     20  C   UNL     1       2.438   7.419  18.966  0.00  0.00    +0.000 A 
ATOM     21  C   UNL     1       2.470   6.373  18.034  0.00  0.00    +0.000 A 
ENDBRANCH  15  16
ENDBRANCH  14  15
ENDBRANCH   4  14
TORSDOF 4
ENDMDL
MODEL 8
REMARK VINA RESULT:      -6.8      2.857      4.971
REMARK  Name = 
REMARK  4 active torsions:
REMARK  status: ('A' for Active; 'I' for Inactive)
REMARK    1  A    between atoms: C_4  and  C_5
REMARK    2  A    between atoms: C_5  and  S_6
REMARK    3  A    between atoms: S_6  and  C_7
REMARK    4  A    between atoms: C_16  and  O_17
REMARK                            x       y       z     vdW  Elec       q    Type
REMARK                         _______ _______ _______ _____ _____    ______ ____
ROOT
ATOM      1  O   UNL     1       5.411   4.460  13.506  0.00  0.00    +0.000 OA
ATOM      2  C   UNL     1       5.547   4.539  14.721  0.00  0.00    +0.000 A 
ATOM      3  C   UNL     1       4.722   3.726  15.625  0.00  0.00    +0.000 A 
ATOM      4  C   UNL     1       4.826   3.710  16.967  0.00  0.00    +0.000 A 
ATOM      5  C   UNL     1       5.799   4.654  17.565  0.00  0.00    +0.000 A 
ATOM      6  C   UNL     1       5.995   4.836  18.943  0.00  0.00    +0.000 A 
ATOM      7  C   UNL     1       6.934   5.767  19.428  0.00  0.00    +0.000 A 
ATOM      8  C   UNL     1       7.684   6.527  18.539  0.00  0.00    +0.000 A 
ATOM      9  C   UNL     1       7.517   6.374  17.174  0.00  0.00    +0.000 A 
ATOM     10  C   UNL     1       6.579   5.448  16.711  0.00  0.00    +0.000 A 
ATOM     11  O   UNL     1       6.466   5.375  15.311  0.00  0.00    +0.000 OA
ENDROOT
BRANCH   8  12
ATOM     12  O   UNL     1       8.599   7.443  18.964  0.00  0.00    +0.000 OA
ATOM     13  H   UNL     1       8.981   7.150  19.807  0.00  0.00    +0.000 HD
ENDBRANCH   8  12
BRANCH   4  14
ATOM     14  C   UNL     1       3.964   2.786  17.826  0.00  0.00    +0.000 C 
BRANCH  14  15
ATOM     15  S   UNL     1       2.183   3.271  17.772  0.00  0.00    +0.000 S 
BRANCH  15  16
ATOM     16  C   UNL     1       2.125   4.857  18.590  0.00  0.00    +0.000 A 
ATOM     17  C   UNL     1       1.792   4.874  19.954  0.00  0.00    +0.000 A 
ATOM     18  C   UNL     1       1.806   6.066  20.685  0.00  0.00    +0.000 A 
ATOM     19  C   UNL     1       2.163   7.257  20.060  0.00  0.00    +0.000 A 
ATOM     20  C   UNL     1       2.501   7.252  18.706  0.00  0.00    +0.000 A 
ATOM     21  C   UNL     1       2.485   6.058  17.974  0.00  0.00    +0.000 A 
ENDBRANCH  15  16
ENDBRANCH  14  15
ENDBRANCH   4  14
TORSDOF 4
ENDMDL
MODEL 9
REMARK VINA RESULT:      -6.8      3.505      6.446
REMARK  Name = 
REMARK  4 active torsions:
REMARK  status: ('A' for Active; 'I' for Inactive)
REMARK    1  A    between atoms: C_4  and  C_5
REMARK    2  A    between atoms: C_5  and  S_6
REMARK    3  A    between atoms: S_6  and  C_7
REMARK    4  A    between atoms: C_16  and  O_17
REMARK                            x       y       z     vdW  Elec       q    Type
REMARK                         _______ _______ _______ _____ _____    ______ ____
ROOT
ATOM      1  O   UNL     1       7.803   6.955  18.033  0.00  0.00    +0.000 OA
ATOM      2  C   UNL     1       7.179   6.295  17.212  0.00  0.00    +0.000 A 
ATOM      3  C   UNL     1       5.870   5.717  17.547  0.00  0.00    +0.000 A 
ATOM      4  C   UNL     1       5.091   5.016  16.702  0.00  0.00    +0.000 A 
ATOM      5  C   UNL     1       5.651   4.746  15.358  0.00  0.00    +0.000 A 
ATOM      6  C   UNL     1       5.025   3.971  14.370  0.00  0.00    +0.000 A 
ATOM      7  C   UNL     1       5.635   3.753  13.119  0.00  0.00    +0.000 A 
ATOM      8  C   UNL     1       6.882   4.305  12.847  0.00  0.00    +0.000 A 
ATOM      9  C   UNL     1       7.529   5.073  13.798  0.00  0.00    +0.000 A 
ATOM     10  C   UNL     1       6.909   5.277  15.033  0.00  0.00    +0.000 A 
ATOM     11  O   UNL     1       7.650   6.055  15.941  0.00  0.00    +0.000 OA
ENDROOT
BRANCH   8  12
ATOM     12  O   UNL     1       7.512   4.114  11.654  0.00  0.00    +0.000 OA
ATOM     13  H   UNL     1       8.147   4.834  11.506  0.00  0.00    +0.000 HD
ENDBRANCH   8  12
BRANCH   4  14
ATOM     14  C   UNL     1       3.715   4.503  17.122  0.00  0.00    +0.000 C 
BRANCH  14  15
ATOM     15  S   UNL     1       3.798   2.773  17.760  0.00  0.00    +0.000 S 
BRANCH  15  16
ATOM     16  C   UNL     1       2.768   2.783  19.218  0.00  0.00    +0.000 A 
ATOM     17  C   UNL     1       3.386   2.529  20.454  0.00  0.00    +0.000 A 
ATOM     18  C   UNL     1       2.665   2.600  21.649  0.00  0.00    +0.000 A 
ATOM     19  C   UNL     1       1.315   2.936  21.624  0.00  0.00    +0.000 A 
ATOM     20  C   UNL     1       0.690   3.196  20.403  0.00  0.00    +0.000 A 
ATOM     21  C   UNL     1       1.413   3.122  19.206  0.00  0.00    +0.000 A 
ENDBRANCH  15  16
ENDBRANCH  14  15
ENDBRANCH   4  14
TORSDOF 4
ENDMDL
