MODEL 1
REMARK VINA RESULT:      -8.3      0.000      0.000
REMARK  Name = 
REMARK  9 active torsions:
REMARK  status: ('A' for Active; 'I' for Inactive)
REMARK    1  A    between atoms: C_1  and  C_2
REMARK    2  A    between atoms: C_2  and  C_3
REMARK    3  A    between atoms: N_5  and  C_6
REMARK    4  A    between atoms: C_14  and  C_15
REMARK    5  A    between atoms: C_18  and  N_19
REMARK    6  A    between atoms: C_21  and  C_22
REMARK    7  A    between atoms: C_24  and  C_25
REMARK    8  A    between atoms: C_30  and  O_31
REMARK    9  A    between atoms: O_31  and  C_32
REMARK                            x       y       z     vdW  Elec       q    Type
REMARK                         _______ _______ _______ _____ _____    ______ ____
ROOT
ATOM      1  C   UNL     1       4.120   3.244  19.439  0.00  0.00    +0.000 A 
ATOM      2  N   UNL     1       5.236   3.768  18.924  0.00  0.00    +0.000 NA
ATOM      3  N   UNL     1       5.041   5.123  18.952  0.00  0.00    +0.000 N 
ATOM      4  C   UNL     1       3.787   5.443  19.475  0.00  0.00    +0.000 A 
ATOM      5  N   UNL     1       3.249   6.671  19.659  0.00  0.00    +0.000 NA
ATOM      6  C   UNL     1       2.005   6.678  20.185  0.00  0.00    +0.000 A 
ATOM      7  C   UNL     1       1.309   5.518  20.529  0.00  0.00    +0.000 A 
ATOM      8  C   UNL     1       1.873   4.262  20.320  0.00  0.00    +0.000 A 
ATOM      9  C   UNL     1       3.170   4.235  19.779  0.00  0.00    +0.000 A 
ENDROOT
BRANCH   3  10
ATOM     10  C   UNL     1       6.075   5.994  18.483  0.00  0.00    +0.000 A 
ATOM     11  C   UNL     1       7.306   6.026  19.162  0.00  0.00    +0.000 A 
ATOM     12  C   UNL     1       8.337   6.863  18.726  0.00  0.00    +0.000 A 
ATOM     13  C   UNL     1       8.149   7.681  17.614  0.00  0.00    +0.000 A 
ATOM     14  C   UNL     1       6.932   7.660  16.937  0.00  0.00    +0.000 A 
ATOM     15  C   UNL     1       5.900   6.821  17.365  0.00  0.00    +0.000 A 
ENDBRANCH   3  10
BRANCH   6  16
ATOM     16  C   UNL     1       1.402   8.008  20.408  0.00  0.00    +0.000 A 
ATOM     17  C   UNL     1       1.439   8.998  19.417  0.00  0.00    +0.000 A 
ATOM     18  C   UNL     1       0.793  10.227  19.589  0.00  0.00    +0.000 A 
ATOM     19  C   UNL     1       0.103  10.547  20.762  0.00  0.00    +0.000 A 
ATOM     20  C   UNL     1       0.101   9.569  21.766  0.00  0.00    +0.000 A 
ATOM     21  C   UNL     1       0.736   8.326  21.597  0.00  0.00    +0.000 A 
BRANCH  19  22
ATOM     22  N   UNL     1      -0.520  11.764  20.919  0.00  0.00    +0.000 N 
ATOM     23  C   UNL     1       0.076  13.044  20.510  0.00  0.00    +0.000 C 
ATOM     24  C   UNL     1      -0.899  13.800  19.569  0.00  0.00    +0.000 C 
ATOM     25  C   UNL     1      -0.325  15.161  19.189  0.00  0.00    +0.000 C 
ATOM     26  N   UNL     1      -2.236  14.000  20.184  0.00  0.00    +0.000 NA
ATOM     27  C   UNL     1      -2.792  12.689  20.592  0.00  0.00    +0.000 C 
ATOM     28  C   UNL     1      -4.144  12.906  21.266  0.00  0.00    +0.000 C 
ATOM     29  C   UNL     1      -1.849  11.894  21.535  0.00  0.00    +0.000 C 
ATOM     30  H   UNL     1      -2.856  14.425  19.496  0.00  0.00    +0.000 HD
ENDBRANCH  19  22
ENDBRANCH   6  16
BRANCH   1  32
ATOM     31  C   UNL     1       3.606   1.048  18.336  0.00  0.00    +0.000 C 
ATOM     32  C   UNL     1       4.006   1.765  19.615  0.00  0.00    +0.000 C 
ENDBRANCH   1  32
BRANCH   8  33
ATOM     33  O   UNL     1       1.259   3.072  20.610  0.00  0.00    +0.000 OA
ATOM     34  C   UNL     1       1.411   2.577  21.936  0.00  0.00    +0.000 C 
ENDBRANCH   8  33
TORSDOF 5
ENDMDL
MODEL 2
REMARK VINA RESULT:      -8.2      0.880      1.629
REMARK  Name = 
REMARK  9 active torsions:
REMARK  status: ('A' for Active; 'I' for Inactive)
REMARK    1  A    between atoms: C_1  and  C_2
REMARK    2  A    between atoms: C_2  and  C_3
REMARK    3  A    between atoms: N_5  and  C_6
REMARK    4  A    between atoms: C_14  and  C_15
REMARK    5  A    between atoms: C_18  and  N_19
REMARK    6  A    between atoms: C_21  and  C_22
REMARK    7  A    between atoms: C_24  and  C_25
REMARK    8  A    between atoms: C_30  and  O_31
REMARK    9  A    between atoms: O_31  and  C_32
REMARK                            x       y       z     vdW  Elec       q    Type
REMARK                         _______ _______ _______ _____ _____    ______ ____
ROOT
ATOM      1  C   UNL     1       4.130   3.257  19.481  0.00  0.00    +0.000 A 
ATOM      2  N   UNL     1       5.247   3.800  18.986  0.00  0.00    +0.000 NA
ATOM      3  N   UNL     1       5.027   5.151  19.006  0.00  0.00    +0.000 N 
ATOM      4  C   UNL     1       3.758   5.450  19.503  0.00  0.00    +0.000 A 
ATOM      5  N   UNL     1       3.194   6.669  19.672  0.00  0.00    +0.000 NA
ATOM      6  C   UNL     1       1.940   6.654  20.173  0.00  0.00    +0.000 A 
ATOM      7  C   UNL     1       1.258   5.483  20.507  0.00  0.00    +0.000 A 
ATOM      8  C   UNL     1       1.849   4.237  20.314  0.00  0.00    +0.000 A 
ATOM      9  C   UNL     1       3.156   4.231  19.799  0.00  0.00    +0.000 A 
ENDROOT
BRANCH   3  10
ATOM     10  C   UNL     1       6.055   6.039  18.555  0.00  0.00    +0.000 A 
ATOM     11  C   UNL     1       5.795   6.892  17.469  0.00  0.00    +0.000 A 
ATOM     12  C   UNL     1       6.777   7.773  17.006  0.00  0.00    +0.000 A 
ATOM     13  C   UNL     1       8.027   7.808  17.618  0.00  0.00    +0.000 A 
ATOM     14  C   UNL     1       8.297   6.964  18.692  0.00  0.00    +0.000 A 
ATOM     15  C   UNL     1       7.317   6.084  19.162  0.00  0.00    +0.000 A 
ENDBRANCH   3  10
BRANCH   6  16
ATOM     16  C   UNL     1       1.308   7.974  20.380  0.00  0.00    +0.000 A 
ATOM     17  C   UNL     1       1.386   8.977  19.404  0.00  0.00    +0.000 A 
ATOM     18  C   UNL     1       0.715  10.196  19.556  0.00  0.00    +0.000 A 
ATOM     19  C   UNL     1      -0.040  10.492  20.694  0.00  0.00    +0.000 A 
ATOM     20  C   UNL     1      -0.084   9.501  21.684  0.00  0.00    +0.000 A 
ATOM     21  C   UNL     1       0.575   8.268  21.535  0.00  0.00    +0.000 A 
BRANCH  19  22
ATOM     22  N   UNL     1      -0.687  11.699  20.832  0.00  0.00    +0.000 N 
ATOM     23  C   UNL     1      -1.851  12.097  20.028  0.00  0.00    +0.000 C 
ATOM     24  C   UNL     1      -3.019  12.508  20.963  0.00  0.00    +0.000 C 
ATOM     25  C   UNL     1      -4.213  12.989  20.145  0.00  0.00    +0.000 C 
ATOM     26  N   UNL     1      -2.630  13.579  21.915  0.00  0.00    +0.000 NA
ATOM     27  C   UNL     1      -1.448  13.142  22.693  0.00  0.00    +0.000 C 
ATOM     28  C   UNL     1      -1.023  14.266  23.635  0.00  0.00    +0.000 C 
ATOM     29  C   UNL     1      -0.251  12.719  21.798  0.00  0.00    +0.000 C 
ATOM     30  H   UNL     1      -3.404  13.752  22.555  0.00  0.00    +0.000 HD
ENDBRANCH  19  22
ENDBRANCH   6  16
BRANCH   1  32
ATOM     31  C   UNL     1       3.746   1.043  18.361  0.00  0.00    +0.000 C 
ATOM     32  C   UNL     1       4.040   1.777  19.659  0.00  0.00    +0.000 C 
ENDBRANCH   1  32
BRANCH   8  33
ATOM     33  O   UNL     1       1.251   3.037  20.595  0.00  0.00    +0.000 OA
ATOM     34  C   UNL     1       1.413   2.532  21.916  0.00  0.00    +0.000 C 
ENDBRANCH   8  33
TORSDOF 5
ENDMDL
MODEL 3
REMARK VINA RESULT:      -8.2      0.578      1.022
REMARK  Name = 
REMARK  9 active torsions:
REMARK  status: ('A' for Active; 'I' for Inactive)
REMARK    1  A    between atoms: C_1  and  C_2
REMARK    2  A    between atoms: C_2  and  C_3
REMARK    3  A    between atoms: N_5  and  C_6
REMARK    4  A    between atoms: C_14  and  C_15
REMARK    5  A    between atoms: C_18  and  N_19
REMARK    6  A    between atoms: C_21  and  C_22
REMARK    7  A    between atoms: C_24  and  C_25
REMARK    8  A    between atoms: C_30  and  O_31
REMARK    9  A    between atoms: O_31  and  C_32
REMARK                            x       y       z     vdW  Elec       q    Type
REMARK                         _______ _______ _______ _____ _____    ______ ____
ROOT
ATOM      1  C   UNL     1       4.177   3.248  19.349  0.00  0.00    +0.000 A 
ATOM      2  N   UNL     1       5.276   3.812  18.837  0.00  0.00    +0.000 NA
ATOM      3  N   UNL     1       5.060   5.161  18.926  0.00  0.00    +0.000 N 
ATOM      4  C   UNL     1       3.810   5.438  19.482  0.00  0.00    +0.000 A 
ATOM      5  N   UNL     1       3.255   6.648  19.727  0.00  0.00    +0.000 NA
ATOM      6  C   UNL     1       2.020   6.612  20.272  0.00  0.00    +0.000 A 
ATOM      7  C   UNL     1       1.349   5.427  20.579  0.00  0.00    +0.000 A 
ATOM      8  C   UNL     1       1.930   4.190  20.308  0.00  0.00    +0.000 A 
ATOM      9  C   UNL     1       3.217   4.208  19.745  0.00  0.00    +0.000 A 
ENDROOT
BRANCH   3  10
ATOM     10  C   UNL     1       6.071   6.068  18.478  0.00  0.00    +0.000 A 
ATOM     11  C   UNL     1       7.312   6.092  19.137  0.00  0.00    +0.000 A 
ATOM     12  C   UNL     1       8.322   6.965  18.721  0.00  0.00    +0.000 A 
ATOM     13  C   UNL     1       8.103   7.825  17.648  0.00  0.00    +0.000 A 
ATOM     14  C   UNL     1       6.875   7.812  16.990  0.00  0.00    +0.000 A 
ATOM     15  C   UNL     1       5.864   6.938  17.399  0.00  0.00    +0.000 A 
ENDBRANCH   3  10
BRANCH   6  16
ATOM     16  C   UNL     1       1.400   7.921  20.562  0.00  0.00    +0.000 A 
ATOM     17  C   UNL     1       0.889   8.217  21.833  0.00  0.00    +0.000 A 
ATOM     18  C   UNL     1       0.382   9.485  22.138  0.00  0.00    +0.000 A 
ATOM     19  C   UNL     1       0.329  10.512  21.191  0.00  0.00    +0.000 A 
ATOM     20  C   UNL     1       0.805  10.200  19.910  0.00  0.00    +0.000 A 
ATOM     21  C   UNL     1       1.329   8.934  19.598  0.00  0.00    +0.000 A 
BRANCH  19  22
ATOM     22  N   UNL     1      -0.182  11.751  21.504  0.00  0.00    +0.000 N 
ATOM     23  C   UNL     1       0.208  12.991  20.818  0.00  0.00    +0.000 C 
ATOM     24  C   UNL     1      -1.056  13.718  20.289  0.00  0.00    +0.000 C 
ATOM     25  C   UNL     1      -0.676  15.041  19.633  0.00  0.00    +0.000 C 
ATOM     26  N   UNL     1      -2.045  13.985  21.364  0.00  0.00    +0.000 NA
ATOM     27  C   UNL     1      -2.399  12.714  22.037  0.00  0.00    +0.000 C 
ATOM     28  C   UNL     1      -3.378  13.001  23.171  0.00  0.00    +0.000 C 
ATOM     29  C   UNL     1      -1.163  11.948  22.583  0.00  0.00    +0.000 C 
ATOM     30  H   UNL     1      -2.885  14.387  20.950  0.00  0.00    +0.000 HD
ENDBRANCH  19  22
ENDBRANCH   6  16
BRANCH   1  32
ATOM     31  C   UNL     1       3.594   1.099  18.188  0.00  0.00    +0.000 C 
ATOM     32  C   UNL     1       4.090   1.762  19.463  0.00  0.00    +0.000 C 
ENDBRANCH   1  32
BRANCH   8  33
ATOM     33  O   UNL     1       1.340   2.979  20.557  0.00  0.00    +0.000 OA
ATOM     34  C   UNL     1       1.428   2.483  21.888  0.00  0.00    +0.000 C 
ENDBRANCH   8  33
TORSDOF 5
ENDMDL
MODEL 4
REMARK VINA RESULT:      -8.1      3.023      9.379
REMARK  Name = 
REMARK  9 active torsions:
REMARK  status: ('A' for Active; 'I' for Inactive)
REMARK    1  A    between atoms: C_1  and  C_2
REMARK    2  A    between atoms: C_2  and  C_3
REMARK    3  A    between atoms: N_5  and  C_6
REMARK    4  A    between atoms: C_14  and  C_15
REMARK    5  A    between atoms: C_18  and  N_19
REMARK    6  A    between atoms: C_21  and  C_22
REMARK    7  A    between atoms: C_24  and  C_25
REMARK    8  A    between atoms: C_30  and  O_31
REMARK    9  A    between atoms: O_31  and  C_32
REMARK                            x       y       z     vdW  Elec       q    Type
REMARK                         _______ _______ _______ _____ _____    ______ ____
ROOT
ATOM      1  C   UNL     1      -0.584  14.454  20.066  0.00  0.00    +0.000 A 
ATOM      2  N   UNL     1       0.548  15.144  19.892  0.00  0.00    +0.000 NA
ATOM      3  N   UNL     1       1.496  14.206  19.583  0.00  0.00    +0.000 N 
ATOM      4  C   UNL     1       0.953  12.921  19.581  0.00  0.00    +0.000 A 
ATOM      5  N   UNL     1       1.581  11.750  19.319  0.00  0.00    +0.000 NA
ATOM      6  C   UNL     1       0.799  10.652  19.396  0.00  0.00    +0.000 A 
ATOM      7  C   UNL     1      -0.561  10.695  19.710  0.00  0.00    +0.000 A 
ATOM      8  C   UNL     1      -1.187  11.907  19.990  0.00  0.00    +0.000 A 
ATOM      9  C   UNL     1      -0.391  13.063  19.910  0.00  0.00    +0.000 A 
ENDROOT
BRANCH   3  10
ATOM     10  C   UNL     1       2.837  14.622  19.310  0.00  0.00    +0.000 A 
ATOM     11  C   UNL     1       3.733  14.793  20.380  0.00  0.00    +0.000 A 
ATOM     12  C   UNL     1       5.052  15.195  20.146  0.00  0.00    +0.000 A 
ATOM     13  C   UNL     1       5.487  15.438  18.845  0.00  0.00    +0.000 A 
ATOM     14  C   UNL     1       4.605  15.276  17.779  0.00  0.00    +0.000 A 
ATOM     15  C   UNL     1       3.288  14.869  18.007  0.00  0.00    +0.000 A 
ENDBRANCH   3  10
BRANCH   6  16
ATOM     16  C   UNL     1       1.459   9.364  19.100  0.00  0.00    +0.000 A 
ATOM     17  C   UNL     1       2.065   9.127  17.859  0.00  0.00    +0.000 A 
ATOM     18  C   UNL     1       2.769   7.944  17.605  0.00  0.00    +0.000 A 
ATOM     19  C   UNL     1       2.881   6.927  18.556  0.00  0.00    +0.000 A 
ATOM     20  C   UNL     1       2.241   7.151  19.782  0.00  0.00    +0.000 A 
ATOM     21  C   UNL     1       1.543   8.341  20.052  0.00  0.00    +0.000 A 
BRANCH  19  22
ATOM     22  N   UNL     1       3.569   5.765  18.287  0.00  0.00    +0.000 N 
ATOM     23  C   UNL     1       4.884   5.730  17.632  0.00  0.00    +0.000 C 
ATOM     24  C   UNL     1       5.885   4.931  18.508  0.00  0.00    +0.000 C 
ATOM     25  C   UNL     1       7.238   4.827  17.812  0.00  0.00    +0.000 C 
ATOM     26  N   UNL     1       5.400   3.562  18.816  0.00  0.00    +0.000 NA
ATOM     27  C   UNL     1       4.069   3.644  19.461  0.00  0.00    +0.000 C 
ATOM     28  C   UNL     1       3.554   2.233  19.730  0.00  0.00    +0.000 C 
ATOM     29  C   UNL     1       3.031   4.437  18.620  0.00  0.00    +0.000 C 
ATOM     30  H   UNL     1       6.053   3.115  19.457  0.00  0.00    +0.000 HD
ENDBRANCH  19  22
ENDBRANCH   6  16
BRANCH   1  32
ATOM     31  C   UNL     1      -2.052  15.440  21.848  0.00  0.00    +0.000 C 
ATOM     32  C   UNL     1      -1.856  15.177  20.364  0.00  0.00    +0.000 C 
ENDBRANCH   1  32
BRANCH   8  33
ATOM     33  O   UNL     1      -2.508  12.044  20.325  0.00  0.00    +0.000 OA
ATOM     34  C   UNL     1      -3.445  12.060  19.252  0.00  0.00    +0.000 C 
ENDBRANCH   8  33
TORSDOF 5
ENDMDL
MODEL 5
REMARK VINA RESULT:      -8.1      3.201     10.444
REMARK  Name = 
REMARK  9 active torsions:
REMARK  status: ('A' for Active; 'I' for Inactive)
REMARK    1  A    between atoms: C_1  and  C_2
REMARK    2  A    between atoms: C_2  and  C_3
REMARK    3  A    between atoms: N_5  and  C_6
REMARK    4  A    between atoms: C_14  and  C_15
REMARK    5  A    between atoms: C_18  and  N_19
REMARK    6  A    between atoms: C_21  and  C_22
REMARK    7  A    between atoms: C_24  and  C_25
REMARK    8  A    between atoms: C_30  and  O_31
REMARK    9  A    between atoms: O_31  and  C_32
REMARK                            x       y       z     vdW  Elec       q    Type
REMARK                         _______ _______ _______ _____ _____    ______ ____
ROOT
ATOM      1  C   UNL     1      -0.009  15.339  19.316  0.00  0.00    +0.000 A 
ATOM      2  N   UNL     1      -1.124  15.231  20.045  0.00  0.00    +0.000 NA
ATOM      3  N   UNL     1      -1.234  13.898  20.336  0.00  0.00    +0.000 N 
ATOM      4  C   UNL     1      -0.188  13.168  19.770  0.00  0.00    +0.000 A 
ATOM      5  N   UNL     1       0.037  11.836  19.847  0.00  0.00    +0.000 NA
ATOM      6  C   UNL     1       1.135  11.402  19.192  0.00  0.00    +0.000 A 
ATOM      7  C   UNL     1       1.996  12.247  18.489  0.00  0.00    +0.000 A 
ATOM      8  C   UNL     1       1.742  13.614  18.410  0.00  0.00    +0.000 A 
ATOM      9  C   UNL     1       0.606  14.086  19.090  0.00  0.00    +0.000 A 
ENDROOT
BRANCH   3  10
ATOM     10  C   UNL     1      -2.328  13.439  21.137  0.00  0.00    +0.000 A 
ATOM     11  C   UNL     1      -3.588  13.262  20.540  0.00  0.00    +0.000 A 
ATOM     12  C   UNL     1      -4.675  12.812  21.295  0.00  0.00    +0.000 A 
ATOM     13  C   UNL     1      -4.519  12.540  22.651  0.00  0.00    +0.000 A 
ATOM     14  C   UNL     1      -3.276  12.718  23.254  0.00  0.00    +0.000 A 
ATOM     15  C   UNL     1      -2.184  13.162  22.503  0.00  0.00    +0.000 A 
ENDBRANCH   3  10
BRANCH   6  16
ATOM     16  C   UNL     1       1.409   9.953  19.272  0.00  0.00    +0.000 A 
ATOM     17  C   UNL     1       1.944   9.253  18.182  0.00  0.00    +0.000 A 
ATOM     18  C   UNL     1       2.289   7.901  18.282  0.00  0.00    +0.000 A 
ATOM     19  C   UNL     1       2.094   7.168  19.456  0.00  0.00    +0.000 A 
ATOM     20  C   UNL     1       1.523   7.861  20.532  0.00  0.00    +0.000 A 
ATOM     21  C   UNL     1       1.186   9.223  20.446  0.00  0.00    +0.000 A 
BRANCH  19  22
ATOM     22  N   UNL     1       2.430   5.836  19.534  0.00  0.00    +0.000 N 
ATOM     23  C   UNL     1       2.258   5.021  20.746  0.00  0.00    +0.000 C 
ATOM     24  C   UNL     1       1.425   3.755  20.413  0.00  0.00    +0.000 C 
ATOM     25  C   UNL     1       1.293   2.864  21.643  0.00  0.00    +0.000 C 
ATOM     26  N   UNL     1       2.022   2.960  19.309  0.00  0.00    +0.000 NA
ATOM     27  C   UNL     1       2.190   3.822  18.116  0.00  0.00    +0.000 C 
ATOM     28  C   UNL     1       2.848   3.013  17.002  0.00  0.00    +0.000 C 
ATOM     29  C   UNL     1       3.018   5.104  18.401  0.00  0.00    +0.000 C 
ATOM     30  H   UNL     1       1.395   2.191  19.079  0.00  0.00    +0.000 HD
ENDBRANCH  19  22
ENDBRANCH   6  16
BRANCH   1  32
ATOM     31  C   UNL     1       1.475  17.303  19.808  0.00  0.00    +0.000 C 
ATOM     32  C   UNL     1       0.456  16.684  18.864  0.00  0.00    +0.000 C 
ENDBRANCH   1  32
BRANCH   8  33
ATOM     33  O   UNL     1       2.518  14.515  17.730  0.00  0.00    +0.000 OA
ATOM     34  C   UNL     1       3.816  14.772  18.257  0.00  0.00    +0.000 C 
ENDBRANCH   8  33
TORSDOF 5
ENDMDL
MODEL 6
REMARK VINA RESULT:      -8.1      0.465      1.275
REMARK  Name = 
REMARK  9 active torsions:
REMARK  status: ('A' for Active; 'I' for Inactive)
REMARK    1  A    between atoms: C_1  and  C_2
REMARK    2  A    between atoms: C_2  and  C_3
REMARK    3  A    between atoms: N_5  and  C_6
REMARK    4  A    between atoms: C_14  and  C_15
REMARK    5  A    between atoms: C_18  and  N_19
REMARK    6  A    between atoms: C_21  and  C_22
REMARK    7  A    between atoms: C_24  and  C_25
REMARK    8  A    between atoms: C_30  and  O_31
REMARK    9  A    between atoms: O_31  and  C_32
REMARK                            x       y       z     vdW  Elec       q    Type
REMARK                         _______ _______ _______ _____ _____    ______ ____
ROOT
ATOM      1  C   UNL     1       4.234   3.276  19.529  0.00  0.00    +0.000 A 
ATOM      2  N   UNL     1       5.356   3.815  19.043  0.00  0.00    +0.000 NA
ATOM      3  N   UNL     1       5.124   5.164  19.019  0.00  0.00    +0.000 N 
ATOM      4  C   UNL     1       3.841   5.464  19.479  0.00  0.00    +0.000 A 
ATOM      5  N   UNL     1       3.262   6.682  19.600  0.00  0.00    +0.000 NA
ATOM      6  C   UNL     1       1.998   6.670  20.074  0.00  0.00    +0.000 A 
ATOM      7  C   UNL     1       1.320   5.502  20.428  0.00  0.00    +0.000 A 
ATOM      8  C   UNL     1       1.926   4.257  20.284  0.00  0.00    +0.000 A 
ATOM      9  C   UNL     1       3.245   4.249  19.797  0.00  0.00    +0.000 A 
ENDROOT
BRANCH   3  10
ATOM     10  C   UNL     1       6.152   6.049  18.564  0.00  0.00    +0.000 A 
ATOM     11  C   UNL     1       5.907   6.871  17.451  0.00  0.00    +0.000 A 
ATOM     12  C   UNL     1       6.891   7.748  16.984  0.00  0.00    +0.000 A 
ATOM     13  C   UNL     1       8.129   7.810  17.618  0.00  0.00    +0.000 A 
ATOM     14  C   UNL     1       8.384   6.996  18.720  0.00  0.00    +0.000 A 
ATOM     15  C   UNL     1       7.402   6.121  19.194  0.00  0.00    +0.000 A 
ENDBRANCH   3  10
BRANCH   6  16
ATOM     16  C   UNL     1       1.350   7.989  20.229  0.00  0.00    +0.000 A 
ATOM     17  C   UNL     1       0.701   8.343  21.419  0.00  0.00    +0.000 A 
ATOM     18  C   UNL     1       0.164   9.622  21.604  0.00  0.00    +0.000 A 
ATOM     19  C   UNL     1       0.218  10.602  20.609  0.00  0.00    +0.000 A 
ATOM     20  C   UNL     1       0.834  10.232  19.406  0.00  0.00    +0.000 A 
ATOM     21  C   UNL     1       1.388   8.954  19.216  0.00  0.00    +0.000 A 
BRANCH  19  22
ATOM     22  N   UNL     1      -0.323  11.853  20.804  0.00  0.00    +0.000 N 
ATOM     23  C   UNL     1       0.292  13.093  20.311  0.00  0.00    +0.000 C 
ATOM     24  C   UNL     1      -0.734  13.886  19.459  0.00  0.00    +0.000 C 
ATOM     25  C   UNL     1      -0.134  15.209  18.995  0.00  0.00    +0.000 C 
ATOM     26  N   UNL     1      -1.989  14.165  20.201  0.00  0.00    +0.000 NA
ATOM     27  C   UNL     1      -2.567  12.892  20.690  0.00  0.00    +0.000 C 
ATOM     28  C   UNL     1      -3.830  13.189  21.494  0.00  0.00    +0.000 C 
ATOM     29  C   UNL     1      -1.574  12.062  21.549  0.00  0.00    +0.000 C 
ATOM     30  H   UNL     1      -2.654  14.613  19.572  0.00  0.00    +0.000 HD
ENDBRANCH  19  22
ENDBRANCH   6  16
BRANCH   1  32
ATOM     31  C   UNL     1       3.825   1.032  18.479  0.00  0.00    +0.000 C 
ATOM     32  C   UNL     1       4.154   1.801  19.749  0.00  0.00    +0.000 C 
ENDBRANCH   1  32
BRANCH   8  33
ATOM     33  O   UNL     1       1.333   3.060  20.586  0.00  0.00    +0.000 OA
ATOM     34  C   UNL     1       0.593   2.429  19.546  0.00  0.00    +0.000 C 
ENDBRANCH   8  33
TORSDOF 5
ENDMDL
MODEL 7
REMARK VINA RESULT:      -8.1      0.912      1.823
REMARK  Name = 
REMARK  9 active torsions:
REMARK  status: ('A' for Active; 'I' for Inactive)
REMARK    1  A    between atoms: C_1  and  C_2
REMARK    2  A    between atoms: C_2  and  C_3
REMARK    3  A    between atoms: N_5  and  C_6
REMARK    4  A    between atoms: C_14  and  C_15
REMARK    5  A    between atoms: C_18  and  N_19
REMARK    6  A    between atoms: C_21  and  C_22
REMARK    7  A    between atoms: C_24  and  C_25
REMARK    8  A    between atoms: C_30  and  O_31
REMARK    9  A    between atoms: O_31  and  C_32
REMARK                            x       y       z     vdW  Elec       q    Type
REMARK                         _______ _______ _______ _____ _____    ______ ____
ROOT
ATOM      1  C   UNL     1       4.174   3.230  19.436  0.00  0.00    +0.000 A 
ATOM      2  N   UNL     1       5.302   3.760  18.953  0.00  0.00    +0.000 NA
ATOM      3  N   UNL     1       5.100   5.114  18.975  0.00  0.00    +0.000 N 
ATOM      4  C   UNL     1       3.830   5.428  19.459  0.00  0.00    +0.000 A 
ATOM      5  N   UNL     1       3.281   6.654  19.627  0.00  0.00    +0.000 NA
ATOM      6  C   UNL     1       2.022   6.655  20.115  0.00  0.00    +0.000 A 
ATOM      7  C   UNL     1       1.321   5.492  20.440  0.00  0.00    +0.000 A 
ATOM      8  C   UNL     1       1.898   4.238  20.249  0.00  0.00    +0.000 A 
ATOM      9  C   UNL     1       3.210   4.217  19.746  0.00  0.00    +0.000 A 
ENDROOT
BRANCH   3  10
ATOM     10  C   UNL     1       6.143   5.989  18.536  0.00  0.00    +0.000 A 
ATOM     11  C   UNL     1       5.931   6.797  17.405  0.00  0.00    +0.000 A 
ATOM     12  C   UNL     1       6.929   7.665  16.953  0.00  0.00    +0.000 A 
ATOM     13  C   UNL     1       8.150   7.732  17.619  0.00  0.00    +0.000 A 
ATOM     14  C   UNL     1       8.373   6.933  18.739  0.00  0.00    +0.000 A 
ATOM     15  C   UNL     1       7.376   6.067  19.198  0.00  0.00    +0.000 A 
ENDBRANCH   3  10
BRANCH   6  16
ATOM     16  C   UNL     1       1.406   7.982  20.320  0.00  0.00    +0.000 A 
ATOM     17  C   UNL     1       1.363   8.930  19.288  0.00  0.00    +0.000 A 
ATOM     18  C   UNL     1       0.703  10.153  19.448  0.00  0.00    +0.000 A 
ATOM     19  C   UNL     1       0.078  10.510  20.646  0.00  0.00    +0.000 A 
ATOM     20  C   UNL     1       0.155   9.575  21.687  0.00  0.00    +0.000 A 
ATOM     21  C   UNL     1       0.805   8.338  21.533  0.00  0.00    +0.000 A 
BRANCH  19  22
ATOM     22  N   UNL     1      -0.560  11.721  20.789  0.00  0.00    +0.000 N 
ATOM     23  C   UNL     1      -1.223  12.151  22.029  0.00  0.00    +0.000 C 
ATOM     24  C   UNL     1      -0.668  13.531  22.470  0.00  0.00    +0.000 C 
ATOM     25  C   UNL     1      -1.393  14.025  23.717  0.00  0.00    +0.000 C 
ATOM     26  N   UNL     1      -0.796  14.558  21.405  0.00  0.00    +0.000 NA
ATOM     27  C   UNL     1      -0.126  14.079  20.173  0.00  0.00    +0.000 C 
ATOM     28  C   UNL     1      -0.304  15.116  19.069  0.00  0.00    +0.000 C 
ATOM     29  C   UNL     1      -0.650  12.697  19.693  0.00  0.00    +0.000 C 
ATOM     30  H   UNL     1      -0.344  15.417  21.716  0.00  0.00    +0.000 HD
ENDBRANCH  19  22
ENDBRANCH   6  16
BRANCH   1  32
ATOM     31  C   UNL     1       3.736   1.028  18.312  0.00  0.00    +0.000 C 
ATOM     32  C   UNL     1       4.062   1.752  19.609  0.00  0.00    +0.000 C 
ENDBRANCH   1  32
BRANCH   8  33
ATOM     33  O   UNL     1       1.281   3.045  20.521  0.00  0.00    +0.000 OA
ATOM     34  C   UNL     1       0.535   2.453  19.463  0.00  0.00    +0.000 C 
ENDBRANCH   8  33
TORSDOF 5
ENDMDL
MODEL 8
REMARK VINA RESULT:      -8.0      2.943      9.359
REMARK  Name = 
REMARK  9 active torsions:
REMARK  status: ('A' for Active; 'I' for Inactive)
REMARK    1  A    between atoms: C_1  and  C_2
REMARK    2  A    between atoms: C_2  and  C_3
REMARK    3  A    between atoms: N_5  and  C_6
REMARK    4  A    between atoms: C_14  and  C_15
REMARK    5  A    between atoms: C_18  and  N_19
REMARK    6  A    between atoms: C_21  and  C_22
REMARK    7  A    between atoms: C_24  and  C_25
REMARK    8  A    between atoms: C_30  and  O_31
REMARK    9  A    between atoms: O_31  and  C_32
REMARK                            x       y       z     vdW  Elec       q    Type
REMARK                         _______ _______ _______ _____ _____    ______ ____
ROOT
ATOM      1  C   UNL     1      -0.415  14.387  21.133  0.00  0.00    +0.000 A 
ATOM      2  N   UNL     1       0.616  15.113  20.690  0.00  0.00    +0.000 NA
ATOM      3  N   UNL     1       1.460  14.213  20.097  0.00  0.00    +0.000 N 
ATOM      4  C   UNL     1       0.958  12.914  20.187  0.00  0.00    +0.000 A 
ATOM      5  N   UNL     1       1.510  11.772  19.715  0.00  0.00    +0.000 NA
ATOM      6  C   UNL     1       0.796  10.651  19.952  0.00  0.00    +0.000 A 
ATOM      7  C   UNL     1      -0.428  10.645  20.623  0.00  0.00    +0.000 A 
ATOM      8  C   UNL     1      -0.975  11.829  21.113  0.00  0.00    +0.000 A 
ATOM      9  C   UNL     1      -0.249  13.008  20.871  0.00  0.00    +0.000 A 
ENDROOT
BRANCH   3  10
ATOM     10  C   UNL     1       2.671  14.675  19.490  0.00  0.00    +0.000 A 
ATOM     11  C   UNL     1       2.659  15.051  18.136  0.00  0.00    +0.000 A 
ATOM     12  C   UNL     1       3.825  15.510  17.515  0.00  0.00    +0.000 A 
ATOM     13  C   UNL     1       5.013  15.593  18.236  0.00  0.00    +0.000 A 
ATOM     14  C   UNL     1       5.037  15.219  19.578  0.00  0.00    +0.000 A 
ATOM     15  C   UNL     1       3.873  14.765  20.205  0.00  0.00    +0.000 A 
ENDBRANCH   3  10
BRANCH   6  16
ATOM     16  C   UNL     1       1.372   9.393  19.435  0.00  0.00    +0.000 A 
ATOM     17  C   UNL     1       1.792   9.280  18.102  0.00  0.00    +0.000 A 
ATOM     18  C   UNL     1       2.419   8.122  17.630  0.00  0.00    +0.000 A 
ATOM     19  C   UNL     1       2.635   7.008  18.446  0.00  0.00    +0.000 A 
ATOM     20  C   UNL     1       2.180   7.110  19.768  0.00  0.00    +0.000 A 
ATOM     21  C   UNL     1       1.560   8.274  20.255  0.00  0.00    +0.000 A 
BRANCH  19  22
ATOM     22  N   UNL     1       3.246   5.873  17.964  0.00  0.00    +0.000 N 
ATOM     23  C   UNL     1       4.625   5.843  17.456  0.00  0.00    +0.000 C 
ATOM     24  C   UNL     1       5.434   4.746  18.198  0.00  0.00    +0.000 C 
ATOM     25  C   UNL     1       6.849   4.654  17.637  0.00  0.00    +0.000 C 
ATOM     26  N   UNL     1       4.794   3.410  18.102  0.00  0.00    +0.000 NA
ATOM     27  C   UNL     1       3.405   3.489  18.611  0.00  0.00    +0.000 C 
ATOM     28  C   UNL     1       2.738   2.125  18.464  0.00  0.00    +0.000 C 
ATOM     29  C   UNL     1       2.556   4.576  17.896  0.00  0.00    +0.000 C 
ATOM     30  H   UNL     1       5.320   2.748  18.672  0.00  0.00    +0.000 HD
ENDBRANCH  19  22
ENDBRANCH   6  16
BRANCH   1  32
ATOM     31  C   UNL     1      -2.571  15.628  20.798  0.00  0.00    +0.000 C 
ATOM     32  C   UNL     1      -1.570  15.064  21.793  0.00  0.00    +0.000 C 
ENDBRANCH   1  32
BRANCH   8  33
ATOM     33  O   UNL     1      -2.158  11.918  21.798  0.00  0.00    +0.000 OA
ATOM     34  C   UNL     1      -2.108  11.680  23.201  0.00  0.00    +0.000 C 
ENDBRANCH   8  33
TORSDOF 5
ENDMDL
MODEL 9
REMARK VINA RESULT:      -8.0      2.788     10.356
REMARK  Name = 
REMARK  9 active torsions:
REMARK  status: ('A' for Active; 'I' for Inactive)
REMARK    1  A    between atoms: C_1  and  C_2
REMARK    2  A    between atoms: C_2  and  C_3
REMARK    3  A    between atoms: N_5  and  C_6
REMARK    4  A    between atoms: C_14  and  C_15
REMARK    5  A    between atoms: C_18  and  N_19
REMARK    6  A    between atoms: C_21  and  C_22
REMARK    7  A    between atoms: C_24  and  C_25
REMARK    8  A    between atoms: C_30  and  O_31
REMARK    9  A    between atoms: O_31  and  C_32
REMARK                            x       y       z     vdW  Elec       q    Type
REMARK                         _______ _______ _______ _____ _____    ______ ____
ROOT
ATOM      1  C   UNL     1      -1.617  14.319  21.234  0.00  0.00    +0.000 A 
ATOM      2  N   UNL     1      -2.798  14.052  20.665  0.00  0.00    +0.000 NA
ATOM      3  N   UNL     1      -2.626  12.850  20.032  0.00  0.00    +0.000 N 
ATOM      4  C   UNL     1      -1.324  12.374  20.195  0.00  0.00    +0.000 A 
ATOM      5  N   UNL     1      -0.791  11.225  19.718  0.00  0.00    +0.000 NA
ATOM      6  C   UNL     1       0.507  11.024  20.031  0.00  0.00    +0.000 A 
ATOM      7  C   UNL     1       1.262  11.916  20.796  0.00  0.00    +0.000 A 
ATOM      8  C   UNL     1       0.700  13.099  21.267  0.00  0.00    +0.000 A 
ATOM      9  C   UNL     1      -0.653  13.324  20.956  0.00  0.00    +0.000 A 
ENDROOT
BRANCH   3  10
ATOM     10  C   UNL     1      -3.725  12.259  19.333  0.00  0.00    +0.000 A 
ATOM     11  C   UNL     1      -5.000  12.269  19.924  0.00  0.00    +0.000 A 
ATOM     12  C   UNL     1      -6.095  11.702  19.265  0.00  0.00    +0.000 A 
ATOM     13  C   UNL     1      -5.928  11.115  18.014  0.00  0.00    +0.000 A 
ATOM     14  C   UNL     1      -4.668  11.095  17.421  0.00  0.00    +0.000 A 
ATOM     15  C   UNL     1      -3.571  11.665  18.073  0.00  0.00    +0.000 A 
ENDBRANCH   3  10
BRANCH   6  16
ATOM     16  C   UNL     1       1.108   9.770  19.533  0.00  0.00    +0.000 A 
ATOM     17  C   UNL     1       1.542   9.649  18.206  0.00  0.00    +0.000 A 
ATOM     18  C   UNL     1       2.193   8.496  17.753  0.00  0.00    +0.000 A 
ATOM     19  C   UNL     1       2.419   7.395  18.585  0.00  0.00    +0.000 A 
ATOM     20  C   UNL     1       1.950   7.505  19.900  0.00  0.00    +0.000 A 
ATOM     21  C   UNL     1       1.307   8.664  20.368  0.00  0.00    +0.000 A 
BRANCH  19  22
ATOM     22  N   UNL     1       3.053   6.265  18.121  0.00  0.00    +0.000 N 
ATOM     23  C   UNL     1       4.479   6.216  17.768  0.00  0.00    +0.000 C 
ATOM     24  C   UNL     1       5.173   5.066  18.544  0.00  0.00    +0.000 C 
ATOM     25  C   UNL     1       6.639   4.957  18.139  0.00  0.00    +0.000 C 
ATOM     26  N   UNL     1       4.516   3.754  18.316  0.00  0.00    +0.000 NA
ATOM     27  C   UNL     1       3.081   3.851  18.672  0.00  0.00    +0.000 C 
ATOM     28  C   UNL     1       2.402   2.515  18.390  0.00  0.00    +0.000 C 
ATOM     29  C   UNL     1       2.343   4.992  17.919  0.00  0.00    +0.000 C 
ATOM     30  H   UNL     1       4.959   3.054  18.910  0.00  0.00    +0.000 HD
ENDBRANCH  19  22
ENDBRANCH   6  16
BRANCH   1  32
ATOM     31  C   UNL     1      -1.559  15.267  23.558  0.00  0.00    +0.000 C 
ATOM     32  C   UNL     1      -1.456  15.547  22.067  0.00  0.00    +0.000 C 
ENDBRANCH   1  32
BRANCH   8  33
ATOM     33  O   UNL     1       1.366  14.040  22.007  0.00  0.00    +0.000 OA
ATOM     34  C   UNL     1       2.225  14.926  21.297  0.00  0.00    +0.000 C 
ENDBRANCH   8  33
TORSDOF 5
ENDMDL
