MODEL 1
REMARK VINA RESULT:      -7.1      0.000      0.000
REMARK  Name = 
REMARK  8 active torsions:
REMARK  status: ('A' for Active; 'I' for Inactive)
REMARK    1  A    between atoms: C_1  and  O_2
REMARK    2  A    between atoms: O_2  and  C_3
REMARK    3  A    between atoms: C_3  and  C_4
REMARK    4  A    between atoms: C_4  and  N_5
REMARK    5  A    between atoms: C_7  and  C_8
REMARK    6  A    between atoms: C_8  and  N_9
REMARK    7  A    between atoms: C_12  and  C_13
REMARK    8  A    between atoms: C_19  and  C_20
REMARK                            x       y       z     vdW  Elec       q    Type
REMARK                         _______ _______ _______ _____ _____    ______ ____
ROOT
ATOM      1  N   UNL     1       2.854   7.040  18.521  0.00  0.00    +0.000 N 
ATOM      2  C   UNL     1       2.756   8.223  17.852  0.00  0.00    +0.000 A 
ATOM      3  N   UNL     1       2.011   9.087  18.495  0.00  0.00    +0.000 NA
ATOM      4  C   UNL     1       1.649   8.464  19.665  0.00  0.00    +0.000 A 
ATOM      5  C   UNL     1       2.121   7.160  19.688  0.00  0.00    +0.000 A 
ATOM      6  C   UNL     1       1.965   6.042  20.657  0.00  0.00    +0.000 C 
ENDROOT
BRANCH   4   7
ATOM      7  C   UNL     1       0.872   9.151  20.683  0.00  0.00    +0.000 A 
ATOM      8  C   UNL     1       0.021  10.200  20.310  0.00  0.00    +0.000 A 
ATOM      9  C   UNL     1      -0.724  10.887  21.272  0.00  0.00    +0.000 A 
ATOM     10  C   UNL     1      -0.624  10.531  22.615  0.00  0.00    +0.000 A 
ATOM     11  C   UNL     1       0.237   9.505  23.001  0.00  0.00    +0.000 A 
ATOM     12  C   UNL     1       0.992   8.830  22.040  0.00  0.00    +0.000 A 
ENDBRANCH   4   7
BRANCH   1  13
ATOM     13  C   UNL     1       3.602   5.856  18.135  0.00  0.00    +0.000 C 
BRANCH  13  16
ATOM     14  N   UNL     1       6.335   5.158  15.816  0.00  0.00    +0.000 N 
ATOM     15  C   UNL     1       5.019   5.702  16.010  0.00  0.00    +0.000 C 
ATOM     16  C   UNL     1       4.975   6.057  17.495  0.00  0.00    +0.000 C 
ATOM     17  C   UNL     1       6.025   5.134  18.130  0.00  0.00    +0.000 C 
ATOM     18  C   UNL     1       6.953   4.800  16.996  0.00  0.00    +0.000 C 
ATOM     19  O   UNL     1       8.041   4.252  17.113  0.00  0.00    +0.000 OA
BRANCH  14  20
ATOM     20  C   UNL     1       6.892   4.929  14.495  0.00  0.00    +0.000 C 
BRANCH  20  21
ATOM     21  C   UNL     1       6.358   3.669  13.813  0.00  0.00    +0.000 C 
BRANCH  21  23
ATOM     22  C   UNL     1       5.053   3.172  11.916  0.00  0.00    +0.000 C 
ATOM     23  O   UNL     1       5.196   4.013  13.053  0.00  0.00    +0.000 OA
ENDBRANCH  21  23
ENDBRANCH  20  21
ENDBRANCH  14  20
ENDBRANCH  13  16
ENDBRANCH   1  13
TORSDOF 6
ENDMDL
MODEL 2
REMARK VINA RESULT:      -6.8      2.176      3.576
REMARK  Name = 
REMARK  8 active torsions:
REMARK  status: ('A' for Active; 'I' for Inactive)
REMARK    1  A    between atoms: C_1  and  O_2
REMARK    2  A    between atoms: O_2  and  C_3
REMARK    3  A    between atoms: C_3  and  C_4
REMARK    4  A    between atoms: C_4  and  N_5
REMARK    5  A    between atoms: C_7  and  C_8
REMARK    6  A    between atoms: C_8  and  N_9
REMARK    7  A    between atoms: C_12  and  C_13
REMARK    8  A    between atoms: C_19  and  C_20
REMARK                            x       y       z     vdW  Elec       q    Type
REMARK                         _______ _______ _______ _____ _____    ______ ____
ROOT
ATOM      1  N   UNL     1       4.292   4.758  17.195  0.00  0.00    +0.000 N 
ATOM      2  C   UNL     1       3.176   4.116  17.645  0.00  0.00    +0.000 A 
ATOM      3  N   UNL     1       2.367   4.930  18.274  0.00  0.00    +0.000 NA
ATOM      4  C   UNL     1       2.949   6.172  18.187  0.00  0.00    +0.000 A 
ATOM      5  C   UNL     1       4.182   6.088  17.559  0.00  0.00    +0.000 A 
ATOM      6  C   UNL     1       5.243   7.090  17.269  0.00  0.00    +0.000 C 
ENDROOT
BRANCH   4   7
ATOM      7  C   UNL     1       2.292   7.357  18.713  0.00  0.00    +0.000 A 
ATOM      8  C   UNL     1       1.957   7.415  20.072  0.00  0.00    +0.000 A 
ATOM      9  C   UNL     1       1.311   8.536  20.598  0.00  0.00    +0.000 A 
ATOM     10  C   UNL     1       0.994   9.610  19.769  0.00  0.00    +0.000 A 
ATOM     11  C   UNL     1       1.301   9.554  18.411  0.00  0.00    +0.000 A 
ATOM     12  C   UNL     1       1.933   8.426  17.884  0.00  0.00    +0.000 A 
ENDBRANCH   4   7
BRANCH   1  13
ATOM     13  C   UNL     1       5.401   4.197  16.443  0.00  0.00    +0.000 C 
BRANCH  13  16
ATOM     14  N   UNL     1       6.584   4.033  12.991  0.00  0.00    +0.000 N 
ATOM     15  C   UNL     1       5.620   3.598  13.964  0.00  0.00    +0.000 C 
ATOM     16  C   UNL     1       5.625   4.704  15.018  0.00  0.00    +0.000 C 
ATOM     17  C   UNL     1       7.008   5.354  14.870  0.00  0.00    +0.000 C 
ATOM     18  C   UNL     1       7.418   5.028  13.461  0.00  0.00    +0.000 C 
ATOM     19  O   UNL     1       8.364   5.526  12.868  0.00  0.00    +0.000 OA
BRANCH  14  20
ATOM     20  C   UNL     1       6.709   3.404  11.689  0.00  0.00    +0.000 C 
BRANCH  20  21
ATOM     21  C   UNL     1       5.849   2.151  11.527  0.00  0.00    +0.000 C 
BRANCH  21  23
ATOM     22  C   UNL     1       6.097  -0.180  11.294  0.00  0.00    +0.000 C 
ATOM     23  O   UNL     1       6.665   1.093  11.017  0.00  0.00    +0.000 OA
ENDBRANCH  21  23
ENDBRANCH  20  21
ENDBRANCH  14  20
ENDBRANCH  13  16
ENDBRANCH   1  13
TORSDOF 6
ENDMDL
MODEL 3
REMARK VINA RESULT:      -6.8      4.379      8.489
REMARK  Name = 
REMARK  8 active torsions:
REMARK  status: ('A' for Active; 'I' for Inactive)
REMARK    1  A    between atoms: C_1  and  O_2
REMARK    2  A    between atoms: O_2  and  C_3
REMARK    3  A    between atoms: C_3  and  C_4
REMARK    4  A    between atoms: C_4  and  N_5
REMARK    5  A    between atoms: C_7  and  C_8
REMARK    6  A    between atoms: C_8  and  N_9
REMARK    7  A    between atoms: C_12  and  C_13
REMARK    8  A    between atoms: C_19  and  C_20
REMARK                            x       y       z     vdW  Elec       q    Type
REMARK                         _______ _______ _______ _____ _____    ______ ____
ROOT
ATOM      1  N   UNL     1       1.434   8.579  20.167  0.00  0.00    +0.000 N 
ATOM      2  C   UNL     1       1.352   7.567  21.077  0.00  0.00    +0.000 A 
ATOM      3  N   UNL     1       1.811   6.440  20.594  0.00  0.00    +0.000 NA
ATOM      4  C   UNL     1       2.266   6.735  19.332  0.00  0.00    +0.000 A 
ATOM      5  C   UNL     1       1.998   8.059  19.016  0.00  0.00    +0.000 A 
ATOM      6  C   UNL     1       2.206   8.870  17.786  0.00  0.00    +0.000 C 
ENDROOT
BRANCH   4   7
ATOM      7  C   UNL     1       2.923   5.734  18.507  0.00  0.00    +0.000 A 
ATOM      8  C   UNL     1       2.175   4.668  17.990  0.00  0.00    +0.000 A 
ATOM      9  C   UNL     1       2.786   3.684  17.209  0.00  0.00    +0.000 A 
ATOM     10  C   UNL     1       4.151   3.759  16.937  0.00  0.00    +0.000 A 
ATOM     11  C   UNL     1       4.909   4.802  17.465  0.00  0.00    +0.000 A 
ATOM     12  C   UNL     1       4.300   5.776  18.259  0.00  0.00    +0.000 A 
ENDBRANCH   4   7
BRANCH   1  13
ATOM     13  C   UNL     1       1.044   9.968  20.339  0.00  0.00    +0.000 C 
BRANCH  13  16
ATOM     14  N   UNL     1      -2.043  11.292  18.906  0.00  0.00    +0.000 N 
ATOM     15  C   UNL     1      -1.053  10.250  18.900  0.00  0.00    +0.000 C 
ATOM     16  C   UNL     1      -0.448  10.299  20.301  0.00  0.00    +0.000 C 
ATOM     17  C   UNL     1      -0.708  11.739  20.769  0.00  0.00    +0.000 C 
ATOM     18  C   UNL     1      -1.884  12.184  19.946  0.00  0.00    +0.000 C 
ATOM     19  O   UNL     1      -2.542  13.196  20.145  0.00  0.00    +0.000 OA
BRANCH  14  20
ATOM     20  C   UNL     1      -3.035  11.424  17.855  0.00  0.00    +0.000 C 
BRANCH  20  21
ATOM     21  C   UNL     1      -3.618  10.089  17.389  0.00  0.00    +0.000 C 
BRANCH  21  23
ATOM     22  C   UNL     1      -3.110  10.681  15.166  0.00  0.00    +0.000 C 
ATOM     23  O   UNL     1      -2.963   9.696  16.180  0.00  0.00    +0.000 OA
ENDBRANCH  21  23
ENDBRANCH  20  21
ENDBRANCH  14  20
ENDBRANCH  13  16
ENDBRANCH   1  13
TORSDOF 6
ENDMDL
MODEL 4
REMARK VINA RESULT:      -6.8      2.181      3.618
REMARK  Name = 
REMARK  8 active torsions:
REMARK  status: ('A' for Active; 'I' for Inactive)
REMARK    1  A    between atoms: C_1  and  O_2
REMARK    2  A    between atoms: O_2  and  C_3
REMARK    3  A    between atoms: C_3  and  C_4
REMARK    4  A    between atoms: C_4  and  N_5
REMARK    5  A    between atoms: C_7  and  C_8
REMARK    6  A    between atoms: C_8  and  N_9
REMARK    7  A    between atoms: C_12  and  C_13
REMARK    8  A    between atoms: C_19  and  C_20
REMARK                            x       y       z     vdW  Elec       q    Type
REMARK                         _______ _______ _______ _____ _____    ______ ____
ROOT
ATOM      1  N   UNL     1       2.929   6.252  18.429  0.00  0.00    +0.000 N 
ATOM      2  C   UNL     1       3.054   7.405  17.712  0.00  0.00    +0.000 A 
ATOM      3  N   UNL     1       2.425   8.403  18.281  0.00  0.00    +0.000 NA
ATOM      4  C   UNL     1       1.911   7.898  19.452  0.00  0.00    +0.000 A 
ATOM      5  C   UNL     1       2.168   6.539  19.548  0.00  0.00    +0.000 A 
ATOM      6  C   UNL     1       1.790   5.505  20.549  0.00  0.00    +0.000 C 
ENDROOT
BRANCH   4   7
ATOM      7  C   UNL     1       1.205   8.745  20.398  0.00  0.00    +0.000 A 
ATOM      8  C   UNL     1       1.374   8.533  21.773  0.00  0.00    +0.000 A 
ATOM      9  C   UNL     1       0.693   9.323  22.703  0.00  0.00    +0.000 A 
ATOM     10  C   UNL     1      -0.164  10.331  22.265  0.00  0.00    +0.000 A 
ATOM     11  C   UNL     1      -0.359  10.534  20.900  0.00  0.00    +0.000 A 
ATOM     12  C   UNL     1       0.311   9.734  19.973  0.00  0.00    +0.000 A 
ENDBRANCH   4   7
BRANCH   1  13
ATOM     13  C   UNL     1       3.497   4.949  18.130  0.00  0.00    +0.000 C 
BRANCH  13  16
ATOM     14  N   UNL     1       6.917   6.213  17.914  0.00  0.00    +0.000 N 
ATOM     15  C   UNL     1       5.781   5.927  18.745  0.00  0.00    +0.000 C 
ATOM     16  C   UNL     1       5.015   4.851  17.979  0.00  0.00    +0.000 C 
ATOM     17  C   UNL     1       5.443   5.059  16.518  0.00  0.00    +0.000 C 
ATOM     18  C   UNL     1       6.771   5.752  16.621  0.00  0.00    +0.000 C 
ATOM     19  O   UNL     1       7.553   5.921  15.695  0.00  0.00    +0.000 OA
BRANCH  14  20
ATOM     20  C   UNL     1       8.045   6.995  18.385  0.00  0.00    +0.000 C 
BRANCH  20  21
ATOM     21  C   UNL     1       8.039   8.442  17.891  0.00  0.00    +0.000 C 
BRANCH  21  23
ATOM     22  C   UNL     1       9.021  10.548  18.274  0.00  0.00    +0.000 C 
ATOM     23  O   UNL     1       8.816   9.240  18.788  0.00  0.00    +0.000 OA
ENDBRANCH  21  23
ENDBRANCH  20  21
ENDBRANCH  14  20
ENDBRANCH  13  16
ENDBRANCH   1  13
TORSDOF 6
ENDMDL
MODEL 5
REMARK VINA RESULT:      -6.8      0.846      1.318
REMARK  Name = 
REMARK  8 active torsions:
REMARK  status: ('A' for Active; 'I' for Inactive)
REMARK    1  A    between atoms: C_1  and  O_2
REMARK    2  A    between atoms: O_2  and  C_3
REMARK    3  A    between atoms: C_3  and  C_4
REMARK    4  A    between atoms: C_4  and  N_5
REMARK    5  A    between atoms: C_7  and  C_8
REMARK    6  A    between atoms: C_8  and  N_9
REMARK    7  A    between atoms: C_12  and  C_13
REMARK    8  A    between atoms: C_19  and  C_20
REMARK                            x       y       z     vdW  Elec       q    Type
REMARK                         _______ _______ _______ _____ _____    ______ ____
ROOT
ATOM      1  N   UNL     1       2.713   7.108  18.660  0.00  0.00    +0.000 N 
ATOM      2  C   UNL     1       2.628   8.288  17.983  0.00  0.00    +0.000 A 
ATOM      3  N   UNL     1       1.891   9.164  18.620  0.00  0.00    +0.000 NA
ATOM      4  C   UNL     1       1.521   8.553  19.794  0.00  0.00    +0.000 A 
ATOM      5  C   UNL     1       1.979   7.244  19.826  0.00  0.00    +0.000 A 
ATOM      6  C   UNL     1       1.811   6.135  20.803  0.00  0.00    +0.000 C 
ENDROOT
BRANCH   4   7
ATOM      7  C   UNL     1       0.750   9.255  20.805  0.00  0.00    +0.000 A 
ATOM      8  C   UNL     1       0.884   8.891  22.152  0.00  0.00    +0.000 A 
ATOM      9  C   UNL     1       0.141   9.540  23.141  0.00  0.00    +0.000 A 
ATOM     10  C   UNL     1      -0.743  10.559  22.792  0.00  0.00    +0.000 A 
ATOM     11  C   UNL     1      -0.903  10.913  21.454  0.00  0.00    +0.000 A 
ATOM     12  C   UNL     1      -0.171  10.253  20.465  0.00  0.00    +0.000 A 
ENDBRANCH   4   7
BRANCH   1  13
ATOM     13  C   UNL     1       3.449   5.914  18.284  0.00  0.00    +0.000 C 
BRANCH  13  16
ATOM     14  N   UNL     1       5.827   4.685  15.799  0.00  0.00    +0.000 N 
ATOM     15  C   UNL     1       4.512   4.588  16.371  0.00  0.00    +0.000 C 
ATOM     16  C   UNL     1       4.272   5.960  16.996  0.00  0.00    +0.000 C 
ATOM     17  C   UNL     1       5.685   6.502  17.259  0.00  0.00    +0.000 C 
ATOM     18  C   UNL     1       6.551   5.755  16.285  0.00  0.00    +0.000 C 
ATOM     19  O   UNL     1       7.713   6.028  16.021  0.00  0.00    +0.000 OA
BRANCH  14  20
ATOM     20  C   UNL     1       6.350   3.689  14.883  0.00  0.00    +0.000 C 
BRANCH  20  21
ATOM     21  C   UNL     1       6.484   4.188  13.444  0.00  0.00    +0.000 C 
BRANCH  21  23
ATOM     22  C   UNL     1       4.922   3.336  11.900  0.00  0.00    +0.000 C 
ATOM     23  O   UNL     1       6.166   3.116  12.552  0.00  0.00    +0.000 OA
ENDBRANCH  21  23
ENDBRANCH  20  21
ENDBRANCH  14  20
ENDBRANCH  13  16
ENDBRANCH   1  13
TORSDOF 6
ENDMDL
MODEL 6
REMARK VINA RESULT:      -6.8      1.200      1.686
REMARK  Name = 
REMARK  8 active torsions:
REMARK  status: ('A' for Active; 'I' for Inactive)
REMARK    1  A    between atoms: C_1  and  O_2
REMARK    2  A    between atoms: O_2  and  C_3
REMARK    3  A    between atoms: C_3  and  C_4
REMARK    4  A    between atoms: C_4  and  N_5
REMARK    5  A    between atoms: C_7  and  C_8
REMARK    6  A    between atoms: C_8  and  N_9
REMARK    7  A    between atoms: C_12  and  C_13
REMARK    8  A    between atoms: C_19  and  C_20
REMARK                            x       y       z     vdW  Elec       q    Type
REMARK                         _______ _______ _______ _____ _____    ______ ____
ROOT
ATOM      1  N   UNL     1       2.640   7.573  18.611  0.00  0.00    +0.000 N 
ATOM      2  C   UNL     1       2.645   8.408  17.534  0.00  0.00    +0.000 A 
ATOM      3  N   UNL     1       1.833   9.422  17.700  0.00  0.00    +0.000 NA
ATOM      4  C   UNL     1       1.315   9.278  18.965  0.00  0.00    +0.000 A 
ATOM      5  C   UNL     1       1.763   8.100  19.542  0.00  0.00    +0.000 A 
ATOM      6  C   UNL     1       1.470   7.430  20.838  0.00  0.00    +0.000 C 
ENDROOT
BRANCH   4   7
ATOM      7  C   UNL     1       0.420  10.270  19.537  0.00  0.00    +0.000 A 
ATOM      8  C   UNL     1       0.773  10.909  20.734  0.00  0.00    +0.000 A 
ATOM      9  C   UNL     1      -0.077  11.854  21.312  0.00  0.00    +0.000 A 
ATOM     10  C   UNL     1      -1.288  12.169  20.699  0.00  0.00    +0.000 A 
ATOM     11  C   UNL     1      -1.661  11.523  19.522  0.00  0.00    +0.000 A 
ATOM     12  C   UNL     1      -0.817  10.567  18.953  0.00  0.00    +0.000 A 
ENDBRANCH   4   7
BRANCH   1  13
ATOM     13  C   UNL     1       3.417   6.361  18.803  0.00  0.00    +0.000 C 
BRANCH  13  16
ATOM     14  N   UNL     1       5.780   4.502  16.730  0.00  0.00    +0.000 N 
ATOM     15  C   UNL     1       4.487   5.119  16.838  0.00  0.00    +0.000 C 
ATOM     16  C   UNL     1       4.661   6.166  17.936  0.00  0.00    +0.000 C 
ATOM     17  C   UNL     1       5.841   5.641  18.768  0.00  0.00    +0.000 C 
ATOM     18  C   UNL     1       6.593   4.754  17.817  0.00  0.00    +0.000 C 
ATOM     19  O   UNL     1       7.710   4.296  18.012  0.00  0.00    +0.000 OA
BRANCH  14  20
ATOM     20  C   UNL     1       6.132   3.627  15.627  0.00  0.00    +0.000 C 
BRANCH  20  21
ATOM     21  C   UNL     1       6.404   4.368  14.317  0.00  0.00    +0.000 C 
BRANCH  21  23
ATOM     22  C   UNL     1       6.038   3.260  12.271  0.00  0.00    +0.000 C 
ATOM     23  O   UNL     1       5.433   3.963  13.348  0.00  0.00    +0.000 OA
ENDBRANCH  21  23
ENDBRANCH  20  21
ENDBRANCH  14  20
ENDBRANCH  13  16
ENDBRANCH   1  13
TORSDOF 6
ENDMDL
MODEL 7
REMARK VINA RESULT:      -6.8      4.637      8.628
REMARK  Name = 
REMARK  8 active torsions:
REMARK  status: ('A' for Active; 'I' for Inactive)
REMARK    1  A    between atoms: C_1  and  O_2
REMARK    2  A    between atoms: O_2  and  C_3
REMARK    3  A    between atoms: C_3  and  C_4
REMARK    4  A    between atoms: C_4  and  N_5
REMARK    5  A    between atoms: C_7  and  C_8
REMARK    6  A    between atoms: C_8  and  N_9
REMARK    7  A    between atoms: C_12  and  C_13
REMARK    8  A    between atoms: C_19  and  C_20
REMARK                            x       y       z     vdW  Elec       q    Type
REMARK                         _______ _______ _______ _____ _____    ______ ____
ROOT
ATOM      1  N   UNL     1       1.380   8.739  20.069  0.00  0.00    +0.000 N 
ATOM      2  C   UNL     1       1.260   7.862  21.106  0.00  0.00    +0.000 A 
ATOM      3  N   UNL     1       1.739   6.681  20.804  0.00  0.00    +0.000 NA
ATOM      4  C   UNL     1       2.247   6.802  19.532  0.00  0.00    +0.000 A 
ATOM      5  C   UNL     1       1.991   8.067  19.025  0.00  0.00    +0.000 A 
ATOM      6  C   UNL     1       2.250   8.701  17.704  0.00  0.00    +0.000 C 
ENDROOT
BRANCH   4   7
ATOM      7  C   UNL     1       2.937   5.700  18.882  0.00  0.00    +0.000 A 
ATOM      8  C   UNL     1       4.296   5.485  19.147  0.00  0.00    +0.000 A 
ATOM      9  C   UNL     1       4.985   4.443  18.522  0.00  0.00    +0.000 A 
ATOM     10  C   UNL     1       4.321   3.607  17.626  0.00  0.00    +0.000 A 
ATOM     11  C   UNL     1       2.975   3.826  17.337  0.00  0.00    +0.000 A 
ATOM     12  C   UNL     1       2.292   4.878  17.951  0.00  0.00    +0.000 A 
ENDBRANCH   4   7
BRANCH   1  13
ATOM     13  C   UNL     1       0.983  10.135  20.031  0.00  0.00    +0.000 C 
BRANCH  13  16
ATOM     14  N   UNL     1      -2.243  11.483  18.973  0.00  0.00    +0.000 N 
ATOM     15  C   UNL     1      -1.255  10.449  18.829  0.00  0.00    +0.000 C 
ATOM     16  C   UNL     1      -0.506  10.457  20.160  0.00  0.00    +0.000 C 
ATOM     17  C   UNL     1      -0.722  11.879  20.700  0.00  0.00    +0.000 C 
ATOM     18  C   UNL     1      -1.979  12.342  20.020  0.00  0.00    +0.000 C 
ATOM     19  O   UNL     1      -2.616  13.342  20.320  0.00  0.00    +0.000 OA
BRANCH  14  20
ATOM     20  C   UNL     1      -3.341  11.641  18.037  0.00  0.00    +0.000 C 
BRANCH  20  21
ATOM     21  C   UNL     1      -3.749  10.342  17.343  0.00  0.00    +0.000 C 
BRANCH  21  23
ATOM     22  C   UNL     1      -2.878  10.485  15.158  0.00  0.00    +0.000 C 
ATOM     23  O   UNL     1      -4.037  10.622  15.970  0.00  0.00    +0.000 OA
ENDBRANCH  21  23
ENDBRANCH  20  21
ENDBRANCH  14  20
ENDBRANCH  13  16
ENDBRANCH   1  13
TORSDOF 6
ENDMDL
MODEL 8
REMARK VINA RESULT:      -6.8      1.780      2.917
REMARK  Name = 
REMARK  8 active torsions:
REMARK  status: ('A' for Active; 'I' for Inactive)
REMARK    1  A    between atoms: C_1  and  O_2
REMARK    2  A    between atoms: O_2  and  C_3
REMARK    3  A    between atoms: C_3  and  C_4
REMARK    4  A    between atoms: C_4  and  N_5
REMARK    5  A    between atoms: C_7  and  C_8
REMARK    6  A    between atoms: C_8  and  N_9
REMARK    7  A    between atoms: C_12  and  C_13
REMARK    8  A    between atoms: C_19  and  C_20
REMARK                            x       y       z     vdW  Elec       q    Type
REMARK                         _______ _______ _______ _____ _____    ______ ____
ROOT
ATOM      1  N   UNL     1       1.794   8.282  19.458  0.00  0.00    +0.000 N 
ATOM      2  C   UNL     1       1.626   7.687  20.673  0.00  0.00    +0.000 A 
ATOM      3  N   UNL     1       0.875   8.406  21.469  0.00  0.00    +0.000 NA
ATOM      4  C   UNL     1       0.486   9.496  20.726  0.00  0.00    +0.000 A 
ATOM      5  C   UNL     1       1.088   9.472  19.477  0.00  0.00    +0.000 A 
ATOM      6  C   UNL     1       1.074  10.416  18.327  0.00  0.00    +0.000 C 
ENDROOT
BRANCH   4   7
ATOM      7  C   UNL     1      -0.429  10.491  21.259  0.00  0.00    +0.000 A 
ATOM      8  C   UNL     1      -1.074  11.375  20.383  0.00  0.00    +0.000 A 
ATOM      9  C   UNL     1      -1.945  12.351  20.873  0.00  0.00    +0.000 A 
ATOM     10  C   UNL     1      -2.178  12.452  22.243  0.00  0.00    +0.000 A 
ATOM     11  C   UNL     1      -1.524  11.595  23.125  0.00  0.00    +0.000 A 
ATOM     12  C   UNL     1      -0.642  10.630  22.636  0.00  0.00    +0.000 A 
ENDBRANCH   4   7
BRANCH   1  13
ATOM     13  C   UNL     1       2.541   7.784  18.316  0.00  0.00    +0.000 C 
BRANCH  13  16
ATOM     14  N   UNL     1       4.641   4.991  17.256  0.00  0.00    +0.000 N 
ATOM     15  C   UNL     1       4.565   6.374  17.636  0.00  0.00    +0.000 C 
ATOM     16  C   UNL     1       3.294   6.464  18.477  0.00  0.00    +0.000 C 
ATOM     17  C   UNL     1       2.445   5.278  17.996  0.00  0.00    +0.000 C 
ATOM     18  C   UNL     1       3.449   4.317  17.425  0.00  0.00    +0.000 C 
ATOM     19  O   UNL     1       3.218   3.156  17.117  0.00  0.00    +0.000 OA
BRANCH  14  20
ATOM     20  C   UNL     1       5.833   4.414  16.663  0.00  0.00    +0.000 C 
BRANCH  20  21
ATOM     21  C   UNL     1       7.002   5.395  16.555  0.00  0.00    +0.000 C 
BRANCH  21  23
ATOM     22  C   UNL     1       6.666   4.594  14.365  0.00  0.00    +0.000 C 
ATOM     23  O   UNL     1       7.492   5.383  15.211  0.00  0.00    +0.000 OA
ENDBRANCH  21  23
ENDBRANCH  20  21
ENDBRANCH  14  20
ENDBRANCH  13  16
ENDBRANCH   1  13
TORSDOF 6
ENDMDL
MODEL 9
REMARK VINA RESULT:      -6.7      1.289      1.503
REMARK  Name = 
REMARK  8 active torsions:
REMARK  status: ('A' for Active; 'I' for Inactive)
REMARK    1  A    between atoms: C_1  and  O_2
REMARK    2  A    between atoms: O_2  and  C_3
REMARK    3  A    between atoms: C_3  and  C_4
REMARK    4  A    between atoms: C_4  and  N_5
REMARK    5  A    between atoms: C_7  and  C_8
REMARK    6  A    between atoms: C_8  and  N_9
REMARK    7  A    between atoms: C_12  and  C_13
REMARK    8  A    between atoms: C_19  and  C_20
REMARK                            x       y       z     vdW  Elec       q    Type
REMARK                         _______ _______ _______ _____ _____    ______ ____
ROOT
ATOM      1  N   UNL     1       2.623   7.511  18.563  0.00  0.00    +0.000 N 
ATOM      2  C   UNL     1       2.593   8.335  17.478  0.00  0.00    +0.000 A 
ATOM      3  N   UNL     1       1.788   9.352  17.660  0.00  0.00    +0.000 NA
ATOM      4  C   UNL     1       1.311   9.221  18.943  0.00  0.00    +0.000 A 
ATOM      5  C   UNL     1       1.778   8.048  19.517  0.00  0.00    +0.000 A 
ATOM      6  C   UNL     1       1.526   7.392  20.829  0.00  0.00    +0.000 C 
ENDROOT
BRANCH   4   7
ATOM      7  C   UNL     1       0.437  10.220  19.534  0.00  0.00    +0.000 A 
ATOM      8  C   UNL     1      -0.837  10.431  18.990  0.00  0.00    +0.000 A 
ATOM      9  C   UNL     1      -1.690  11.397  19.530  0.00  0.00    +0.000 A 
ATOM     10  C   UNL     1      -1.275  12.161  20.619  0.00  0.00    +0.000 A 
ATOM     11  C   UNL     1      -0.001  11.976  21.154  0.00  0.00    +0.000 A 
ATOM     12  C   UNL     1       0.855  11.021  20.603  0.00  0.00    +0.000 A 
ENDBRANCH   4   7
BRANCH   1  13
ATOM     13  C   UNL     1       3.405   6.300  18.742  0.00  0.00    +0.000 C 
BRANCH  13  16
ATOM     14  N   UNL     1       6.146   4.812  16.843  0.00  0.00    +0.000 N 
ATOM     15  C   UNL     1       4.845   5.421  16.818  0.00  0.00    +0.000 C 
ATOM     16  C   UNL     1       4.792   6.246  18.102  0.00  0.00    +0.000 C 
ATOM     17  C   UNL     1       5.805   5.558  19.029  0.00  0.00    +0.000 C 
ATOM     18  C   UNL     1       6.737   4.847  18.089  0.00  0.00    +0.000 C 
ATOM     19  O   UNL     1       7.806   4.342  18.403  0.00  0.00    +0.000 OA
BRANCH  14  20
ATOM     20  C   UNL     1       6.713   4.147  15.684  0.00  0.00    +0.000 C 
BRANCH  20  21
ATOM     21  C   UNL     1       6.136   4.633  14.354  0.00  0.00    +0.000 C 
BRANCH  21  23
ATOM     22  C   UNL     1       6.468   3.587  12.269  0.00  0.00    +0.000 C 
ATOM     23  O   UNL     1       5.836   3.496  13.538  0.00  0.00    +0.000 OA
ENDBRANCH  21  23
ENDBRANCH  20  21
ENDBRANCH  14  20
ENDBRANCH  13  16
ENDBRANCH   1  13
TORSDOF 6
ENDMDL
