MODEL 1
REMARK VINA RESULT:      -7.9      0.000      0.000
REMARK  Name = 
REMARK  1 active torsions:
REMARK  status: ('A' for Active; 'I' for Inactive)
REMARK    1  A    between atoms: C_2  and  C_3
REMARK                            x       y       z     vdW  Elec       q    Type
REMARK                         _______ _______ _______ _____ _____    ______ ____
ROOT
ATOM      1  O   UNL     1       7.710   4.795  16.433  0.00  0.00    +0.000 OA
ATOM      2  C   UNL     1       6.955   5.449  17.152  0.00  0.00    +0.000 C 
ATOM      3  N   UNL     1       5.710   4.980  17.550  0.00  0.00    +0.000 N 
ATOM      4  C   UNL     1       5.326   3.603  17.310  0.00  0.00    +0.000 C 
ATOM      5  C   UNL     1       3.804   3.563  17.439  0.00  0.00    +0.000 C 
ATOM      6  C   UNL     1       3.211   2.426  18.300  0.00  0.00    +0.000 C 
ATOM      7  C   UNL     1       3.640   2.559  19.774  0.00  0.00    +0.000 C 
ATOM      8  C   UNL     1       3.182   3.906  20.345  0.00  0.00    +0.000 C 
ATOM      9  C   UNL     1       2.478   4.738  19.255  0.00  0.00    +0.000 C 
ATOM     10  C   UNL     1       1.242   3.941  18.799  0.00  0.00    +0.000 C 
ATOM     11  C   UNL     1       1.672   2.567  18.251  0.00  0.00    +0.000 C 
ATOM     12  C   UNL     1       3.382   4.931  18.018  0.00  0.00    +0.000 C 
ATOM     13  C   UNL     1       4.674   5.693  18.278  0.00  0.00    +0.000 C 
ENDROOT
BRANCH   2  14
ATOM     14  C   UNL     1       7.420   6.772  17.598  0.00  0.00    +0.000 A 
ATOM     15  C   UNL     1       7.148   7.915  16.886  0.00  0.00    +0.000 A 
ATOM     16  N   UNL     1       7.591   9.148  17.247  0.00  0.00    +0.000 NA
ATOM     17  C   UNL     1       8.354   9.248  18.347  0.00  0.00    +0.000 A 
ATOM     18  N   UNL     1       8.785  10.474  18.780  0.00  0.00    +0.000 N 
ATOM     19  C   UNL     1       8.597  11.683  17.982  0.00  0.00    +0.000 C 
ATOM     20  C   UNL     1       9.960  12.258  17.560  0.00  0.00    +0.000 C 
ATOM     21  O   UNL     1      10.842  12.434  18.684  0.00  0.00    +0.000 OA
ATOM     22  C   UNL     1      11.074  11.174  19.332  0.00  0.00    +0.000 C 
ATOM     23  C   UNL     1       9.764  10.574  19.864  0.00  0.00    +0.000 C 
ATOM     24  N   UNL     1       8.699   8.172  19.070  0.00  0.00    +0.000 NA
ATOM     25  C   UNL     1       8.247   6.965  18.672  0.00  0.00    +0.000 A 
ENDBRANCH   2  14
TORSDOF 1
ENDMDL
MODEL 2
REMARK VINA RESULT:      -7.6      5.674      6.863
REMARK  Name = 
REMARK  1 active torsions:
REMARK  status: ('A' for Active; 'I' for Inactive)
REMARK    1  A    between atoms: C_2  and  C_3
REMARK                            x       y       z     vdW  Elec       q    Type
REMARK                         _______ _______ _______ _____ _____    ______ ____
ROOT
ATOM      1  O   UNL     1       3.757   8.133  17.416  0.00  0.00    +0.000 OA
ATOM      2  C   UNL     1       2.858   7.607  18.071  0.00  0.00    +0.000 C 
ATOM      3  N   UNL     1       2.769   6.232  18.249  0.00  0.00    +0.000 N 
ATOM      4  C   UNL     1       3.857   5.362  17.848  0.00  0.00    +0.000 C 
ATOM      5  C   UNL     1       3.260   3.958  17.756  0.00  0.00    +0.000 C 
ATOM      6  C   UNL     1       4.058   2.821  18.431  0.00  0.00    +0.000 C 
ATOM      7  C   UNL     1       4.136   3.021  19.956  0.00  0.00    +0.000 C 
ATOM      8  C   UNL     1       2.728   3.069  20.562  0.00  0.00    +0.000 C 
ATOM      9  C   UNL     1       1.663   2.955  19.454  0.00  0.00    +0.000 C 
ATOM     10  C   UNL     1       1.866   1.593  18.765  0.00  0.00    +0.000 C 
ATOM     11  C   UNL     1       3.286   1.505  18.175  0.00  0.00    +0.000 C 
ATOM     12  C   UNL     1       1.849   4.047  18.377  0.00  0.00    +0.000 C 
ATOM     13  C   UNL     1       1.699   5.476  18.877  0.00  0.00    +0.000 C 
ENDROOT
BRANCH   2  14
ATOM     14  C   UNL     1       1.855   8.494  18.682  0.00  0.00    +0.000 A 
ATOM     15  C   UNL     1       1.124   9.386  17.937  0.00  0.00    +0.000 A 
ATOM     16  N   UNL     1       0.217  10.247  18.472  0.00  0.00    +0.000 NA
ATOM     17  C   UNL     1       0.045  10.235  19.803  0.00  0.00    +0.000 A 
ATOM     18  N   UNL     1      -0.892  11.047  20.386  0.00  0.00    +0.000 N 
ATOM     19  C   UNL     1      -1.601  12.074  19.626  0.00  0.00    +0.000 C 
ATOM     20  C   UNL     1      -1.242  13.471  20.160  0.00  0.00    +0.000 C 
ATOM     21  O   UNL     1      -1.428  13.568  21.584  0.00  0.00    +0.000 OA
ATOM     22  C   UNL     1      -0.597  12.610  22.258  0.00  0.00    +0.000 C 
ATOM     23  C   UNL     1      -0.957  11.176  21.843  0.00  0.00    +0.000 C 
ATOM     24  N   UNL     1       0.753   9.422  20.602  0.00  0.00    +0.000 NA
ATOM     25  C   UNL     1       1.651   8.592  20.033  0.00  0.00    +0.000 A 
ENDBRANCH   2  14
TORSDOF 1
ENDMDL
MODEL 3
REMARK VINA RESULT:      -7.2      5.944      9.564
REMARK  Name = 
REMARK  1 active torsions:
REMARK  status: ('A' for Active; 'I' for Inactive)
REMARK    1  A    between atoms: C_2  and  C_3
REMARK                            x       y       z     vdW  Elec       q    Type
REMARK                         _______ _______ _______ _____ _____    ______ ____
ROOT
ATOM      1  O   UNL     1      -0.823  10.342  19.342  0.00  0.00    +0.000 OA
ATOM      2  C   UNL     1       0.374  10.506  19.111  0.00  0.00    +0.000 C 
ATOM      3  N   UNL     1       0.938  11.766  18.948  0.00  0.00    +0.000 N 
ATOM      4  C   UNL     1       0.178  12.962  19.254  0.00  0.00    +0.000 C 
ATOM      5  C   UNL     1       0.898  14.109  18.546  0.00  0.00    +0.000 C 
ATOM      6  C   UNL     1       1.153  15.385  19.379  0.00  0.00    +0.000 C 
ATOM      7  C   UNL     1       2.107  15.103  20.556  0.00  0.00    +0.000 C 
ATOM      8  C   UNL     1       3.449  14.568  20.042  0.00  0.00    +0.000 C 
ATOM      9  C   UNL     1       3.416  14.426  18.507  0.00  0.00    +0.000 C 
ATOM     10  C   UNL     1       3.180  15.831  17.923  0.00  0.00    +0.000 C 
ATOM     11  C   UNL     1       1.852  16.407  18.452  0.00  0.00    +0.000 C 
ATOM     12  C   UNL     1       2.242  13.534  18.047  0.00  0.00    +0.000 C 
ATOM     13  C   UNL     1       2.293  12.096  18.543  0.00  0.00    +0.000 C 
ENDROOT
BRANCH   2  14
ATOM     14  C   UNL     1       1.219   9.305  19.017  0.00  0.00    +0.000 A 
ATOM     15  C   UNL     1       1.748   8.881  17.822  0.00  0.00    +0.000 A 
ATOM     16  N   UNL     1       2.501   7.757  17.690  0.00  0.00    +0.000 NA
ATOM     17  C   UNL     1       2.719   7.011  18.784  0.00  0.00    +0.000 A 
ATOM     18  N   UNL     1       3.511   5.896  18.715  0.00  0.00    +0.000 N 
ATOM     19  C   UNL     1       3.994   5.373  17.438  0.00  0.00    +0.000 C 
ATOM     20  C   UNL     1       3.404   3.975  17.182  0.00  0.00    +0.000 C 
ATOM     21  O   UNL     1       3.620   3.087  18.294  0.00  0.00    +0.000 OA
ATOM     22  C   UNL     1       3.002   3.618  19.477  0.00  0.00    +0.000 C 
ATOM     23  C   UNL     1       3.603   4.980  19.853  0.00  0.00    +0.000 C 
ATOM     24  N   UNL     1       2.200   7.336  19.979  0.00  0.00    +0.000 NA
ATOM     25  C   UNL     1       1.449   8.454  20.065  0.00  0.00    +0.000 A 
ENDBRANCH   2  14
TORSDOF 1
ENDMDL
MODEL 4
REMARK VINA RESULT:      -7.1      5.872      9.216
REMARK  Name = 
REMARK  1 active torsions:
REMARK  status: ('A' for Active; 'I' for Inactive)
REMARK    1  A    between atoms: C_2  and  C_3
REMARK                            x       y       z     vdW  Elec       q    Type
REMARK                         _______ _______ _______ _____ _____    ______ ____
ROOT
ATOM      1  O   UNL     1      -0.686  10.308  19.719  0.00  0.00    +0.000 OA
ATOM      2  C   UNL     1       0.455  10.487  19.293  0.00  0.00    +0.000 C 
ATOM      3  N   UNL     1       0.983  11.754  19.083  0.00  0.00    +0.000 N 
ATOM      4  C   UNL     1       0.288  12.935  19.558  0.00  0.00    +0.000 C 
ATOM      5  C   UNL     1       0.878  14.111  18.781  0.00  0.00    +0.000 C 
ATOM      6  C   UNL     1       1.272  15.356  19.605  0.00  0.00    +0.000 C 
ATOM      7  C   UNL     1       2.412  15.037  20.591  0.00  0.00    +0.000 C 
ATOM      8  C   UNL     1       3.646  14.528  19.836  0.00  0.00    +0.000 C 
ATOM      9  C   UNL     1       3.352  14.442  18.325  0.00  0.00    +0.000 C 
ATOM     10  C   UNL     1       3.021  15.867  17.843  0.00  0.00    +0.000 C 
ATOM     11  C   UNL     1       1.804  16.415  18.611  0.00  0.00    +0.000 C 
ATOM     12  C   UNL     1       2.116  13.561  18.039  0.00  0.00    +0.000 C 
ATOM     13  C   UNL     1       2.250  12.106  18.465  0.00  0.00    +0.000 C 
ENDROOT
BRANCH   2  14
ATOM     14  C   UNL     1       1.270   9.294  19.012  0.00  0.00    +0.000 A 
ATOM     15  C   UNL     1       1.597   8.390  19.992  0.00  0.00    +0.000 A 
ATOM     16  N   UNL     1       2.377   7.298  19.778  0.00  0.00    +0.000 NA
ATOM     17  C   UNL     1       2.872   7.108  18.544  0.00  0.00    +0.000 A 
ATOM     18  N   UNL     1       3.624   5.998  18.264  0.00  0.00    +0.000 N 
ATOM     19  C   UNL     1       4.069   5.084  19.314  0.00  0.00    +0.000 C 
ATOM     20  C   UNL     1       5.604   5.099  19.414  0.00  0.00    +0.000 C 
ATOM     21  O   UNL     1       6.229   4.869  18.138  0.00  0.00    +0.000 OA
ATOM     22  C   UNL     1       5.837   5.887  17.204  0.00  0.00    +0.000 C 
ATOM     23  C   UNL     1       4.317   5.878  16.980  0.00  0.00    +0.000 C 
ATOM     24  N   UNL     1       2.633   7.971  17.544  0.00  0.00    +0.000 NA
ATOM     25  C   UNL     1       1.862   9.048  17.802  0.00  0.00    +0.000 A 
ENDBRANCH   2  14
TORSDOF 1
ENDMDL
MODEL 5
REMARK VINA RESULT:      -6.8      7.523     10.602
REMARK  Name = 
REMARK  1 active torsions:
REMARK  status: ('A' for Active; 'I' for Inactive)
REMARK    1  A    between atoms: C_2  and  C_3
REMARK                            x       y       z     vdW  Elec       q    Type
REMARK                         _______ _______ _______ _____ _____    ______ ____
ROOT
ATOM      1  O   UNL     1       7.303  15.732  21.921  0.00  0.00    +0.000 OA
ATOM      2  C   UNL     1       7.165  15.236  20.804  0.00  0.00    +0.000 C 
ATOM      3  N   UNL     1       8.140  14.443  20.211  0.00  0.00    +0.000 N 
ATOM      4  C   UNL     1       9.285  13.986  20.974  0.00  0.00    +0.000 C 
ATOM      5  C   UNL     1      10.333  13.563  19.945  0.00  0.00    +0.000 C 
ATOM      6  C   UNL     1      11.019  12.199  20.176  0.00  0.00    +0.000 C 
ATOM      7  C   UNL     1      10.009  11.040  20.079  0.00  0.00    +0.000 C 
ATOM      8  C   UNL     1       9.336  11.031  18.701  0.00  0.00    +0.000 C 
ATOM      9  C   UNL     1       9.837  12.215  17.852  0.00  0.00    +0.000 C 
ATOM     10  C   UNL     1      11.356  12.035  17.669  0.00  0.00    +0.000 C 
ATOM     11  C   UNL     1      12.054  12.007  19.042  0.00  0.00    +0.000 C 
ATOM     12  C   UNL     1       9.618  13.562  18.575  0.00  0.00    +0.000 C 
ATOM     13  C   UNL     1       8.164  13.911  18.860  0.00  0.00    +0.000 C 
ENDROOT
BRANCH   2  14
ATOM     14  C   UNL     1       5.904  15.504  20.093  0.00  0.00    +0.000 A 
ATOM     15  C   UNL     1       5.774  16.551  19.214  0.00  0.00    +0.000 A 
ATOM     16  N   UNL     1       4.616  16.852  18.569  0.00  0.00    +0.000 NA
ATOM     17  C   UNL     1       3.537  16.095  18.823  0.00  0.00    +0.000 A 
ATOM     18  N   UNL     1       2.360  16.325  18.162  0.00  0.00    +0.000 N 
ATOM     19  C   UNL     1       2.173  17.495  17.307  0.00  0.00    +0.000 C 
ATOM     20  C   UNL     1       1.082  18.410  17.890  0.00  0.00    +0.000 C 
ATOM     21  O   UNL     1      -0.134  17.690  18.166  0.00  0.00    +0.000 OA
ATOM     22  C   UNL     1       0.117  16.640  19.114  0.00  0.00    +0.000 C 
ATOM     23  C   UNL     1       1.136  15.631  18.565  0.00  0.00    +0.000 C 
ATOM     24  N   UNL     1       3.574  15.081  19.702  0.00  0.00    +0.000 NA
ATOM     25  C   UNL     1       4.739  14.823  20.329  0.00  0.00    +0.000 A 
ENDBRANCH   2  14
TORSDOF 1
ENDMDL
MODEL 6
REMARK VINA RESULT:      -6.8      1.088      1.797
REMARK  Name = 
REMARK  1 active torsions:
REMARK  status: ('A' for Active; 'I' for Inactive)
REMARK    1  A    between atoms: C_2  and  C_3
REMARK                            x       y       z     vdW  Elec       q    Type
REMARK                         _______ _______ _______ _____ _____    ______ ____
ROOT
ATOM      1  O   UNL     1       6.812   4.159  16.631  0.00  0.00    +0.000 OA
ATOM      2  C   UNL     1       6.295   4.962  17.407  0.00  0.00    +0.000 C 
ATOM      3  N   UNL     1       5.083   4.715  18.040  0.00  0.00    +0.000 N 
ATOM      4  C   UNL     1       4.471   3.402  17.982  0.00  0.00    +0.000 C 
ATOM      5  C   UNL     1       3.004   3.606  18.360  0.00  0.00    +0.000 C 
ATOM      6  C   UNL     1       2.415   2.626  19.398  0.00  0.00    +0.000 C 
ATOM      7  C   UNL     1       3.107   2.776  20.765  0.00  0.00    +0.000 C 
ATOM      8  C   UNL     1       2.952   4.209  21.289  0.00  0.00    +0.000 C 
ATOM      9  C   UNL     1       2.195   5.075  20.263  0.00  0.00    +0.000 C 
ATOM     10  C   UNL     1       0.798   4.454  20.083  0.00  0.00    +0.000 C 
ATOM     11  C   UNL     1       0.926   3.000  19.589  0.00  0.00    +0.000 C 
ATOM     12  C   UNL     1       2.890   5.054  18.884  0.00  0.00    +0.000 C 
ATOM     13  C   UNL     1       4.302   5.621  18.865  0.00  0.00    +0.000 C 
ENDROOT
BRANCH   2  14
ATOM     14  C   UNL     1       7.013   6.221  17.659  0.00  0.00    +0.000 A 
ATOM     15  C   UNL     1       7.837   6.382  18.746  0.00  0.00    +0.000 A 
ATOM     16  N   UNL     1       8.487   7.541  19.032  0.00  0.00    +0.000 NA
ATOM     17  C   UNL     1       8.294   8.591  18.217  0.00  0.00    +0.000 A 
ATOM     18  N   UNL     1       8.963   9.766  18.433  0.00  0.00    +0.000 N 
ATOM     19  C   UNL     1       9.758   9.990  19.638  0.00  0.00    +0.000 C 
ATOM     20  C   UNL     1       9.147  11.129  20.472  0.00  0.00    +0.000 C 
ATOM     21  O   UNL     1       8.933  12.316  19.688  0.00  0.00    +0.000 OA
ATOM     22  C   UNL     1       8.039  12.035  18.600  0.00  0.00    +0.000 C 
ATOM     23  C   UNL     1       8.621  10.965  17.665  0.00  0.00    +0.000 C 
ATOM     24  N   UNL     1       7.470   8.524  17.159  0.00  0.00    +0.000 NA
ATOM     25  C   UNL     1       6.836   7.359  16.918  0.00  0.00    +0.000 A 
ENDBRANCH   2  14
TORSDOF 1
ENDMDL
MODEL 7
REMARK VINA RESULT:      -6.7      5.596      7.352
REMARK  Name = 
REMARK  1 active torsions:
REMARK  status: ('A' for Active; 'I' for Inactive)
REMARK    1  A    between atoms: C_2  and  C_3
REMARK                            x       y       z     vdW  Elec       q    Type
REMARK                         _______ _______ _______ _____ _____    ______ ____
ROOT
ATOM      1  O   UNL     1       1.754   5.382  20.411  0.00  0.00    +0.000 OA
ATOM      2  C   UNL     1       2.332   6.284  19.805  0.00  0.00    +0.000 C 
ATOM      3  N   UNL     1       3.433   6.050  18.990  0.00  0.00    +0.000 N 
ATOM      4  C   UNL     1       3.823   4.697  18.643  0.00  0.00    +0.000 C 
ATOM      5  C   UNL     1       5.269   4.790  18.156  0.00  0.00    +0.000 C 
ATOM      6  C   UNL     1       5.605   4.050  16.843  0.00  0.00    +0.000 C 
ATOM      7  C   UNL     1       4.840   4.652  15.649  0.00  0.00    +0.000 C 
ATOM      8  C   UNL     1       5.186   6.137  15.486  0.00  0.00    +0.000 C 
ATOM      9  C   UNL     1       6.154   6.587  16.598  0.00  0.00    +0.000 C 
ATOM     10  C   UNL     1       7.440   5.753  16.448  0.00  0.00    +0.000 C 
ATOM     11  C   UNL     1       7.115   4.252  16.575  0.00  0.00    +0.000 C 
ATOM     12  C   UNL     1       5.578   6.295  18.002  0.00  0.00    +0.000 C 
ATOM     13  C   UNL     1       4.284   7.025  18.331  0.00  0.00    +0.000 C 
ENDROOT
BRANCH   2  14
ATOM     14  C   UNL     1       1.813   7.651  19.964  0.00  0.00    +0.000 A 
ATOM     15  C   UNL     1       1.379   8.127  21.177  0.00  0.00    +0.000 A 
ATOM     16  N   UNL     1       0.859   9.370  21.355  0.00  0.00    +0.000 NA
ATOM     17  C   UNL     1       0.744  10.166  20.280  0.00  0.00    +0.000 A 
ATOM     18  N   UNL     1       0.271  11.444  20.414  0.00  0.00    +0.000 N 
ATOM     19  C   UNL     1      -0.291  11.930  21.672  0.00  0.00    +0.000 C 
ATOM     20  C   UNL     1      -1.782  12.266  21.491  0.00  0.00    +0.000 C 
ATOM     21  O   UNL     1      -2.004  13.148  20.375  0.00  0.00    +0.000 OA
ATOM     22  C   UNL     1      -1.538  12.537  19.162  0.00  0.00    +0.000 C 
ATOM     23  C   UNL     1      -0.031  12.250  19.229  0.00  0.00    +0.000 C 
ATOM     24  N   UNL     1       1.105   9.757  19.054  0.00  0.00    +0.000 NA
ATOM     25  C   UNL     1       1.606   8.512  18.919  0.00  0.00    +0.000 A 
ENDBRANCH   2  14
TORSDOF 1
ENDMDL
MODEL 8
REMARK VINA RESULT:      -6.5      5.652      6.907
REMARK  Name = 
REMARK  1 active torsions:
REMARK  status: ('A' for Active; 'I' for Inactive)
REMARK    1  A    between atoms: C_2  and  C_3
REMARK                            x       y       z     vdW  Elec       q    Type
REMARK                         _______ _______ _______ _____ _____    ______ ____
ROOT
ATOM      1  O   UNL     1       3.643   8.056  16.924  0.00  0.00    +0.000 OA
ATOM      2  C   UNL     1       2.889   7.699  17.828  0.00  0.00    +0.000 C 
ATOM      3  N   UNL     1       2.692   6.362  18.152  0.00  0.00    +0.000 N 
ATOM      4  C   UNL     1       3.533   5.330  17.578  0.00  0.00    +0.000 C 
ATOM      5  C   UNL     1       2.775   4.017  17.769  0.00  0.00    +0.000 C 
ATOM      6  C   UNL     1       3.583   2.826  18.330  0.00  0.00    +0.000 C 
ATOM      7  C   UNL     1       4.073   3.108  19.763  0.00  0.00    +0.000 C 
ATOM      8  C   UNL     1       2.884   3.384  20.691  0.00  0.00    +0.000 C 
ATOM      9  C   UNL     1       1.564   3.346  19.896  0.00  0.00    +0.000 C 
ATOM     10  C   UNL     1       1.425   1.929  19.310  0.00  0.00    +0.000 C 
ATOM     11  C   UNL     1       2.626   1.613  18.399  0.00  0.00    +0.000 C 
ATOM     12  C   UNL     1       1.591   4.334  18.709  0.00  0.00    +0.000 C 
ATOM     13  C   UNL     1       1.740   5.799  19.093  0.00  0.00    +0.000 C 
ENDROOT
BRANCH   2  14
ATOM     14  C   UNL     1       2.186   8.749  18.581  0.00  0.00    +0.000 A 
ATOM     15  C   UNL     1       1.729   8.543  19.860  0.00  0.00    +0.000 A 
ATOM     16  N   UNL     1       1.044   9.476  20.573  0.00  0.00    +0.000 NA
ATOM     17  C   UNL     1       0.783  10.654  19.984  0.00  0.00    +0.000 A 
ATOM     18  N   UNL     1       0.139  11.645  20.676  0.00  0.00    +0.000 N 
ATOM     19  C   UNL     1      -0.446  11.409  21.994  0.00  0.00    +0.000 C 
ATOM     20  C   UNL     1      -1.974  11.578  21.935  0.00  0.00    +0.000 C 
ATOM     21  O   UNL     1      -2.354  12.835  21.345  0.00  0.00    +0.000 OA
ATOM     22  C   UNL     1      -1.846  12.927  20.005  0.00  0.00    +0.000 C 
ATOM     23  C   UNL     1      -0.312  12.856  19.988  0.00  0.00    +0.000 C 
ATOM     24  N   UNL     1       1.159  10.914  18.722  0.00  0.00    +0.000 NA
ATOM     25  C   UNL     1       1.826   9.957  18.046  0.00  0.00    +0.000 A 
ENDBRANCH   2  14
TORSDOF 1
ENDMDL
MODEL 9
REMARK VINA RESULT:      -6.5      6.462     10.093
REMARK  Name = 
REMARK  1 active torsions:
REMARK  status: ('A' for Active; 'I' for Inactive)
REMARK    1  A    between atoms: C_2  and  C_3
REMARK                            x       y       z     vdW  Elec       q    Type
REMARK                         _______ _______ _______ _____ _____    ______ ____
ROOT
ATOM      1  O   UNL     1      -0.920  11.446  18.296  0.00  0.00    +0.000 OA
ATOM      2  C   UNL     1       0.248  11.471  18.683  0.00  0.00    +0.000 C 
ATOM      3  N   UNL     1       0.911  12.654  18.984  0.00  0.00    +0.000 N 
ATOM      4  C   UNL     1       0.189  13.909  19.059  0.00  0.00    +0.000 C 
ATOM      5  C   UNL     1       1.244  15.008  18.944  0.00  0.00    +0.000 C 
ATOM      6  C   UNL     1       1.157  16.161  19.968  0.00  0.00    +0.000 C 
ATOM      7  C   UNL     1       1.397  15.655  21.403  0.00  0.00    +0.000 C 
ATOM      8  C   UNL     1       2.776  14.994  21.513  0.00  0.00    +0.000 C 
ATOM      9  C   UNL     1       3.481  14.992  20.143  0.00  0.00    +0.000 C 
ATOM     10  C   UNL     1       3.662  16.462  19.720  0.00  0.00    +0.000 C 
ATOM     11  C   UNL     1       2.291  17.159  19.634  0.00  0.00    +0.000 C 
ATOM     12  C   UNL     1       2.615  14.306  19.063  0.00  0.00    +0.000 C 
ATOM     13  C   UNL     1       2.313  12.836  19.317  0.00  0.00    +0.000 C 
ENDROOT
BRANCH   2  14
ATOM     14  C   UNL     1       0.941  10.181  18.831  0.00  0.00    +0.000 A 
ATOM     15  C   UNL     1       1.602   9.588  17.784  0.00  0.00    +0.000 A 
ATOM     16  N   UNL     1       2.222   8.381  17.873  0.00  0.00    +0.000 NA
ATOM     17  C   UNL     1       2.164   7.726  19.044  0.00  0.00    +0.000 A 
ATOM     18  N   UNL     1       2.813   6.531  19.200  0.00  0.00    +0.000 N 
ATOM     19  C   UNL     1       3.429   5.835  18.072  0.00  0.00    +0.000 C 
ATOM     20  C   UNL     1       2.721   4.491  17.827  0.00  0.00    +0.000 C 
ATOM     21  O   UNL     1       2.640   3.699  19.025  0.00  0.00    +0.000 OA
ATOM     22  C   UNL     1       1.908   4.406  20.038  0.00  0.00    +0.000 C 
ATOM     23  C   UNL     1       2.603   5.726  20.405  0.00  0.00    +0.000 C 
ATOM     24  N   UNL     1       1.500   8.222  20.100  0.00  0.00    +0.000 NA
ATOM     25  C   UNL     1       0.890   9.417  19.967  0.00  0.00    +0.000 A 
ENDBRANCH   2  14
TORSDOF 1
ENDMDL
