MODEL 1
REMARK VINA RESULT:      -8.0      0.000      0.000
REMARK  Name = 
REMARK  5 active torsions:
REMARK  status: ('A' for Active; 'I' for Inactive)
REMARK    1  A    between atoms: C_1  and  C_2
REMARK    2  A    between atoms: C_6  and  N_7
REMARK    3  A    between atoms: C_13  and  C_14
REMARK    4  A    between atoms: C_13  and  C_15
REMARK    5  A    between atoms: C_17  and  C_18
REMARK                            x       y       z     vdW  Elec       q    Type
REMARK                         _______ _______ _______ _____ _____    ______ ____
ROOT
ATOM      1  N   UNL     1       5.057   3.746  19.334  0.00  0.00    +0.000 N 
ATOM      2  C   UNL     1       3.810   4.113  19.767  0.00  0.00    +0.000 C 
ATOM      3  N   UNL     1       3.404   5.331  19.891  0.00  0.00    +0.000 NA
ATOM      4  C   UNL     1       2.171   5.554  20.384  0.00  0.00    +0.000 C 
ATOM      5  N   UNL     1       1.850   6.852  20.590  0.00  0.00    +0.000 N 
ATOM      6  N   UNL     1       1.284   4.656  20.633  0.00  0.00    +0.000 NA
ATOM      7  C   UNL     1       1.669   3.270  20.439  0.00  0.00    +0.000 C 
ATOM      8  C   UNL     1       0.769   2.692  19.335  0.00  0.00    +0.000 C 
ATOM      9  C   UNL     1       1.389   2.552  21.763  0.00  0.00    +0.000 C 
ATOM     10  N   UNL     1       3.050   3.053  20.121  0.00  0.00    +0.000 N 
ATOM     11  H   UNL     1       5.565   3.338  20.110  0.00  0.00    +0.000 HD
ATOM     12  H   UNL     1       2.406   7.469  20.013  0.00  0.00    +0.000 HD
ATOM     13  H   UNL     1       0.849   7.009  20.547  0.00  0.00    +0.000 HD
ATOM     14  H   UNL     1       3.351   2.120  19.884  0.00  0.00    +0.000 HD
ENDROOT
BRANCH   1  20
ATOM     15  C   UNL     1       6.531   5.488  14.840  0.00  0.00    +0.000 C 
ATOM     16  C   UNL     1       6.584   5.463  16.346  0.00  0.00    +0.000 A 
ATOM     17  C   UNL     1       7.470   6.337  16.993  0.00  0.00    +0.000 A 
ATOM     18  C   UNL     1       7.558   6.352  18.376  0.00  0.00    +0.000 A 
ATOM     19  C   UNL     1       6.769   5.484  19.127  0.00  0.00    +0.000 A 
ATOM     20  C   UNL     1       5.893   4.561  18.519  0.00  0.00    +0.000 A 
ATOM     21  C   UNL     1       5.774   4.575  17.108  0.00  0.00    +0.000 A 
ATOM     22  C   UNL     1       4.839   3.652  16.363  0.00  0.00    +0.000 C 
ENDBRANCH   1  20
TORSDOF 1
ENDMDL
MODEL 2
REMARK VINA RESULT:      -7.3      0.650      1.884
REMARK  Name = 
REMARK  5 active torsions:
REMARK  status: ('A' for Active; 'I' for Inactive)
REMARK    1  A    between atoms: C_1  and  C_2
REMARK    2  A    between atoms: C_6  and  N_7
REMARK    3  A    between atoms: C_13  and  C_14
REMARK    4  A    between atoms: C_13  and  C_15
REMARK    5  A    between atoms: C_17  and  C_18
REMARK                            x       y       z     vdW  Elec       q    Type
REMARK                         _______ _______ _______ _____ _____    ______ ____
ROOT
ATOM      1  N   UNL     1       4.673   3.527  18.584  0.00  0.00    +0.000 N 
ATOM      2  C   UNL     1       3.569   3.901  19.305  0.00  0.00    +0.000 C 
ATOM      3  N   UNL     1       3.227   5.120  19.545  0.00  0.00    +0.000 NA
ATOM      4  C   UNL     1       2.148   5.349  20.318  0.00  0.00    +0.000 C 
ATOM      5  N   UNL     1       1.908   6.646  20.619  0.00  0.00    +0.000 N 
ATOM      6  N   UNL     1       1.328   4.457  20.750  0.00  0.00    +0.000 NA
ATOM      7  C   UNL     1       1.631   3.071  20.444  0.00  0.00    +0.000 C 
ATOM      8  C   UNL     1       0.486   2.531  19.570  0.00  0.00    +0.000 C 
ATOM      9  C   UNL     1       1.656   2.326  21.782  0.00  0.00    +0.000 C 
ATOM     10  N   UNL     1       2.894   2.843  19.806  0.00  0.00    +0.000 N 
ATOM     11  H   UNL     1       5.341   3.094  19.210  0.00  0.00    +0.000 HD
ATOM     12  H   UNL     1       2.325   7.268  19.940  0.00  0.00    +0.000 HD
ATOM     13  H   UNL     1       0.928   6.817  20.815  0.00  0.00    +0.000 HD
ATOM     14  H   UNL     1       3.114   1.911  19.487  0.00  0.00    +0.000 HD
ENDROOT
BRANCH   1  20
ATOM     15  C   UNL     1       7.919   7.159  17.289  0.00  0.00    +0.000 C 
ATOM     16  C   UNL     1       6.927   6.074  16.958  0.00  0.00    +0.000 A 
ATOM     17  C   UNL     1       6.655   5.813  15.607  0.00  0.00    +0.000 A 
ATOM     18  C   UNL     1       5.749   4.827  15.250  0.00  0.00    +0.000 A 
ATOM     19  C   UNL     1       5.097   4.097  16.241  0.00  0.00    +0.000 A 
ATOM     20  C   UNL     1       5.310   4.349  17.612  0.00  0.00    +0.000 A 
ATOM     21  C   UNL     1       6.266   5.330  17.975  0.00  0.00    +0.000 A 
ATOM     22  C   UNL     1       6.593   5.651  19.415  0.00  0.00    +0.000 C 
ENDBRANCH   1  20
TORSDOF 1
ENDMDL
MODEL 3
REMARK VINA RESULT:      -7.2      2.360      5.999
REMARK  Name = 
REMARK  5 active torsions:
REMARK  status: ('A' for Active; 'I' for Inactive)
REMARK    1  A    between atoms: C_1  and  C_2
REMARK    2  A    between atoms: C_6  and  N_7
REMARK    3  A    between atoms: C_13  and  C_14
REMARK    4  A    between atoms: C_13  and  C_15
REMARK    5  A    between atoms: C_17  and  C_18
REMARK                            x       y       z     vdW  Elec       q    Type
REMARK                         _______ _______ _______ _____ _____    ______ ____
ROOT
ATOM      1  N   UNL     1       3.722   5.988  17.003  0.00  0.00    +0.000 N 
ATOM      2  C   UNL     1       4.976   5.478  16.790  0.00  0.00    +0.000 C 
ATOM      3  N   UNL     1       5.779   5.089  17.721  0.00  0.00    +0.000 NA
ATOM      4  C   UNL     1       7.008   4.660  17.377  0.00  0.00    +0.000 C 
ATOM      5  N   UNL     1       7.836   4.371  18.407  0.00  0.00    +0.000 N 
ATOM      6  N   UNL     1       7.434   4.475  16.177  0.00  0.00    +0.000 NA
ATOM      7  C   UNL     1       6.538   4.831  15.092  0.00  0.00    +0.000 C 
ATOM      8  C   UNL     1       6.226   3.542  14.311  0.00  0.00    +0.000 C 
ATOM      9  C   UNL     1       7.308   5.805  14.195  0.00  0.00    +0.000 C 
ATOM     10  N   UNL     1       5.323   5.482  15.484  0.00  0.00    +0.000 N 
ATOM     11  H   UNL     1       3.724   6.971  16.760  0.00  0.00    +0.000 HD
ATOM     12  H   UNL     1       7.320   4.156  19.250  0.00  0.00    +0.000 HD
ATOM     13  H   UNL     1       8.542   3.689  18.150  0.00  0.00    +0.000 HD
ATOM     14  H   UNL     1       4.624   5.666  14.780  0.00  0.00    +0.000 HD
ENDROOT
BRANCH   1  20
ATOM     15  C   UNL     1       0.941   2.920  19.876  0.00  0.00    +0.000 C 
ATOM     16  C   UNL     1       1.631   4.232  19.601  0.00  0.00    +0.000 A 
ATOM     17  C   UNL     1       1.548   5.241  20.572  0.00  0.00    +0.000 A 
ATOM     18  C   UNL     1       2.165   6.465  20.365  0.00  0.00    +0.000 A 
ATOM     19  C   UNL     1       2.861   6.697  19.182  0.00  0.00    +0.000 A 
ATOM     20  C   UNL     1       2.938   5.727  18.162  0.00  0.00    +0.000 A 
ATOM     21  C   UNL     1       2.343   4.462  18.391  0.00  0.00    +0.000 A 
ATOM     22  C   UNL     1       2.400   3.343  17.378  0.00  0.00    +0.000 C 
ENDBRANCH   1  20
TORSDOF 1
ENDMDL
MODEL 4
REMARK VINA RESULT:      -7.1      1.829      2.965
REMARK  Name = 
REMARK  5 active torsions:
REMARK  status: ('A' for Active; 'I' for Inactive)
REMARK    1  A    between atoms: C_1  and  C_2
REMARK    2  A    between atoms: C_6  and  N_7
REMARK    3  A    between atoms: C_13  and  C_14
REMARK    4  A    between atoms: C_13  and  C_15
REMARK    5  A    between atoms: C_17  and  C_18
REMARK                            x       y       z     vdW  Elec       q    Type
REMARK                         _______ _______ _______ _____ _____    ______ ____
ROOT
ATOM      1  N   UNL     1       3.657   4.202  16.750  0.00  0.00    +0.000 N 
ATOM      2  C   UNL     1       3.429   3.598  17.959  0.00  0.00    +0.000 C 
ATOM      3  N   UNL     1       4.334   3.023  18.675  0.00  0.00    +0.000 NA
ATOM      4  C   UNL     1       3.964   2.415  19.819  0.00  0.00    +0.000 C 
ATOM      5  N   UNL     1       4.941   1.740  20.465  0.00  0.00    +0.000 N 
ATOM      6  N   UNL     1       2.792   2.458  20.350  0.00  0.00    +0.000 NA
ATOM      7  C   UNL     1       1.754   3.157  19.616  0.00  0.00    +0.000 C 
ATOM      8  C   UNL     1       1.299   4.345  20.481  0.00  0.00    +0.000 C 
ATOM      9  C   UNL     1       0.598   2.166  19.448  0.00  0.00    +0.000 C 
ATOM     10  N   UNL     1       2.123   3.607  18.306  0.00  0.00    +0.000 N 
ATOM     11  H   UNL     1       3.214   3.654  16.023  0.00  0.00    +0.000 HD
ATOM     12  H   UNL     1       5.858   2.086  20.218  0.00  0.00    +0.000 HD
ATOM     13  H   UNL     1       4.762   1.668  21.461  0.00  0.00    +0.000 HD
ATOM     14  H   UNL     1       1.472   4.180  17.790  0.00  0.00    +0.000 HD
ENDROOT
BRANCH   1  20
ATOM     15  C   UNL     1       7.520   7.402  17.241  0.00  0.00    +0.000 C 
ATOM     16  C   UNL     1       6.834   6.224  16.597  0.00  0.00    +0.000 A 
ATOM     17  C   UNL     1       7.502   5.551  15.564  0.00  0.00    +0.000 A 
ATOM     18  C   UNL     1       6.914   4.464  14.938  0.00  0.00    +0.000 A 
ATOM     19  C   UNL     1       5.645   4.045  15.331  0.00  0.00    +0.000 A 
ATOM     20  C   UNL     1       4.919   4.714  16.337  0.00  0.00    +0.000 A 
ATOM     21  C   UNL     1       5.538   5.799  17.004  0.00  0.00    +0.000 A 
ATOM     22  C   UNL     1       4.860   6.560  18.120  0.00  0.00    +0.000 C 
ENDBRANCH   1  20
TORSDOF 1
ENDMDL
MODEL 5
REMARK VINA RESULT:      -7.0      2.312      6.048
REMARK  Name = 
REMARK  5 active torsions:
REMARK  status: ('A' for Active; 'I' for Inactive)
REMARK    1  A    between atoms: C_1  and  C_2
REMARK    2  A    between atoms: C_6  and  N_7
REMARK    3  A    between atoms: C_13  and  C_14
REMARK    4  A    between atoms: C_13  and  C_15
REMARK    5  A    between atoms: C_17  and  C_18
REMARK                            x       y       z     vdW  Elec       q    Type
REMARK                         _______ _______ _______ _____ _____    ______ ____
ROOT
ATOM      1  N   UNL     1       3.757   2.861  17.347  0.00  0.00    +0.000 N 
ATOM      2  C   UNL     1       4.483   3.979  17.026  0.00  0.00    +0.000 C 
ATOM      3  N   UNL     1       4.078   5.191  17.199  0.00  0.00    +0.000 NA
ATOM      4  C   UNL     1       4.868   6.201  16.786  0.00  0.00    +0.000 C 
ATOM      5  N   UNL     1       4.339   7.441  16.896  0.00  0.00    +0.000 N 
ATOM      6  N   UNL     1       6.070   6.084  16.341  0.00  0.00    +0.000 NA
ATOM      7  C   UNL     1       6.598   4.740  16.196  0.00  0.00    +0.000 C 
ATOM      8  C   UNL     1       7.805   4.615  17.142  0.00  0.00    +0.000 C 
ATOM      9  C   UNL     1       7.064   4.610  14.743  0.00  0.00    +0.000 C 
ATOM     10  N   UNL     1       5.662   3.681  16.440  0.00  0.00    +0.000 N 
ATOM     11  H   UNL     1       3.486   2.392  16.491  0.00  0.00    +0.000 HD
ATOM     12  H   UNL     1       3.610   7.472  17.597  0.00  0.00    +0.000 HD
ATOM     13  H   UNL     1       5.054   8.154  16.986  0.00  0.00    +0.000 HD
ATOM     14  H   UNL     1       6.000   2.730  16.446  0.00  0.00    +0.000 HD
ENDROOT
BRANCH   1  20
ATOM     15  C   UNL     1       2.163   2.467  22.112  0.00  0.00    +0.000 C 
ATOM     16  C   UNL     1       1.932   2.701  20.641  0.00  0.00    +0.000 A 
ATOM     17  C   UNL     1       0.624   2.966  20.208  0.00  0.00    +0.000 A 
ATOM     18  C   UNL     1       0.359   3.186  18.866  0.00  0.00    +0.000 A 
ATOM     19  C   UNL     1       1.397   3.133  17.940  0.00  0.00    +0.000 A 
ATOM     20  C   UNL     1       2.721   2.832  18.322  0.00  0.00    +0.000 A 
ATOM     21  C   UNL     1       2.997   2.648  19.699  0.00  0.00    +0.000 A 
ATOM     22  C   UNL     1       4.387   2.357  20.216  0.00  0.00    +0.000 C 
ENDBRANCH   1  20
TORSDOF 1
ENDMDL
MODEL 6
REMARK VINA RESULT:      -7.0      2.590      4.479
REMARK  Name = 
REMARK  5 active torsions:
REMARK  status: ('A' for Active; 'I' for Inactive)
REMARK    1  A    between atoms: C_1  and  C_2
REMARK    2  A    between atoms: C_6  and  N_7
REMARK    3  A    between atoms: C_13  and  C_14
REMARK    4  A    between atoms: C_13  and  C_15
REMARK    5  A    between atoms: C_17  and  C_18
REMARK                            x       y       z     vdW  Elec       q    Type
REMARK                         _______ _______ _______ _____ _____    ______ ____
ROOT
ATOM      1  N   UNL     1       2.809   5.939  19.987  0.00  0.00    +0.000 N 
ATOM      2  C   UNL     1       2.185   7.157  19.921  0.00  0.00    +0.000 C 
ATOM      3  N   UNL     1       2.056   7.859  18.847  0.00  0.00    +0.000 NA
ATOM      4  C   UNL     1       1.472   9.069  18.932  0.00  0.00    +0.000 C 
ATOM      5  N   UNL     1       1.466   9.797  17.791  0.00  0.00    +0.000 N 
ATOM      6  N   UNL     1       0.901   9.560  19.976  0.00  0.00    +0.000 NA
ATOM      7  C   UNL     1       0.957   8.774  21.195  0.00  0.00    +0.000 C 
ATOM      8  C   UNL     1      -0.489   8.410  21.574  0.00  0.00    +0.000 C 
ATOM      9  C   UNL     1       1.561   9.682  22.270  0.00  0.00    +0.000 C 
ATOM     10  N   UNL     1       1.767   7.593  21.129  0.00  0.00    +0.000 N 
ATOM     11  H   UNL     1       3.668   6.039  20.514  0.00  0.00    +0.000 HD
ATOM     12  H   UNL     1       1.552   9.208  16.974  0.00  0.00    +0.000 HD
ATOM     13  H   UNL     1       0.699  10.460  17.766  0.00  0.00    +0.000 HD
ATOM     14  H   UNL     1       1.765   6.961  21.917  0.00  0.00    +0.000 HD
ENDROOT
BRANCH   1  20
ATOM     15  C   UNL     1       5.485   4.072  16.146  0.00  0.00    +0.000 C 
ATOM     16  C   UNL     1       4.274   4.097  17.042  0.00  0.00    +0.000 A 
ATOM     17  C   UNL     1       3.258   3.158  16.812  0.00  0.00    +0.000 A 
ATOM     18  C   UNL     1       2.124   3.141  17.607  0.00  0.00    +0.000 A 
ATOM     19  C   UNL     1       1.987   4.071  18.635  0.00  0.00    +0.000 A 
ATOM     20  C   UNL     1       2.963   5.058  18.879  0.00  0.00    +0.000 A 
ATOM     21  C   UNL     1       4.141   5.049  18.093  0.00  0.00    +0.000 A 
ATOM     22  C   UNL     1       5.262   6.040  18.297  0.00  0.00    +0.000 C 
ENDBRANCH   1  20
TORSDOF 1
ENDMDL
MODEL 7
REMARK VINA RESULT:      -7.0      3.017      5.649
REMARK  Name = 
REMARK  5 active torsions:
REMARK  status: ('A' for Active; 'I' for Inactive)
REMARK    1  A    between atoms: C_1  and  C_2
REMARK    2  A    between atoms: C_6  and  N_7
REMARK    3  A    between atoms: C_13  and  C_14
REMARK    4  A    between atoms: C_13  and  C_15
REMARK    5  A    between atoms: C_17  and  C_18
REMARK                            x       y       z     vdW  Elec       q    Type
REMARK                         _______ _______ _______ _____ _____    ______ ____
ROOT
ATOM      1  N   UNL     1       2.782   7.141  20.101  0.00  0.00    +0.000 N 
ATOM      2  C   UNL     1       2.573   5.814  19.831  0.00  0.00    +0.000 C 
ATOM      3  N   UNL     1       1.503   5.162  20.138  0.00  0.00    +0.000 NA
ATOM      4  C   UNL     1       1.450   3.844  19.867  0.00  0.00    +0.000 C 
ATOM      5  N   UNL     1       0.346   3.200  20.311  0.00  0.00    +0.000 N 
ATOM      6  N   UNL     1       2.326   3.175  19.203  0.00  0.00    +0.000 NA
ATOM      7  C   UNL     1       3.517   3.883  18.772  0.00  0.00    +0.000 C 
ATOM      8  C   UNL     1       3.531   3.867  17.234  0.00  0.00    +0.000 C 
ATOM      9  C   UNL     1       4.712   3.089  19.309  0.00  0.00    +0.000 C 
ATOM     10  N   UNL     1       3.645   5.226  19.258  0.00  0.00    +0.000 N 
ATOM     11  H   UNL     1       3.503   7.222  20.807  0.00  0.00    +0.000 HD
ATOM     12  H   UNL     1      -0.428   3.837  20.441  0.00  0.00    +0.000 HD
ATOM     13  H   UNL     1       0.138   2.375  19.760  0.00  0.00    +0.000 HD
ATOM     14  H   UNL     1       4.405   5.794  18.914  0.00  0.00    +0.000 HD
ENDROOT
BRANCH   1  20
ATOM     15  C   UNL     1      -0.338  10.706  18.381  0.00  0.00    +0.000 C 
ATOM     16  C   UNL     1       0.176   9.788  19.460  0.00  0.00    +0.000 A 
ATOM     17  C   UNL     1      -0.446   9.828  20.716  0.00  0.00    +0.000 A 
ATOM     18  C   UNL     1      -0.010   9.004  21.742  0.00  0.00    +0.000 A 
ATOM     19  C   UNL     1       1.060   8.140  21.526  0.00  0.00    +0.000 A 
ATOM     20  C   UNL     1       1.741   8.093  20.292  0.00  0.00    +0.000 A 
ATOM     21  C   UNL     1       1.268   8.905  19.232  0.00  0.00    +0.000 A 
ATOM     22  C   UNL     1       1.905   8.903  17.862  0.00  0.00    +0.000 C 
ENDBRANCH   1  20
TORSDOF 1
ENDMDL
MODEL 8
REMARK VINA RESULT:      -6.9      2.723      4.629
REMARK  Name = 
REMARK  5 active torsions:
REMARK  status: ('A' for Active; 'I' for Inactive)
REMARK    1  A    between atoms: C_1  and  C_2
REMARK    2  A    between atoms: C_6  and  N_7
REMARK    3  A    between atoms: C_13  and  C_14
REMARK    4  A    between atoms: C_13  and  C_15
REMARK    5  A    between atoms: C_17  and  C_18
REMARK                            x       y       z     vdW  Elec       q    Type
REMARK                         _______ _______ _______ _____ _____    ______ ____
ROOT
ATOM      1  N   UNL     1       3.016   6.365  20.163  0.00  0.00    +0.000 N 
ATOM      2  C   UNL     1       2.220   7.471  20.017  0.00  0.00    +0.000 C 
ATOM      3  N   UNL     1       2.045   8.108  18.910  0.00  0.00    +0.000 NA
ATOM      4  C   UNL     1       1.281   9.218  18.917  0.00  0.00    +0.000 C 
ATOM      5  N   UNL     1       1.227   9.898  17.749  0.00  0.00    +0.000 N 
ATOM      6  N   UNL     1       0.588   9.650  19.912  0.00  0.00    +0.000 NA
ATOM      7  C   UNL     1       0.696   8.923  21.163  0.00  0.00    +0.000 C 
ATOM      8  C   UNL     1      -0.696   8.356  21.488  0.00  0.00    +0.000 C 
ATOM      9  C   UNL     1       1.099   9.948  22.228  0.00  0.00    +0.000 C 
ATOM     10  N   UNL     1       1.677   7.878  21.185  0.00  0.00    +0.000 N 
ATOM     11  H   UNL     1       3.820   6.612  20.726  0.00  0.00    +0.000 HD
ATOM     12  H   UNL     1       1.444   9.302  16.962  0.00  0.00    +0.000 HD
ATOM     13  H   UNL     1       0.371  10.435  17.660  0.00  0.00    +0.000 HD
ATOM     14  H   UNL     1       1.728   7.280  21.997  0.00  0.00    +0.000 HD
ENDROOT
BRANCH   1  20
ATOM     15  C   UNL     1       2.415   2.068  17.599  0.00  0.00    +0.000 C 
ATOM     16  C   UNL     1       3.042   3.422  17.807  0.00  0.00    +0.000 A 
ATOM     17  C   UNL     1       3.981   3.870  16.867  0.00  0.00    +0.000 A 
ATOM     18  C   UNL     1       4.588   5.108  17.015  0.00  0.00    +0.000 A 
ATOM     19  C   UNL     1       4.269   5.906  18.111  0.00  0.00    +0.000 A 
ATOM     20  C   UNL     1       3.360   5.481  19.101  0.00  0.00    +0.000 A 
ATOM     21  C   UNL     1       2.711   4.235  18.928  0.00  0.00    +0.000 A 
ATOM     22  C   UNL     1       1.695   3.704  19.913  0.00  0.00    +0.000 C 
ENDBRANCH   1  20
TORSDOF 1
ENDMDL
MODEL 9
REMARK VINA RESULT:      -6.9      2.066      6.120
REMARK  Name = 
REMARK  5 active torsions:
REMARK  status: ('A' for Active; 'I' for Inactive)
REMARK    1  A    between atoms: C_1  and  C_2
REMARK    2  A    between atoms: C_6  and  N_7
REMARK    3  A    between atoms: C_13  and  C_14
REMARK    4  A    between atoms: C_13  and  C_15
REMARK    5  A    between atoms: C_17  and  C_18
REMARK                            x       y       z     vdW  Elec       q    Type
REMARK                         _______ _______ _______ _____ _____    ______ ____
ROOT
ATOM      1  N   UNL     1       4.068   5.422  18.306  0.00  0.00    +0.000 N 
ATOM      2  C   UNL     1       5.391   5.759  18.427  0.00  0.00    +0.000 C 
ATOM      3  N   UNL     1       6.196   5.269  19.308  0.00  0.00    +0.000 NA
ATOM      4  C   UNL     1       7.460   5.730  19.355  0.00  0.00    +0.000 C 
ATOM      5  N   UNL     1       8.218   5.254  20.370  0.00  0.00    +0.000 N 
ATOM      6  N   UNL     1       8.000   6.538  18.512  0.00  0.00    +0.000 NA
ATOM      7  C   UNL     1       7.153   7.062  17.457  0.00  0.00    +0.000 C 
ATOM      8  C   UNL     1       7.728   6.571  16.117  0.00  0.00    +0.000 C 
ATOM      9  C   UNL     1       7.256   8.588  17.535  0.00  0.00    +0.000 C 
ATOM     10  N   UNL     1       5.764   6.723  17.557  0.00  0.00    +0.000 N 
ATOM     11  H   UNL     1       3.503   6.218  18.576  0.00  0.00    +0.000 HD
ATOM     12  H   UNL     1       7.870   4.368  20.710  0.00  0.00    +0.000 HD
ATOM     13  H   UNL     1       9.208   5.271  20.147  0.00  0.00    +0.000 HD
ATOM     14  H   UNL     1       5.147   6.981  16.801  0.00  0.00    +0.000 HD
ENDROOT
BRANCH   1  20
ATOM     15  C   UNL     1       1.254   2.749  21.521  0.00  0.00    +0.000 C 
ATOM     16  C   UNL     1       2.098   2.886  20.280  0.00  0.00    +0.000 A 
ATOM     17  C   UNL     1       2.300   1.748  19.485  0.00  0.00    +0.000 A 
ATOM     18  C   UNL     1       3.069   1.822  18.335  0.00  0.00    +0.000 A 
ATOM     19  C   UNL     1       3.654   3.033  17.972  0.00  0.00    +0.000 A 
ATOM     20  C   UNL     1       3.510   4.194  18.759  0.00  0.00    +0.000 A 
ATOM     21  C   UNL     1       2.691   4.127  19.912  0.00  0.00    +0.000 A 
ATOM     22  C   UNL     1       2.444   5.322  20.803  0.00  0.00    +0.000 C 
ENDBRANCH   1  20
TORSDOF 1
ENDMDL
