MODEL 1
REMARK VINA RESULT:      -6.4      0.000      0.000
REMARK  Name = 
REMARK  6 active torsions:
REMARK  status: ('A' for Active; 'I' for Inactive)
REMARK    1  A    between atoms: C_1  and  C_2
REMARK    2  A    between atoms: C_2  and  P_4
REMARK    3  A    between atoms: P_4  and  O_6
REMARK    4  A    between atoms: P_4  and  O_7
REMARK    5  A    between atoms: O_7  and  C_8
REMARK    6  A    between atoms: C_8  and  C_9
REMARK                            x       y       z     vdW  Elec       q    Type
REMARK                         _______ _______ _______ _____ _____    ______ ____
ROOT
ATOM      1  O   UNL     1       6.524   4.586  18.713  0.00  0.00    +0.000 OA
ENDROOT
BRANCH   1   2
ATOM      2  P   UNL     1       6.705   4.716  16.997  0.00  0.00    +0.000 P 
ATOM      3  O   UNL     1       8.151   4.210  17.104  0.00  0.00    +0.000 OA
BRANCH   2   5
ATOM      4  C   UNL     1       5.872   4.153  14.342  0.00  0.00    +0.000 C 
ATOM      5  C   UNL     1       6.897   4.852  15.182  0.00  0.00    +0.000 C 
ATOM      6  O   UNL     1       7.834   5.487  14.700  0.00  0.00    +0.000 OA
ENDBRANCH   2   5
BRANCH   2   7
ATOM      7  O   UNL     1       6.789   6.351  17.209  0.00  0.00    +0.000 OA
ATOM      8  H   UNL     1       6.973   6.535  18.152  0.00  0.00    +0.000 HD
ENDBRANCH   2   7
ENDBRANCH   1   2
BRANCH   1   9
ATOM      9  C   UNL     1       5.280   5.082  19.172  0.00  0.00    +0.000 C 
BRANCH   9  10
ATOM     10  C   UNL     1       4.171   4.151  18.759  0.00  0.00    +0.000 A 
ATOM     11  C   UNL     1       4.174   2.807  19.153  0.00  0.00    +0.000 A 
ATOM     12  C   UNL     1       3.137   1.951  18.778  0.00  0.00    +0.000 A 
ATOM     13  C   UNL     1       2.077   2.437  18.014  0.00  0.00    +0.000 A 
ATOM     14  C   UNL     1       2.052   3.778  17.632  0.00  0.00    +0.000 A 
ATOM     15  C   UNL     1       3.089   4.633  18.005  0.00  0.00    +0.000 A 
ENDBRANCH   9  10
ENDBRANCH   1   9
TORSDOF 5
ENDMDL
MODEL 2
REMARK VINA RESULT:      -6.3      2.109      2.884
REMARK  Name = 
REMARK  6 active torsions:
REMARK  status: ('A' for Active; 'I' for Inactive)
REMARK    1  A    between atoms: C_1  and  C_2
REMARK    2  A    between atoms: C_2  and  P_4
REMARK    3  A    between atoms: P_4  and  O_6
REMARK    4  A    between atoms: P_4  and  O_7
REMARK    5  A    between atoms: O_7  and  C_8
REMARK    6  A    between atoms: C_8  and  C_9
REMARK                            x       y       z     vdW  Elec       q    Type
REMARK                         _______ _______ _______ _____ _____    ______ ____
ROOT
ATOM      1  O   UNL     1       4.055   5.518  16.992  0.00  0.00    +0.000 OA
ENDROOT
BRANCH   1   2
ATOM      2  P   UNL     1       5.701   5.265  17.456  0.00  0.00    +0.000 P 
ATOM      3  O   UNL     1       6.168   5.663  16.049  0.00  0.00    +0.000 OA
BRANCH   2   5
ATOM      4  C   UNL     1       7.929   5.751  19.149  0.00  0.00    +0.000 C 
ATOM      5  C   UNL     1       7.444   4.997  17.949  0.00  0.00    +0.000 C 
ATOM      6  O   UNL     1       8.164   4.236  17.304  0.00  0.00    +0.000 OA
ENDBRANCH   2   5
BRANCH   2   7
ATOM      7  O   UNL     1       5.391   3.646  17.381  0.00  0.00    +0.000 OA
ATOM      8  H   UNL     1       5.256   3.310  18.289  0.00  0.00    +0.000 HD
ENDBRANCH   2   7
ENDBRANCH   1   2
BRANCH   1   9
ATOM      9  C   UNL     1       3.276   6.098  18.022  0.00  0.00    +0.000 C 
BRANCH   9  10
ATOM     10  C   UNL     1       2.426   5.043  18.680  0.00  0.00    +0.000 A 
ATOM     11  C   UNL     1       2.077   5.139  20.033  0.00  0.00    +0.000 A 
ATOM     12  C   UNL     1       1.278   4.166  20.634  0.00  0.00    +0.000 A 
ATOM     13  C   UNL     1       0.808   3.091  19.882  0.00  0.00    +0.000 A 
ATOM     14  C   UNL     1       1.131   2.994  18.529  0.00  0.00    +0.000 A 
ATOM     15  C   UNL     1       1.932   3.965  17.928  0.00  0.00    +0.000 A 
ENDBRANCH   9  10
ENDBRANCH   1   9
TORSDOF 5
ENDMDL
MODEL 3
REMARK VINA RESULT:      -6.2      1.636      2.231
REMARK  Name = 
REMARK  6 active torsions:
REMARK  status: ('A' for Active; 'I' for Inactive)
REMARK    1  A    between atoms: C_1  and  C_2
REMARK    2  A    between atoms: C_2  and  P_4
REMARK    3  A    between atoms: P_4  and  O_6
REMARK    4  A    between atoms: P_4  and  O_7
REMARK    5  A    between atoms: O_7  and  C_8
REMARK    6  A    between atoms: C_8  and  C_9
REMARK                            x       y       z     vdW  Elec       q    Type
REMARK                         _______ _______ _______ _____ _____    ______ ____
ROOT
ATOM      1  O   UNL     1       4.520   6.029  18.624  0.00  0.00    +0.000 OA
ENDROOT
BRANCH   1   2
ATOM      2  P   UNL     1       5.753   5.325  17.636  0.00  0.00    +0.000 P 
ATOM      3  O   UNL     1       6.457   4.782  18.887  0.00  0.00    +0.000 OA
BRANCH   2   5
ATOM      4  C   UNL     1       6.758   4.455  15.126  0.00  0.00    +0.000 C 
ATOM      5  C   UNL     1       7.057   4.580  16.589  0.00  0.00    +0.000 C 
ATOM      6  O   UNL     1       8.116   4.202  17.089  0.00  0.00    +0.000 OA
ENDBRANCH   2   5
BRANCH   2   7
ATOM      7  O   UNL     1       6.342   6.852  17.421  0.00  0.00    +0.000 OA
ATOM      8  H   UNL     1       5.637   7.493  17.641  0.00  0.00    +0.000 HD
ENDBRANCH   2   7
ENDBRANCH   1   2
BRANCH   1   9
ATOM      9  C   UNL     1       3.246   6.011  18.008  0.00  0.00    +0.000 C 
BRANCH   9  10
ATOM     10  C   UNL     1       2.374   4.970  18.661  0.00  0.00    +0.000 A 
ATOM     11  C   UNL     1       1.877   3.885  17.929  0.00  0.00    +0.000 A 
ATOM     12  C   UNL     1       1.081   2.916  18.541  0.00  0.00    +0.000 A 
ATOM     13  C   UNL     1       0.784   3.018  19.899  0.00  0.00    +0.000 A 
ATOM     14  C   UNL     1       1.290   4.082  20.645  0.00  0.00    +0.000 A 
ATOM     15  C   UNL     1       2.084   5.052  20.032  0.00  0.00    +0.000 A 
ENDBRANCH   9  10
ENDBRANCH   1   9
TORSDOF 5
ENDMDL
MODEL 4
REMARK VINA RESULT:      -6.2      1.783      2.854
REMARK  Name = 
REMARK  6 active torsions:
REMARK  status: ('A' for Active; 'I' for Inactive)
REMARK    1  A    between atoms: C_1  and  C_2
REMARK    2  A    between atoms: C_2  and  P_4
REMARK    3  A    between atoms: P_4  and  O_6
REMARK    4  A    between atoms: P_4  and  O_7
REMARK    5  A    between atoms: O_7  and  C_8
REMARK    6  A    between atoms: C_8  and  C_9
REMARK                            x       y       z     vdW  Elec       q    Type
REMARK                         _______ _______ _______ _____ _____    ______ ____
ROOT
ATOM      1  O   UNL     1       5.654   3.724  16.610  0.00  0.00    +0.000 OA
ENDROOT
BRANCH   1   2
ATOM      2  P   UNL     1       6.581   4.947  17.408  0.00  0.00    +0.000 P 
ATOM      3  O   UNL     1       7.852   4.457  16.698  0.00  0.00    +0.000 OA
BRANCH   2   5
ATOM      4  C   UNL     1       7.640   7.576  17.576  0.00  0.00    +0.000 C 
ATOM      5  C   UNL     1       7.563   6.241  18.252  0.00  0.00    +0.000 C 
ATOM      6  O   UNL     1       8.128   5.999  19.318  0.00  0.00    +0.000 OA
ENDBRANCH   2   5
BRANCH   2   7
ATOM      7  O   UNL     1       6.457   4.035  18.778  0.00  0.00    +0.000 OA
ATOM      8  H   UNL     1       7.290   3.537  18.899  0.00  0.00    +0.000 HD
ENDBRANCH   2   7
ENDBRANCH   1   2
BRANCH   1   9
ATOM      9  C   UNL     1       4.349   4.158  16.272  0.00  0.00    +0.000 C 
BRANCH   9  10
ATOM     10  C   UNL     1       3.357   3.635  17.277  0.00  0.00    +0.000 A 
ATOM     11  C   UNL     1       2.290   4.428  17.716  0.00  0.00    +0.000 A 
ATOM     12  C   UNL     1       1.365   3.935  18.637  0.00  0.00    +0.000 A 
ATOM     13  C   UNL     1       1.493   2.633  19.120  0.00  0.00    +0.000 A 
ATOM     14  C   UNL     1       2.539   1.826  18.676  0.00  0.00    +0.000 A 
ATOM     15  C   UNL     1       3.465   2.320  17.756  0.00  0.00    +0.000 A 
ENDBRANCH   9  10
ENDBRANCH   1   9
TORSDOF 5
ENDMDL
MODEL 5
REMARK VINA RESULT:      -6.1      1.863      2.645
REMARK  Name = 
REMARK  6 active torsions:
REMARK  status: ('A' for Active; 'I' for Inactive)
REMARK    1  A    between atoms: C_1  and  C_2
REMARK    2  A    between atoms: C_2  and  P_4
REMARK    3  A    between atoms: P_4  and  O_6
REMARK    4  A    between atoms: P_4  and  O_7
REMARK    5  A    between atoms: O_7  and  C_8
REMARK    6  A    between atoms: C_8  and  C_9
REMARK                            x       y       z     vdW  Elec       q    Type
REMARK                         _______ _______ _______ _____ _____    ______ ____
ROOT
ATOM      1  O   UNL     1       4.765   3.563  17.128  0.00  0.00    +0.000 OA
ENDROOT
BRANCH   1   2
ATOM      2  P   UNL     1       5.986   4.774  17.309  0.00  0.00    +0.000 P 
ATOM      3  O   UNL     1       6.815   4.118  16.196  0.00  0.00    +0.000 OA
BRANCH   2   5
ATOM      4  C   UNL     1       7.852   6.236  18.874  0.00  0.00    +0.000 C 
ATOM      5  C   UNL     1       7.278   6.057  17.501  0.00  0.00    +0.000 C 
ATOM      6  O   UNL     1       7.636   6.731  16.536  0.00  0.00    +0.000 OA
ENDBRANCH   2   5
BRANCH   2   7
ATOM      7  O   UNL     1       6.428   4.008  18.703  0.00  0.00    +0.000 OA
ATOM      8  H   UNL     1       6.924   4.637  19.263  0.00  0.00    +0.000 HD
ENDBRANCH   2   7
ENDBRANCH   1   2
BRANCH   1   9
ATOM      9  C   UNL     1       3.486   4.108  16.863  0.00  0.00    +0.000 C 
BRANCH   9  10
ATOM     10  C   UNL     1       2.565   3.847  18.025  0.00  0.00    +0.000 A 
ATOM     11  C   UNL     1       1.889   2.627  18.149  0.00  0.00    +0.000 A 
ATOM     12  C   UNL     1       1.047   2.384  19.235  0.00  0.00    +0.000 A 
ATOM     13  C   UNL     1       0.882   3.359  20.217  0.00  0.00    +0.000 A 
ATOM     14  C   UNL     1       1.564   4.571  20.116  0.00  0.00    +0.000 A 
ATOM     15  C   UNL     1       2.405   4.815  19.030  0.00  0.00    +0.000 A 
ENDBRANCH   9  10
ENDBRANCH   1   9
TORSDOF 5
ENDMDL
MODEL 6
REMARK VINA RESULT:      -6.1      1.132      1.532
REMARK  Name = 
REMARK  6 active torsions:
REMARK  status: ('A' for Active; 'I' for Inactive)
REMARK    1  A    between atoms: C_1  and  C_2
REMARK    2  A    between atoms: C_2  and  P_4
REMARK    3  A    between atoms: P_4  and  O_6
REMARK    4  A    between atoms: P_4  and  O_7
REMARK    5  A    between atoms: O_7  and  C_8
REMARK    6  A    between atoms: C_8  and  C_9
REMARK                            x       y       z     vdW  Elec       q    Type
REMARK                         _______ _______ _______ _____ _____    ______ ____
ROOT
ATOM      1  O   UNL     1       5.362   6.121  17.618  0.00  0.00    +0.000 OA
ENDROOT
BRANCH   1   2
ATOM      2  P   UNL     1       6.072   5.570  16.140  0.00  0.00    +0.000 P 
ATOM      3  O   UNL     1       7.398   6.246  16.516  0.00  0.00    +0.000 OA
BRANCH   2   5
ATOM      4  C   UNL     1       6.114   3.877  13.861  0.00  0.00    +0.000 C 
ATOM      5  C   UNL     1       6.822   4.986  14.576  0.00  0.00    +0.000 C 
ATOM      6  O   UNL     1       7.863   5.492  14.157  0.00  0.00    +0.000 OA
ENDBRANCH   2   5
BRANCH   2   7
ATOM      7  O   UNL     1       5.183   6.731  15.374  0.00  0.00    +0.000 OA
ATOM      8  H   UNL     1       4.540   6.292  14.781  0.00  0.00    +0.000 HD
ENDBRANCH   2   7
ENDBRANCH   1   2
BRANCH   1   9
ATOM      9  C   UNL     1       3.966   5.895  17.675  0.00  0.00    +0.000 C 
BRANCH   9  10
ATOM     10  C   UNL     1       3.692   4.459  18.036  0.00  0.00    +0.000 A 
ATOM     11  C   UNL     1       4.322   3.858  19.133  0.00  0.00    +0.000 A 
ATOM     12  C   UNL     1       4.055   2.532  19.472  0.00  0.00    +0.000 A 
ATOM     13  C   UNL     1       3.141   1.794  18.721  0.00  0.00    +0.000 A 
ATOM     14  C   UNL     1       2.491   2.385  17.638  0.00  0.00    +0.000 A 
ATOM     15  C   UNL     1       2.760   3.711  17.298  0.00  0.00    +0.000 A 
ENDBRANCH   9  10
ENDBRANCH   1   9
TORSDOF 5
ENDMDL
MODEL 7
REMARK VINA RESULT:      -6.1      1.435      1.435
REMARK  Name = 
REMARK  6 active torsions:
REMARK  status: ('A' for Active; 'I' for Inactive)
REMARK    1  A    between atoms: C_1  and  C_2
REMARK    2  A    between atoms: C_2  and  P_4
REMARK    3  A    between atoms: P_4  and  O_6
REMARK    4  A    between atoms: P_4  and  O_7
REMARK    5  A    between atoms: O_7  and  C_8
REMARK    6  A    between atoms: C_8  and  C_9
REMARK                            x       y       z     vdW  Elec       q    Type
REMARK                         _______ _______ _______ _____ _____    ______ ____
ROOT
ATOM      1  O   UNL     1       5.784   4.429  19.027  0.00  0.00    +0.000 OA
ENDROOT
BRANCH   1   2
ATOM      2  P   UNL     1       6.298   4.625  17.387  0.00  0.00    +0.000 P 
ATOM      3  O   UNL     1       7.758   4.411  17.811  0.00  0.00    +0.000 OA
BRANCH   2   5
ATOM      4  C   UNL     1       6.279   3.870  14.649  0.00  0.00    +0.000 C 
ATOM      5  C   UNL     1       6.842   4.832  15.651  0.00  0.00    +0.000 C 
ATOM      6  O   UNL     1       7.637   5.721  15.349  0.00  0.00    +0.000 OA
ENDBRANCH   2   5
BRANCH   2   7
ATOM      7  O   UNL     1       6.014   6.240  17.574  0.00  0.00    +0.000 OA
ATOM      8  H   UNL     1       5.567   6.575  16.771  0.00  0.00    +0.000 HD
ENDBRANCH   2   7
ENDBRANCH   1   2
BRANCH   1   9
ATOM      9  C   UNL     1       4.717   5.291  19.374  0.00  0.00    +0.000 C 
BRANCH   9  10
ATOM     10  C   UNL     1       3.465   4.489  19.616  0.00  0.00    +0.000 A 
ATOM     11  C   UNL     1       3.358   3.168  19.162  0.00  0.00    +0.000 A 
ATOM     12  C   UNL     1       2.201   2.424  19.400  0.00  0.00    +0.000 A 
ATOM     13  C   UNL     1       1.143   2.992  20.107  0.00  0.00    +0.000 A 
ATOM     14  C   UNL     1       1.245   4.299  20.582  0.00  0.00    +0.000 A 
ATOM     15  C   UNL     1       2.400   5.044  20.342  0.00  0.00    +0.000 A 
ENDBRANCH   9  10
ENDBRANCH   1   9
TORSDOF 5
ENDMDL
MODEL 8
REMARK VINA RESULT:      -6.1      1.988      2.476
REMARK  Name = 
REMARK  6 active torsions:
REMARK  status: ('A' for Active; 'I' for Inactive)
REMARK    1  A    between atoms: C_1  and  C_2
REMARK    2  A    between atoms: C_2  and  P_4
REMARK    3  A    between atoms: P_4  and  O_6
REMARK    4  A    between atoms: P_4  and  O_7
REMARK    5  A    between atoms: O_7  and  C_8
REMARK    6  A    between atoms: C_8  and  C_9
REMARK                            x       y       z     vdW  Elec       q    Type
REMARK                         _______ _______ _______ _____ _____    ______ ____
ROOT
ATOM      1  O   UNL     1       5.107   4.940  19.547  0.00  0.00    +0.000 OA
ENDROOT
BRANCH   1   2
ATOM      2  P   UNL     1       6.146   5.709  18.398  0.00  0.00    +0.000 P 
ATOM      3  O   UNL     1       4.975   5.839  17.414  0.00  0.00    +0.000 OA
BRANCH   2   5
ATOM      4  C   UNL     1       7.768   7.880  17.549  0.00  0.00    +0.000 C 
ATOM      5  C   UNL     1       7.246   6.524  17.183  0.00  0.00    +0.000 C 
ATOM      6  O   UNL     1       7.522   5.967  16.121  0.00  0.00    +0.000 OA
ENDBRANCH   2   5
BRANCH   2   7
ATOM      7  O   UNL     1       6.802   4.222  18.115  0.00  0.00    +0.000 OA
ATOM      8  H   UNL     1       6.107   3.544  18.237  0.00  0.00    +0.000 HD
ENDBRANCH   2   7
ENDBRANCH   1   2
BRANCH   1   9
ATOM      9  C   UNL     1       4.833   3.590  19.223  0.00  0.00    +0.000 C 
BRANCH   9  10
ATOM     10  C   UNL     1       3.360   3.313  19.372  0.00  0.00    +0.000 A 
ATOM     11  C   UNL     1       2.804   3.026  20.625  0.00  0.00    +0.000 A 
ATOM     12  C   UNL     1       1.437   2.783  20.760  0.00  0.00    +0.000 A 
ATOM     13  C   UNL     1       0.608   2.839  19.641  0.00  0.00    +0.000 A 
ATOM     14  C   UNL     1       1.145   3.144  18.391  0.00  0.00    +0.000 A 
ATOM     15  C   UNL     1       2.512   3.384  18.255  0.00  0.00    +0.000 A 
ENDBRANCH   9  10
ENDBRANCH   1   9
TORSDOF 5
ENDMDL
MODEL 9
REMARK VINA RESULT:      -6.0      1.680      2.033
REMARK  Name = 
REMARK  6 active torsions:
REMARK  status: ('A' for Active; 'I' for Inactive)
REMARK    1  A    between atoms: C_1  and  C_2
REMARK    2  A    between atoms: C_2  and  P_4
REMARK    3  A    between atoms: P_4  and  O_6
REMARK    4  A    between atoms: P_4  and  O_7
REMARK    5  A    between atoms: O_7  and  C_8
REMARK    6  A    between atoms: C_8  and  C_9
REMARK                            x       y       z     vdW  Elec       q    Type
REMARK                         _______ _______ _______ _____ _____    ______ ____
ROOT
ATOM      1  O   UNL     1       5.432   5.900  17.619  0.00  0.00    +0.000 OA
ENDROOT
BRANCH   1   2
ATOM      2  P   UNL     1       6.115   5.437  16.098  0.00  0.00    +0.000 P 
ATOM      3  O   UNL     1       6.458   4.052  16.665  0.00  0.00    +0.000 OA
BRANCH   2   5
ATOM      4  C   UNL     1       6.114   3.882  13.722  0.00  0.00    +0.000 C 
ATOM      5  C   UNL     1       6.836   4.948  14.489  0.00  0.00    +0.000 C 
ATOM      6  O   UNL     1       7.869   5.479  14.081  0.00  0.00    +0.000 OA
ENDBRANCH   2   5
BRANCH   2   7
ATOM      7  O   UNL     1       7.401   6.402  16.472  0.00  0.00    +0.000 OA
ATOM      8  H   UNL     1       7.068   7.217  16.896  0.00  0.00    +0.000 HD
ENDBRANCH   2   7
ENDBRANCH   1   2
BRANCH   1   9
ATOM      9  C   UNL     1       4.149   6.482  17.490  0.00  0.00    +0.000 C 
BRANCH   9  10
ATOM     10  C   UNL     1       3.149   5.708  18.309  0.00  0.00    +0.000 A 
ATOM     11  C   UNL     1       2.438   4.637  17.754  0.00  0.00    +0.000 A 
ATOM     12  C   UNL     1       1.522   3.915  18.520  0.00  0.00    +0.000 A 
ATOM     13  C   UNL     1       1.318   4.251  19.858  0.00  0.00    +0.000 A 
ATOM     14  C   UNL     1       2.034   5.302  20.428  0.00  0.00    +0.000 A 
ATOM     15  C   UNL     1       2.948   6.026  19.662  0.00  0.00    +0.000 A 
ENDBRANCH   9  10
ENDBRANCH   1   9
TORSDOF 5
ENDMDL
