MODEL 1
REMARK VINA RESULT:      -8.2      0.000      0.000
REMARK  Name = 
REMARK  9 active torsions:
REMARK  status: ('A' for Active; 'I' for Inactive)
REMARK    1  A    between atoms: CD1_1  and  CG_2
REMARK    2  A    between atoms: CG_2  and  CD2_3
REMARK    3  A    between atoms: CG_2  and  CB_4
REMARK    4  A    between atoms: CB_4  and  CA_5
REMARK    5  A    between atoms: CA_5  and  C_6
REMARK    6  A    between atoms: CA_5  and  N_8
REMARK    7  A    between atoms: C_6  and  O_7
REMARK    8  A    between atoms: C_9  and  C_11
REMARK    9  A    between atoms: C_14  and  N_15
REMARK                            x       y       z     vdW  Elec       q    Type
REMARK                         _______ _______ _______ _____ _____    ______ ____
ROOT
ATOM      1  C   UNK A   0       4.770   5.189  16.448  0.00  0.00    +0.000 A 
ATOM      2  C   UNK A   0       4.935   6.569  16.532  0.00  0.00    +0.000 A 
ATOM      3  C   UNK A   0       4.137   7.313  17.405  0.00  0.00    +0.000 A 
ATOM      4  C   UNK A   0       3.134   6.721  18.185  0.00  0.00    +0.000 A 
ATOM      5  C   UNK A   0       2.968   5.329  18.091  0.00  0.00    +0.000 A 
ATOM      6  C   UNK A   0       3.773   4.572  17.217  0.00  0.00    +0.000 A 
ENDROOT
BRANCH   4   7
ATOM      7  N   UNK A   0       2.276   7.478  19.048  0.00  0.00    +0.000 N 
ATOM      8  C   UNK A   0       1.707   8.658  18.666  0.00  0.00    +0.000 C 
ATOM      9  O   UNK A   0       1.823   9.136  17.526  0.00  0.00    +0.000 OA
ATOM     10  N   UNK A   0       0.943   9.346  19.573  0.00  0.00    +0.000 N 
ATOM     11  C   UNK A   0       0.323  10.558  19.049  0.00  0.00    +0.000 C 
ATOM     12  C   UNK A   0      -0.529  11.042  20.162  0.00  0.00    +0.000 A 
ATOM     13  C   UNK A   0      -1.469  12.061  20.112  0.00  0.00    +0.000 A 
ATOM     14  C   UNK A   0      -2.035  12.475  21.309  0.00  0.00    +0.000 A 
ATOM     15  C   UNK A   0      -1.615  11.893  22.510  0.00  0.00    +0.000 A 
ATOM     16  F   UNK A   0      -2.105  12.375  23.661  0.00  0.00    +0.000 F 
ATOM     17  C   UNK A   0      -0.711  10.823  22.545  0.00  0.00    +0.000 A 
ATOM     18  C   UNK A   0      -0.203  10.362  21.341  0.00  0.00    +0.000 A 
ATOM     19  C   UNK A   0       0.662   9.169  21.003  0.00  0.00    +0.000 C 
ATOM     20  H   UNK A   0       1.848   6.989  19.818  0.00  0.00    +0.000 HD
ENDBRANCH   4   7
BRANCH   1  22
ATOM     21  N   LEU A   1       5.985   4.969  14.346  0.00  0.00    +0.000 N 
ATOM     22  C   UNK A   0       5.615   4.374  15.536  0.00  0.00    +0.000 C 
ATOM     23  O   UNK A   0       5.952   3.243  15.862  0.00  0.00    +0.000 OA
ATOM     24  H   LEU A   1       5.738   5.937  14.198  0.00  0.00    +0.000 HD
BRANCH  21  25
ATOM     25  CA  LEU A   1       6.867   4.354  13.336  0.00  0.00    +0.000 C 
BRANCH  25  26
ATOM     26  CB  LEU A   1       6.117   4.129  12.007  0.00  0.00    +0.000 C 
BRANCH  26  28
ATOM     27  CD1 LEU A   1       3.922   3.168  11.115  0.00  0.00    +0.000 C 
ATOM     28  CG  LEU A   1       5.169   2.912  11.962  0.00  0.00    +0.000 C 
ATOM     29  CD2 LEU A   1       5.919   1.695  11.410  0.00  0.00    +0.000 C 
ENDBRANCH  26  28
ENDBRANCH  25  26
BRANCH  25  30
ATOM     30  C   LEU A   1       8.205   5.112  13.194  0.00  0.00    +0.000 C 
BRANCH  30  31
ATOM     31  O   LEU A   1       8.163   6.175  12.252  0.00  0.00    +0.000 OA
ATOM     32  H   LEU A   1       8.738   6.896  12.592  0.00  0.00    +0.000 HD
ENDBRANCH  30  31
ENDBRANCH  25  30
ENDBRANCH  21  25
ENDBRANCH   1  22
TORSDOF 7
ENDMDL
MODEL 2
REMARK VINA RESULT:      -8.0      0.657      1.107
REMARK  Name = 
REMARK  9 active torsions:
REMARK  status: ('A' for Active; 'I' for Inactive)
REMARK    1  A    between atoms: CD1_1  and  CG_2
REMARK    2  A    between atoms: CG_2  and  CD2_3
REMARK    3  A    between atoms: CG_2  and  CB_4
REMARK    4  A    between atoms: CB_4  and  CA_5
REMARK    5  A    between atoms: CA_5  and  C_6
REMARK    6  A    between atoms: CA_5  and  N_8
REMARK    7  A    between atoms: C_6  and  O_7
REMARK    8  A    between atoms: C_9  and  C_11
REMARK    9  A    between atoms: C_14  and  N_15
REMARK                            x       y       z     vdW  Elec       q    Type
REMARK                         _______ _______ _______ _____ _____    ______ ____
ROOT
ATOM      1  C   UNK A   0       5.171   5.237  16.083  0.00  0.00    +0.000 A 
ATOM      2  C   UNK A   0       4.274   4.493  16.844  0.00  0.00    +0.000 A 
ATOM      3  C   UNK A   0       3.396   5.142  17.716  0.00  0.00    +0.000 A 
ATOM      4  C   UNK A   0       3.410   6.533  17.888  0.00  0.00    +0.000 A 
ATOM      5  C   UNK A   0       4.322   7.278  17.122  0.00  0.00    +0.000 A 
ATOM      6  C   UNK A   0       5.205   6.630  16.236  0.00  0.00    +0.000 A 
ENDROOT
BRANCH   4   7
ATOM      7  N   UNK A   0       2.550   7.208  18.815  0.00  0.00    +0.000 N 
ATOM      8  C   UNK A   0       1.979   8.416  18.541  0.00  0.00    +0.000 C 
ATOM      9  O   UNK A   0       2.095   8.996  17.449  0.00  0.00    +0.000 OA
ATOM     10  N   UNK A   0       1.213   9.018  19.505  0.00  0.00    +0.000 N 
ATOM     11  C   UNK A   0       0.592  10.272  19.093  0.00  0.00    +0.000 C 
ATOM     12  C   UNK A   0      -0.262  10.652  20.245  0.00  0.00    +0.000 A 
ATOM     13  C   UNK A   0      -1.204  11.669  20.286  0.00  0.00    +0.000 A 
ATOM     14  C   UNK A   0      -1.771  11.973  21.515  0.00  0.00    +0.000 A 
ATOM     15  C   UNK A   0      -1.352  11.285  22.659  0.00  0.00    +0.000 A 
ATOM     16  F   UNK A   0      -1.843  11.660  23.849  0.00  0.00    +0.000 F 
ATOM     17  C   UNK A   0      -0.445  10.218  22.597  0.00  0.00    +0.000 A 
ATOM     18  C   UNK A   0       0.064   9.868  21.358  0.00  0.00    +0.000 A 
ATOM     19  C   UNK A   0       0.932   8.713  20.914  0.00  0.00    +0.000 C 
ATOM     20  H   UNK A   0       2.123   6.651  19.537  0.00  0.00    +0.000 HD
ENDBRANCH   4   7
BRANCH   1  22
ATOM     21  N   LEU A   1       6.409   5.263  13.982  0.00  0.00    +0.000 N 
ATOM     22  C   UNK A   0       6.106   4.571  15.138  0.00  0.00    +0.000 C 
ATOM     23  O   UNK A   0       6.569   3.470  15.409  0.00  0.00    +0.000 OA
ATOM     24  H   LEU A   1       6.053   6.204  13.881  0.00  0.00    +0.000 HD
BRANCH  21  25
ATOM     25  CA  LEU A   1       7.357   4.805  12.950  0.00  0.00    +0.000 C 
BRANCH  25  26
ATOM     26  CB  LEU A   1       6.615   4.151  11.765  0.00  0.00    +0.000 C 
BRANCH  26  28
ATOM     27  CD1 LEU A   1       4.218   3.274  11.605  0.00  0.00    +0.000 C 
ATOM     28  CG  LEU A   1       5.633   3.016  12.125  0.00  0.00    +0.000 C 
ATOM     29  CD2 LEU A   1       6.149   1.689  11.559  0.00  0.00    +0.000 C 
ENDBRANCH  26  28
ENDBRANCH  25  26
BRANCH  25  30
ATOM     30  C   LEU A   1       8.356   5.911  12.546  0.00  0.00    +0.000 C 
BRANCH  30  31
ATOM     31  O   LEU A   1       9.542   5.925  13.329  0.00  0.00    +0.000 OA
ATOM     32  H   LEU A   1       9.280   5.783  14.266  0.00  0.00    +0.000 HD
ENDBRANCH  30  31
ENDBRANCH  25  30
ENDBRANCH  21  25
ENDBRANCH   1  22
TORSDOF 7
ENDMDL
MODEL 3
REMARK VINA RESULT:      -7.9      3.266      5.321
REMARK  Name = 
REMARK  9 active torsions:
REMARK  status: ('A' for Active; 'I' for Inactive)
REMARK    1  A    between atoms: CD1_1  and  CG_2
REMARK    2  A    between atoms: CG_2  and  CD2_3
REMARK    3  A    between atoms: CG_2  and  CB_4
REMARK    4  A    between atoms: CB_4  and  CA_5
REMARK    5  A    between atoms: CA_5  and  C_6
REMARK    6  A    between atoms: CA_5  and  N_8
REMARK    7  A    between atoms: C_6  and  O_7
REMARK    8  A    between atoms: C_9  and  C_11
REMARK    9  A    between atoms: C_14  and  N_15
REMARK                            x       y       z     vdW  Elec       q    Type
REMARK                         _______ _______ _______ _____ _____    ______ ____
ROOT
ATOM      1  C   UNK A   0       2.426   7.776  18.817  0.00  0.00    +0.000 A 
ATOM      2  C   UNK A   0       1.984   7.577  20.122  0.00  0.00    +0.000 A 
ATOM      3  C   UNK A   0       1.041   8.446  20.678  0.00  0.00    +0.000 A 
ATOM      4  C   UNK A   0       0.542   9.552  19.974  0.00  0.00    +0.000 A 
ATOM      5  C   UNK A   0       0.995   9.750  18.660  0.00  0.00    +0.000 A 
ATOM      6  C   UNK A   0       1.942   8.874  18.092  0.00  0.00    +0.000 A 
ENDROOT
BRANCH   4   7
ATOM      7  N   UNK A   0      -0.388  10.479  20.548  0.00  0.00    +0.000 N 
ATOM      8  C   UNK A   0       0.010  11.596  21.222  0.00  0.00    +0.000 C 
ATOM      9  O   UNK A   0       1.198  11.941  21.332  0.00  0.00    +0.000 OA
ATOM     10  N   UNK A   0      -0.944  12.402  21.787  0.00  0.00    +0.000 N 
ATOM     11  C   UNK A   0      -0.422  13.606  22.425  0.00  0.00    +0.000 C 
ATOM     12  C   UNK A   0      -1.635  14.351  22.842  0.00  0.00    +0.000 A 
ATOM     13  C   UNK A   0      -1.691  15.649  23.329  0.00  0.00    +0.000 A 
ATOM     14  C   UNK A   0      -2.905  16.099  23.827  0.00  0.00    +0.000 A 
ATOM     15  C   UNK A   0      -4.003  15.232  23.861  0.00  0.00    +0.000 A 
ATOM     16  F   UNK A   0      -5.138  15.656  24.434  0.00  0.00    +0.000 F 
ATOM     17  C   UNK A   0      -3.952  13.943  23.311  0.00  0.00    +0.000 A 
ATOM     18  C   UNK A   0      -2.759  13.523  22.748  0.00  0.00    +0.000 A 
ATOM     19  C   UNK A   0      -2.397  12.283  21.961  0.00  0.00    +0.000 C 
ATOM     20  H   UNK A   0      -1.330  10.469  20.191  0.00  0.00    +0.000 HD
ENDBRANCH   4   7
BRANCH   1  22
ATOM     21  N   LEU A   1       3.870   5.820  18.991  0.00  0.00    +0.000 N 
ATOM     22  C   UNK A   0       3.418   6.858  18.200  0.00  0.00    +0.000 C 
ATOM     23  O   UNK A   0       3.785   7.039  17.046  0.00  0.00    +0.000 OA
ATOM     24  H   LEU A   1       3.447   5.692  19.900  0.00  0.00    +0.000 HD
BRANCH  21  25
ATOM     25  CA  LEU A   1       4.806   4.770  18.548  0.00  0.00    +0.000 C 
BRANCH  25  26
ATOM     26  CB  LEU A   1       6.240   5.062  19.036  0.00  0.00    +0.000 C 
BRANCH  26  28
ATOM     27  CD1 LEU A   1       6.802   4.980  16.543  0.00  0.00    +0.000 C 
ATOM     28  CG  LEU A   1       7.275   5.387  17.938  0.00  0.00    +0.000 C 
ATOM     29  CD2 LEU A   1       7.588   6.887  17.953  0.00  0.00    +0.000 C 
ENDBRANCH  26  28
ENDBRANCH  25  26
BRANCH  25  30
ATOM     30  C   LEU A   1       4.293   3.353  18.886  0.00  0.00    +0.000 C 
BRANCH  30  31
ATOM     31  O   LEU A   1       5.181   2.604  19.706  0.00  0.00    +0.000 OA
ATOM     32  H   LEU A   1       4.641   1.964  20.221  0.00  0.00    +0.000 HD
ENDBRANCH  30  31
ENDBRANCH  25  30
ENDBRANCH  21  25
ENDBRANCH   1  22
TORSDOF 7
ENDMDL
MODEL 4
REMARK VINA RESULT:      -7.9      0.845      1.492
REMARK  Name = 
REMARK  9 active torsions:
REMARK  status: ('A' for Active; 'I' for Inactive)
REMARK    1  A    between atoms: CD1_1  and  CG_2
REMARK    2  A    between atoms: CG_2  and  CD2_3
REMARK    3  A    between atoms: CG_2  and  CB_4
REMARK    4  A    between atoms: CB_4  and  CA_5
REMARK    5  A    between atoms: CA_5  and  C_6
REMARK    6  A    between atoms: CA_5  and  N_8
REMARK    7  A    between atoms: C_6  and  O_7
REMARK    8  A    between atoms: C_9  and  C_11
REMARK    9  A    between atoms: C_14  and  N_15
REMARK                            x       y       z     vdW  Elec       q    Type
REMARK                         _______ _______ _______ _____ _____    ______ ____
ROOT
ATOM      1  C   UNK A   0       5.144   4.906  16.082  0.00  0.00    +0.000 A 
ATOM      2  C   UNK A   0       4.192   4.216  16.829  0.00  0.00    +0.000 A 
ATOM      3  C   UNK A   0       3.344   4.916  17.691  0.00  0.00    +0.000 A 
ATOM      4  C   UNK A   0       3.441   6.304  17.866  0.00  0.00    +0.000 A 
ATOM      5  C   UNK A   0       4.406   6.993  17.114  0.00  0.00    +0.000 A 
ATOM      6  C   UNK A   0       5.261   6.293  16.239  0.00  0.00    +0.000 A 
ENDROOT
BRANCH   4   7
ATOM      7  N   UNK A   0       2.611   7.028  18.784  0.00  0.00    +0.000 N 
ATOM      8  C   UNK A   0       2.084   8.251  18.489  0.00  0.00    +0.000 C 
ATOM      9  O   UNK A   0       2.216   8.804  17.385  0.00  0.00    +0.000 OA
ATOM     10  N   UNK A   0       1.346   8.900  19.444  0.00  0.00    +0.000 N 
ATOM     11  C   UNK A   0       0.769  10.168  19.009  0.00  0.00    +0.000 C 
ATOM     12  C   UNK A   0      -0.064  10.601  20.157  0.00  0.00    +0.000 A 
ATOM     13  C   UNK A   0      -0.967  11.653  20.182  0.00  0.00    +0.000 A 
ATOM     14  C   UNK A   0      -1.517  12.002  21.408  0.00  0.00    +0.000 A 
ATOM     15  C   UNK A   0      -1.117  11.322  22.564  0.00  0.00    +0.000 A 
ATOM     16  F   UNK A   0      -1.588  11.739  23.748  0.00  0.00    +0.000 F 
ATOM     17  C   UNK A   0      -0.251  10.221  22.519  0.00  0.00    +0.000 A 
ATOM     18  C   UNK A   0       0.239   9.829  21.284  0.00  0.00    +0.000 A 
ATOM     19  C   UNK A   0       1.061   8.633  20.859  0.00  0.00    +0.000 C 
ATOM     20  H   UNK A   0       2.167   6.502  19.519  0.00  0.00    +0.000 HD
ENDBRANCH   4   7
BRANCH   1  22
ATOM     21  N   LEU A   1       5.682   4.184  13.816  0.00  0.00    +0.000 N 
ATOM     22  C   UNK A   0       6.048   4.185  15.148  0.00  0.00    +0.000 C 
ATOM     23  O   UNK A   0       7.060   3.641  15.573  0.00  0.00    +0.000 OA
ATOM     24  H   LEU A   1       4.880   4.734  13.540  0.00  0.00    +0.000 HD
BRANCH  21  25
ATOM     25  CA  LEU A   1       6.472   3.580  12.727  0.00  0.00    +0.000 C 
BRANCH  25  26
ATOM     26  CB  LEU A   1       5.600   2.645  11.862  0.00  0.00    +0.000 C 
BRANCH  26  28
ATOM     27  CD1 LEU A   1       7.880   1.833  11.036  0.00  0.00    +0.000 C 
ATOM     28  CG  LEU A   1       6.363   1.666  10.945  0.00  0.00    +0.000 C 
ATOM     29  CD2 LEU A   1       5.987   0.225  11.305  0.00  0.00    +0.000 C 
ENDBRANCH  26  28
ENDBRANCH  25  26
BRANCH  25  30
ATOM     30  C   LEU A   1       7.263   4.637  11.926  0.00  0.00    +0.000 C 
BRANCH  30  31
ATOM     31  O   LEU A   1       7.946   5.580  12.742  0.00  0.00    +0.000 OA
ATOM     32  H   LEU A   1       8.540   6.102  12.158  0.00  0.00    +0.000 HD
ENDBRANCH  30  31
ENDBRANCH  25  30
ENDBRANCH  21  25
ENDBRANCH   1  22
TORSDOF 7
ENDMDL
MODEL 5
REMARK VINA RESULT:      -7.8      1.910      3.054
REMARK  Name = 
REMARK  9 active torsions:
REMARK  status: ('A' for Active; 'I' for Inactive)
REMARK    1  A    between atoms: CD1_1  and  CG_2
REMARK    2  A    between atoms: CG_2  and  CD2_3
REMARK    3  A    between atoms: CG_2  and  CB_4
REMARK    4  A    between atoms: CB_4  and  CA_5
REMARK    5  A    between atoms: CA_5  and  C_6
REMARK    6  A    between atoms: CA_5  and  N_8
REMARK    7  A    between atoms: C_6  and  O_7
REMARK    8  A    between atoms: C_9  and  C_11
REMARK    9  A    between atoms: C_14  and  N_15
REMARK                            x       y       z     vdW  Elec       q    Type
REMARK                         _______ _______ _______ _____ _____    ______ ____
ROOT
ATOM      1  C   UNK A   0       3.074   5.921  18.557  0.00  0.00    +0.000 A 
ATOM      2  C   UNK A   0       2.488   5.634  19.787  0.00  0.00    +0.000 A 
ATOM      3  C   UNK A   0       1.776   6.626  20.467  0.00  0.00    +0.000 A 
ATOM      4  C   UNK A   0       1.658   7.931  19.969  0.00  0.00    +0.000 A 
ATOM      5  C   UNK A   0       2.256   8.216  18.731  0.00  0.00    +0.000 A 
ATOM      6  C   UNK A   0       2.971   7.219  18.038  0.00  0.00    +0.000 A 
ENDROOT
BRANCH   4   7
ATOM      7  N   UNK A   0       0.972   8.971  20.678  0.00  0.00    +0.000 N 
ATOM      8  C   UNK A   0       0.135   9.853  20.060  0.00  0.00    +0.000 C 
ATOM      9  O   UNK A   0      -0.158   9.787  18.855  0.00  0.00    +0.000 OA
ATOM     10  N   UNK A   0      -0.438  10.852  20.803  0.00  0.00    +0.000 N 
ATOM     11  C   UNK A   0      -1.369  11.700  20.066  0.00  0.00    +0.000 C 
ATOM     12  C   UNK A   0      -1.933  12.603  21.098  0.00  0.00    +0.000 A 
ATOM     13  C   UNK A   0      -3.000  13.477  20.949  0.00  0.00    +0.000 A 
ATOM     14  C   UNK A   0      -3.258  14.362  21.987  0.00  0.00    +0.000 A 
ATOM     15  C   UNK A   0      -2.424  14.373  23.110  0.00  0.00    +0.000 A 
ATOM     16  F   UNK A   0      -2.635  15.299  24.056  0.00  0.00    +0.000 F 
ATOM     17  C   UNK A   0      -1.387  13.444  23.278  0.00  0.00    +0.000 A 
ATOM     18  C   UNK A   0      -1.178  12.515  22.273  0.00  0.00    +0.000 A 
ATOM     19  C   UNK A   0      -0.265  11.313  22.186  0.00  0.00    +0.000 C 
ATOM     20  H   UNK A   0       0.868   8.859  21.674  0.00  0.00    +0.000 HD
ENDBRANCH   4   7
BRANCH   1  22
ATOM     21  N   LEU A   1       4.766   5.331  16.904  0.00  0.00    +0.000 N 
ATOM     22  C   UNK A   0       3.826   4.879  17.809  0.00  0.00    +0.000 C 
ATOM     23  O   UNK A   0       3.602   3.694  18.019  0.00  0.00    +0.000 OA
ATOM     24  H   LEU A   1       4.949   6.324  16.860  0.00  0.00    +0.000 HD
BRANCH  21  25
ATOM     25  CA  LEU A   1       5.655   4.463  16.110  0.00  0.00    +0.000 C 
BRANCH  25  26
ATOM     26  CB  LEU A   1       5.485   4.727  14.599  0.00  0.00    +0.000 C 
BRANCH  26  28
ATOM     27  CD1 LEU A   1       5.818   3.350  12.471  0.00  0.00    +0.000 C 
ATOM     28  CG  LEU A   1       6.492   4.017  13.670  0.00  0.00    +0.000 C 
ATOM     29  CD2 LEU A   1       7.534   5.025  13.174  0.00  0.00    +0.000 C 
ENDBRANCH  26  28
ENDBRANCH  25  26
BRANCH  25  30
ATOM     30  C   LEU A   1       7.116   4.517  16.607  0.00  0.00    +0.000 C 
BRANCH  30  31
ATOM     31  O   LEU A   1       7.262   4.216  17.988  0.00  0.00    +0.000 OA
ATOM     32  H   LEU A   1       8.159   3.834  18.116  0.00  0.00    +0.000 HD
ENDBRANCH  30  31
ENDBRANCH  25  30
ENDBRANCH  21  25
ENDBRANCH   1  22
TORSDOF 7
ENDMDL
MODEL 6
REMARK VINA RESULT:      -7.8      0.871      1.427
REMARK  Name = 
REMARK  9 active torsions:
REMARK  status: ('A' for Active; 'I' for Inactive)
REMARK    1  A    between atoms: CD1_1  and  CG_2
REMARK    2  A    between atoms: CG_2  and  CD2_3
REMARK    3  A    between atoms: CG_2  and  CB_4
REMARK    4  A    between atoms: CB_4  and  CA_5
REMARK    5  A    between atoms: CA_5  and  C_6
REMARK    6  A    between atoms: CA_5  and  N_8
REMARK    7  A    between atoms: C_6  and  O_7
REMARK    8  A    between atoms: C_9  and  C_11
REMARK    9  A    between atoms: C_14  and  N_15
REMARK                            x       y       z     vdW  Elec       q    Type
REMARK                         _______ _______ _______ _____ _____    ______ ____
ROOT
ATOM      1  C   UNK A   0       4.266   5.401  17.030  0.00  0.00    +0.000 A 
ATOM      2  C   UNK A   0       3.254   4.867  17.824  0.00  0.00    +0.000 A 
ATOM      3  C   UNK A   0       2.452   5.715  18.592  0.00  0.00    +0.000 A 
ATOM      4  C   UNK A   0       2.652   7.102  18.626  0.00  0.00    +0.000 A 
ATOM      5  C   UNK A   0       3.678   7.634  17.827  0.00  0.00    +0.000 A 
ATOM      6  C   UNK A   0       4.487   6.785  17.045  0.00  0.00    +0.000 A 
ENDROOT
BRANCH   4   7
ATOM      7  N   UNK A   0       1.869   7.978  19.446  0.00  0.00    +0.000 N 
ATOM      8  C   UNK A   0       1.172   9.033  18.936  0.00  0.00    +0.000 C 
ATOM      9  O   UNK A   0       1.097   9.281  17.722  0.00  0.00    +0.000 OA
ATOM     10  N   UNK A   0       0.492   9.854  19.798  0.00  0.00    +0.000 N 
ATOM     11  C   UNK A   0      -0.278  10.911  19.151  0.00  0.00    +0.000 C 
ATOM     12  C   UNK A   0      -1.001  11.570  20.266  0.00  0.00    +0.000 A 
ATOM     13  C   UNK A   0      -2.009  12.517  20.163  0.00  0.00    +0.000 A 
ATOM     14  C   UNK A   0      -2.433  13.137  21.330  0.00  0.00    +0.000 A 
ATOM     15  C   UNK A   0      -1.813  12.823  22.544  0.00  0.00    +0.000 A 
ATOM     16  F   UNK A   0      -2.173  13.502  23.642  0.00  0.00    +0.000 F 
ATOM     17  C   UNK A   0      -0.838  11.820  22.647  0.00  0.00    +0.000 A 
ATOM     18  C   UNK A   0      -0.469  11.152  21.491  0.00  0.00    +0.000 A 
ATOM     19  C   UNK A   0       0.424   9.953  21.261  0.00  0.00    +0.000 C 
ATOM     20  H   UNK A   0       1.587   7.634  20.350  0.00  0.00    +0.000 HD
ENDBRANCH   4   7
BRANCH   1  22
ATOM     21  N   LEU A   1       5.733   5.113  15.104  0.00  0.00    +0.000 N 
ATOM     22  C   UNK A   0       5.124   4.521  16.194  0.00  0.00    +0.000 C 
ATOM     23  O   UNK A   0       5.266   3.342  16.492  0.00  0.00    +0.000 OA
ATOM     24  H   LEU A   1       5.634   6.111  14.984  0.00  0.00    +0.000 HD
BRANCH  21  25
ATOM     25  CA  LEU A   1       6.667   4.431  14.189  0.00  0.00    +0.000 C 
BRANCH  25  26
ATOM     26  CB  LEU A   1       5.985   3.235  13.490  0.00  0.00    +0.000 C 
BRANCH  26  28
ATOM     27  CD1 LEU A   1       6.800   2.202  11.298  0.00  0.00    +0.000 C 
ATOM     28  CG  LEU A   1       5.943   3.288  11.948  0.00  0.00    +0.000 C 
ATOM     29  CD2 LEU A   1       4.494   3.149  11.468  0.00  0.00    +0.000 C 
ENDBRANCH  26  28
ENDBRANCH  25  26
BRANCH  25  30
ATOM     30  C   LEU A   1       7.365   5.418  13.229  0.00  0.00    +0.000 C 
BRANCH  30  31
ATOM     31  O   LEU A   1       8.627   5.875  13.697  0.00  0.00    +0.000 OA
ATOM     32  H   LEU A   1       8.578   5.930  14.677  0.00  0.00    +0.000 HD
ENDBRANCH  30  31
ENDBRANCH  25  30
ENDBRANCH  21  25
ENDBRANCH   1  22
TORSDOF 7
ENDMDL
MODEL 7
REMARK VINA RESULT:      -7.7      3.564      5.523
REMARK  Name = 
REMARK  9 active torsions:
REMARK  status: ('A' for Active; 'I' for Inactive)
REMARK    1  A    between atoms: CD1_1  and  CG_2
REMARK    2  A    between atoms: CG_2  and  CD2_3
REMARK    3  A    between atoms: CG_2  and  CB_4
REMARK    4  A    between atoms: CB_4  and  CA_5
REMARK    5  A    between atoms: CA_5  and  C_6
REMARK    6  A    between atoms: CA_5  and  N_8
REMARK    7  A    between atoms: C_6  and  O_7
REMARK    8  A    between atoms: C_9  and  C_11
REMARK    9  A    between atoms: C_14  and  N_15
REMARK                            x       y       z     vdW  Elec       q    Type
REMARK                         _______ _______ _______ _____ _____    ______ ____
ROOT
ATOM      1  C   UNK A   0       2.240   7.856  19.028  0.00  0.00    +0.000 A 
ATOM      2  C   UNK A   0       1.754   8.897  18.241  0.00  0.00    +0.000 A 
ATOM      3  C   UNK A   0       0.861   9.823  18.787  0.00  0.00    +0.000 A 
ATOM      4  C   UNK A   0       0.397   9.722  20.106  0.00  0.00    +0.000 A 
ATOM      5  C   UNK A   0       0.886   8.666  20.893  0.00  0.00    +0.000 A 
ATOM      6  C   UNK A   0       1.791   7.733  20.350  0.00  0.00    +0.000 A 
ENDROOT
BRANCH   4   7
ATOM      7  N   UNK A   0      -0.556  10.636  20.663  0.00  0.00    +0.000 N 
ATOM      8  C   UNK A   0      -0.186  11.742  21.371  0.00  0.00    +0.000 C 
ATOM      9  O   UNK A   0       0.996  12.088  21.530  0.00  0.00    +0.000 OA
ATOM     10  N   UNK A   0      -1.163  12.534  21.917  0.00  0.00    +0.000 N 
ATOM     11  C   UNK A   0      -0.669  13.727  22.595  0.00  0.00    +0.000 C 
ATOM     12  C   UNK A   0      -1.898  14.461  22.983  0.00  0.00    +0.000 A 
ATOM     13  C   UNK A   0      -1.975  15.749  23.491  0.00  0.00    +0.000 A 
ATOM     14  C   UNK A   0      -3.209  16.186  23.954  0.00  0.00    +0.000 A 
ATOM     15  C   UNK A   0      -4.304  15.315  23.933  0.00  0.00    +0.000 A 
ATOM     16  F   UNK A   0      -5.460  15.726  24.472  0.00  0.00    +0.000 F 
ATOM     17  C   UNK A   0      -4.229  14.038  23.360  0.00  0.00    +0.000 A 
ATOM     18  C   UNK A   0      -3.015  13.632  22.833  0.00  0.00    +0.000 A 
ATOM     19  C   UNK A   0      -2.621  12.408  22.037  0.00  0.00    +0.000 C 
ATOM     20  H   UNK A   0      -1.485  10.630  20.273  0.00  0.00    +0.000 HD
ENDBRANCH   4   7
BRANCH   1  22
ATOM     21  N   LEU A   1       3.627   5.875  19.336  0.00  0.00    +0.000 N 
ATOM     22  C   UNK A   0       3.201   6.866  18.474  0.00  0.00    +0.000 C 
ATOM     23  O   UNK A   0       3.564   6.952  17.308  0.00  0.00    +0.000 OA
ATOM     24  H   LEU A   1       3.208   5.827  20.255  0.00  0.00    +0.000 HD
BRANCH  21  25
ATOM     25  CA  LEU A   1       4.529   4.768  18.966  0.00  0.00    +0.000 C 
BRANCH  25  26
ATOM     26  CB  LEU A   1       6.003   5.144  19.221  0.00  0.00    +0.000 C 
BRANCH  26  28
ATOM     27  CD1 LEU A   1       7.831   6.737  18.409  0.00  0.00    +0.000 C 
ATOM     28  CG  LEU A   1       6.778   5.703  18.009  0.00  0.00    +0.000 C 
ATOM     29  CD2 LEU A   1       7.455   4.552  17.256  0.00  0.00    +0.000 C 
ENDBRANCH  26  28
ENDBRANCH  25  26
BRANCH  25  30
ATOM     30  C   LEU A   1       4.093   3.428  19.598  0.00  0.00    +0.000 C 
BRANCH  30  31
ATOM     31  O   LEU A   1       4.640   2.286  18.952  0.00  0.00    +0.000 OA
ATOM     32  H   LEU A   1       5.265   1.861  19.581  0.00  0.00    +0.000 HD
ENDBRANCH  30  31
ENDBRANCH  25  30
ENDBRANCH  21  25
ENDBRANCH   1  22
TORSDOF 7
ENDMDL
MODEL 8
REMARK VINA RESULT:      -7.6      3.709      5.425
REMARK  Name = 
REMARK  9 active torsions:
REMARK  status: ('A' for Active; 'I' for Inactive)
REMARK    1  A    between atoms: CD1_1  and  CG_2
REMARK    2  A    between atoms: CG_2  and  CD2_3
REMARK    3  A    between atoms: CG_2  and  CB_4
REMARK    4  A    between atoms: CB_4  and  CA_5
REMARK    5  A    between atoms: CA_5  and  C_6
REMARK    6  A    between atoms: CA_5  and  N_8
REMARK    7  A    between atoms: C_6  and  O_7
REMARK    8  A    between atoms: C_9  and  C_11
REMARK    9  A    between atoms: C_14  and  N_15
REMARK                            x       y       z     vdW  Elec       q    Type
REMARK                         _______ _______ _______ _____ _____    ______ ____
ROOT
ATOM      1  C   UNK A   0       2.075   7.967  19.041  0.00  0.00    +0.000 A 
ATOM      2  C   UNK A   0       1.581   8.975  18.217  0.00  0.00    +0.000 A 
ATOM      3  C   UNK A   0       0.684   9.916  18.729  0.00  0.00    +0.000 A 
ATOM      4  C   UNK A   0       0.224   9.862  20.052  0.00  0.00    +0.000 A 
ATOM      5  C   UNK A   0       0.721   8.840  20.877  0.00  0.00    +0.000 A 
ATOM      6  C   UNK A   0       1.630   7.891  20.367  0.00  0.00    +0.000 A 
ENDROOT
BRANCH   4   7
ATOM      7  N   UNK A   0      -0.733  10.791  20.577  0.00  0.00    +0.000 N 
ATOM      8  C   UNK A   0      -0.399  11.760  21.477  0.00  0.00    +0.000 C 
ATOM      9  O   UNK A   0       0.765  11.966  21.860  0.00  0.00    +0.000 OA
ATOM     10  N   UNK A   0      -1.386  12.572  21.971  0.00  0.00    +0.000 N 
ATOM     11  C   UNK A   0      -0.918  13.619  22.872  0.00  0.00    +0.000 C 
ATOM     12  C   UNK A   0      -2.133  14.418  23.165  0.00  0.00    +0.000 A 
ATOM     13  C   UNK A   0      -2.192  15.636  23.826  0.00  0.00    +0.000 A 
ATOM     14  C   UNK A   0      -3.446  16.133  24.151  0.00  0.00    +0.000 A 
ATOM     15  C   UNK A   0      -4.587  15.384  23.845  0.00  0.00    +0.000 A 
ATOM     16  F   UNK A   0      -5.781  15.838  24.253  0.00  0.00    +0.000 F 
ATOM     17  C   UNK A   0      -4.520  14.184  23.122  0.00  0.00    +0.000 A 
ATOM     18  C   UNK A   0      -3.272  13.728  22.735  0.00  0.00    +0.000 A 
ATOM     19  C   UNK A   0      -2.849  12.577  21.849  0.00  0.00    +0.000 C 
ATOM     20  H   UNK A   0      -1.582  10.924  20.053  0.00  0.00    +0.000 HD
ENDBRANCH   4   7
BRANCH   1  22
ATOM     21  N   LEU A   1       3.165   5.796  19.251  0.00  0.00    +0.000 N 
ATOM     22  C   UNK A   0       3.040   6.962  18.522  0.00  0.00    +0.000 C 
ATOM     23  O   UNK A   0       3.667   7.189  17.495  0.00  0.00    +0.000 OA
ATOM     24  H   LEU A   1       2.544   5.655  20.036  0.00  0.00    +0.000 HD
BRANCH  21  25
ATOM     25  CA  LEU A   1       4.019   4.655  18.875  0.00  0.00    +0.000 C 
BRANCH  25  26
ATOM     26  CB  LEU A   1       3.559   4.033  17.540  0.00  0.00    +0.000 C 
BRANCH  26  28
ATOM     27  CD1 LEU A   1       3.520   1.622  18.391  0.00  0.00    +0.000 C 
ATOM     28  CG  LEU A   1       2.757   2.719  17.648  0.00  0.00    +0.000 C 
ATOM     29  CD2 LEU A   1       1.426   2.984  18.359  0.00  0.00    +0.000 C 
ENDBRANCH  26  28
ENDBRANCH  25  26
BRANCH  25  30
ATOM     30  C   LEU A   1       5.521   5.011  18.929  0.00  0.00    +0.000 C 
BRANCH  30  31
ATOM     31  O   LEU A   1       6.367   4.005  18.389  0.00  0.00    +0.000 OA
ATOM     32  H   LEU A   1       6.735   3.490  19.142  0.00  0.00    +0.000 HD
ENDBRANCH  30  31
ENDBRANCH  25  30
ENDBRANCH  21  25
ENDBRANCH   1  22
TORSDOF 7
ENDMDL
MODEL 9
REMARK VINA RESULT:      -7.6      2.928      4.655
REMARK  Name = 
REMARK  9 active torsions:
REMARK  status: ('A' for Active; 'I' for Inactive)
REMARK    1  A    between atoms: CD1_1  and  CG_2
REMARK    2  A    between atoms: CG_2  and  CD2_3
REMARK    3  A    between atoms: CG_2  and  CB_4
REMARK    4  A    between atoms: CB_4  and  CA_5
REMARK    5  A    between atoms: CA_5  and  C_6
REMARK    6  A    between atoms: CA_5  and  N_8
REMARK    7  A    between atoms: C_6  and  O_7
REMARK    8  A    between atoms: C_9  and  C_11
REMARK    9  A    between atoms: C_14  and  N_15
REMARK                            x       y       z     vdW  Elec       q    Type
REMARK                         _______ _______ _______ _____ _____    ______ ____
ROOT
ATOM      1  C   UNK A   0       2.623   6.876  19.267  0.00  0.00    +0.000 A 
ATOM      2  C   UNK A   0       2.445   7.859  18.297  0.00  0.00    +0.000 A 
ATOM      3  C   UNK A   0       1.632   8.963  18.567  0.00  0.00    +0.000 A 
ATOM      4  C   UNK A   0       0.947   9.105  19.782  0.00  0.00    +0.000 A 
ATOM      5  C   UNK A   0       1.127   8.107  20.754  0.00  0.00    +0.000 A 
ATOM      6  C   UNK A   0       1.949   6.993  20.490  0.00  0.00    +0.000 A 
ENDROOT
BRANCH   4   7
ATOM      7  N   UNK A   0       0.072  10.207  20.054  0.00  0.00    +0.000 N 
ATOM      8  C   UNK A   0      -0.032  10.773  21.291  0.00  0.00    +0.000 C 
ATOM      9  O   UNK A   0       0.668  10.435  22.259  0.00  0.00    +0.000 OA
ATOM     10  N   UNK A   0      -0.933  11.789  21.478  0.00  0.00    +0.000 N 
ATOM     11  C   UNK A   0      -0.921  12.374  22.814  0.00  0.00    +0.000 C 
ATOM     12  C   UNK A   0      -1.876  13.505  22.726  0.00  0.00    +0.000 A 
ATOM     13  C   UNK A   0      -2.088  14.494  23.674  0.00  0.00    +0.000 A 
ATOM     14  C   UNK A   0      -3.153  15.361  23.474  0.00  0.00    +0.000 A 
ATOM     15  C   UNK A   0      -3.989  15.186  22.365  0.00  0.00    +0.000 A 
ATOM     16  F   UNK A   0      -5.066  15.975  22.243  0.00  0.00    +0.000 F 
ATOM     17  C   UNK A   0      -3.729  14.222  21.381  0.00  0.00    +0.000 A 
ATOM     18  C   UNK A   0      -2.623  13.406  21.546  0.00  0.00    +0.000 A 
ATOM     19  C   UNK A   0      -1.981  12.381  20.638  0.00  0.00    +0.000 C 
ATOM     20  H   UNK A   0      -0.234  10.758  19.269  0.00  0.00    +0.000 HD
ENDBRANCH   4   7
BRANCH   1  22
ATOM     21  N   LEU A   1       3.062   4.818  18.035  0.00  0.00    +0.000 N 
ATOM     22  C   UNK A   0       3.493   5.698  19.008  0.00  0.00    +0.000 C 
ATOM     23  O   UNK A   0       4.533   5.555  19.638  0.00  0.00    +0.000 OA
ATOM     24  H   LEU A   1       2.237   5.061  17.502  0.00  0.00    +0.000 HD
BRANCH  21  25
ATOM     25  CA  LEU A   1       3.806   3.626  17.588  0.00  0.00    +0.000 C 
BRANCH  25  26
ATOM     26  CB  LEU A   1       5.181   4.016  17.005  0.00  0.00    +0.000 C 
BRANCH  26  28
ATOM     27  CD1 LEU A   1       5.277   6.227  15.724  0.00  0.00    +0.000 C 
ATOM     28  CG  LEU A   1       5.159   4.706  15.625  0.00  0.00    +0.000 C 
ATOM     29  CD2 LEU A   1       6.300   4.161  14.759  0.00  0.00    +0.000 C 
ENDBRANCH  26  28
ENDBRANCH  25  26
BRANCH  25  30
ATOM     30  C   LEU A   1       3.862   2.534  18.679  0.00  0.00    +0.000 C 
BRANCH  30  31
ATOM     31  O   LEU A   1       5.049   2.565  19.460  0.00  0.00    +0.000 OA
ATOM     32  H   LEU A   1       5.808   2.421  18.852  0.00  0.00    +0.000 HD
ENDBRANCH  30  31
ENDBRANCH  25  30
ENDBRANCH  21  25
ENDBRANCH   1  22
TORSDOF 7
ENDMDL
