MODEL 1
REMARK VINA RESULT:      -8.6      0.000      0.000
REMARK  Name = 
REMARK  11 active torsions:
REMARK  status: ('A' for Active; 'I' for Inactive)
REMARK    1  A    between atoms: C_1  and  C_2
REMARK    2  A    between atoms: C_2  and  C_3
REMARK    3  A    between atoms: C_3  and  C_4
REMARK    4  A    between atoms: C_8  and  C_9
REMARK    5  A    between atoms: C_13  and  C_15
REMARK    6  A    between atoms: N_22  and  C_23
REMARK    7  A    between atoms: C_23  and  C_24
REMARK    8  A    between atoms: C_24  and  C_25
REMARK    9  A    between atoms: C_25  and  C_26
REMARK   10  A    between atoms: C_25  and  C_27
REMARK   11  A    between atoms: C_25  and  C_28
REMARK                            x       y       z     vdW  Elec       q    Type
REMARK                         _______ _______ _______ _____ _____    ______ ____
ROOT
ATOM      1  C   UNL     1       2.592   6.923  18.866  0.00  0.00    +0.000 A 
ATOM      2  C   UNL     1       2.136   8.192  18.556  0.00  0.00    +0.000 A 
ATOM      3  C   UNL     1       1.487   8.674  19.701  0.00  0.00    +0.000 A 
ATOM      4  N   UNL     1       0.892   9.904  19.847  0.00  0.00    +0.000 N 
ATOM      5  C   UNL     1       0.131  10.462  18.839  0.00  0.00    +0.000 C 
ATOM      6  O   UNL     1      -0.127   9.913  17.768  0.00  0.00    +0.000 OA
ATOM      7  N   UNL     1       1.571   7.810  20.712  0.00  0.00    +0.000 NA
ATOM      8  N   UNL     1       2.140   6.705  20.156  0.00  0.00    +0.000 N 
ATOM      9  H   UNL     1       0.780  10.207  20.805  0.00  0.00    +0.000 HD
ENDROOT
BRANCH   5  10
ATOM     10  C   UNL     1      -0.409  11.859  19.108  0.00  0.00    +0.000 C 
ATOM     11  C   UNL     1      -0.761  12.613  17.842  0.00  0.00    +0.000 C 
ATOM     12  N   UNL     1      -2.142  12.284  17.638  0.00  0.00    +0.000 N 
ATOM     13  C   UNL     1      -2.753  11.875  18.806  0.00  0.00    +0.000 C 
ATOM     14  O   UNL     1      -3.944  11.645  18.924  0.00  0.00    +0.000 OA
ATOM     15  C   UNL     1      -1.717  11.802  19.894  0.00  0.00    +0.000 C 
ATOM     16  H   UNL     1      -2.699  12.517  16.823  0.00  0.00    +0.000 HD
ENDBRANCH   5  10
BRANCH   1  21
ATOM     17  C   UNL     1       5.689   5.710  17.101  0.00  0.00    +0.000 A 
ATOM     18  C   UNL     1       5.271   4.462  16.626  0.00  0.00    +0.000 A 
ATOM     19  C   UNL     1       3.947   4.059  16.787  0.00  0.00    +0.000 A 
ATOM     20  C   UNL     1       3.036   4.882  17.455  0.00  0.00    +0.000 A 
ATOM     21  C   UNL     1       3.464   6.079  18.047  0.00  0.00    +0.000 A 
ATOM     22  C   UNL     1       4.789   6.479  17.848  0.00  0.00    +0.000 A 
BRANCH  17  23
ATOM     23  C   UNL     1       7.064   6.246  16.782  0.00  0.00    +0.000 C 
BRANCH  23  25
ATOM     24  C   UNL     1       7.964   8.411  17.735  0.00  0.00    +0.000 C 
ATOM     25  C   UNL     1       7.680   6.944  18.001  0.00  0.00    +0.000 C 
ENDBRANCH  23  25
ENDBRANCH  17  23
ENDBRANCH   1  21
BRANCH   8  26
ATOM     26  C   UNL     1       2.202   5.489  20.954  0.00  0.00    +0.000 C 
BRANCH  26  27
ATOM     27  C   UNL     1       1.213   4.414  20.492  0.00  0.00    +0.000 C 
BRANCH  27  28
ATOM     28  C   UNL     1       1.715   2.946  20.510  0.00  0.00    +0.000 C 
ATOM     29  C   UNL     1       1.135   2.131  19.341  0.00  0.00    +0.000 C 
ATOM     30  C   UNL     1       3.249   2.987  20.359  0.00  0.00    +0.000 C 
ATOM     31  C   UNL     1       1.370   2.253  21.835  0.00  0.00    +0.000 C 
ENDBRANCH  27  28
ENDBRANCH  26  27
ENDBRANCH   8  26
TORSDOF 7
ENDMDL
MODEL 2
REMARK VINA RESULT:      -8.3      1.343      2.138
REMARK  Name = 
REMARK  11 active torsions:
REMARK  status: ('A' for Active; 'I' for Inactive)
REMARK    1  A    between atoms: C_1  and  C_2
REMARK    2  A    between atoms: C_2  and  C_3
REMARK    3  A    between atoms: C_3  and  C_4
REMARK    4  A    between atoms: C_8  and  C_9
REMARK    5  A    between atoms: C_13  and  C_15
REMARK    6  A    between atoms: N_22  and  C_23
REMARK    7  A    between atoms: C_23  and  C_24
REMARK    8  A    between atoms: C_24  and  C_25
REMARK    9  A    between atoms: C_25  and  C_26
REMARK   10  A    between atoms: C_25  and  C_27
REMARK   11  A    between atoms: C_25  and  C_28
REMARK                            x       y       z     vdW  Elec       q    Type
REMARK                         _______ _______ _______ _____ _____    ______ ____
ROOT
ATOM      1  C   UNL     1       2.990   6.738  19.228  0.00  0.00    +0.000 A 
ATOM      2  C   UNL     1       2.569   8.038  19.012  0.00  0.00    +0.000 A 
ATOM      3  C   UNL     1       1.558   8.291  19.949  0.00  0.00    +0.000 A 
ATOM      4  N   UNL     1       0.863   9.467  20.104  0.00  0.00    +0.000 N 
ATOM      5  C   UNL     1       0.424  10.195  19.017  0.00  0.00    +0.000 C 
ATOM      6  O   UNL     1       0.559   9.853  17.842  0.00  0.00    +0.000 OA
ATOM      7  N   UNL     1       1.377   7.255  20.767  0.00  0.00    +0.000 NA
ATOM      8  N   UNL     1       2.168   6.279  20.243  0.00  0.00    +0.000 N 
ATOM      9  H   UNL     1       0.432   9.584  21.012  0.00  0.00    +0.000 HD
ENDROOT
BRANCH   5  10
ATOM     10  C   UNL     1      -0.270  11.512  19.334  0.00  0.00    +0.000 C 
ATOM     11  C   UNL     1      -0.063  12.563  18.263  0.00  0.00    +0.000 C 
ATOM     12  N   UNL     1      -1.180  12.361  17.386  0.00  0.00    +0.000 N 
ATOM     13  C   UNL     1      -2.223  11.716  18.019  0.00  0.00    +0.000 C 
ATOM     14  O   UNL     1      -3.322  11.524  17.528  0.00  0.00    +0.000 OA
ATOM     15  C   UNL     1      -1.784  11.333  19.406  0.00  0.00    +0.000 C 
ATOM     16  H   UNL     1      -1.325  12.811  16.488  0.00  0.00    +0.000 HD
ENDBRANCH   5  10
BRANCH   1  21
ATOM     17  C   UNL     1       5.268   5.410  16.540  0.00  0.00    +0.000 A 
ATOM     18  C   UNL     1       6.354   4.952  17.293  0.00  0.00    +0.000 A 
ATOM     19  C   UNL     1       6.301   4.978  18.685  0.00  0.00    +0.000 A 
ATOM     20  C   UNL     1       5.179   5.493  19.339  0.00  0.00    +0.000 A 
ATOM     21  C   UNL     1       4.134   6.069  18.604  0.00  0.00    +0.000 A 
ATOM     22  C   UNL     1       4.192   6.006  17.208  0.00  0.00    +0.000 A 
BRANCH  17  23
ATOM     23  C   UNL     1       5.225   5.226  15.042  0.00  0.00    +0.000 C 
BRANCH  23  25
ATOM     24  C   UNL     1       5.962   3.747  13.125  0.00  0.00    +0.000 C 
ATOM     25  C   UNL     1       6.097   4.041  14.608  0.00  0.00    +0.000 C 
ENDBRANCH  23  25
ENDBRANCH  17  23
ENDBRANCH   1  21
BRANCH   8  26
ATOM     26  C   UNL     1       2.058   4.936  20.794  0.00  0.00    +0.000 C 
BRANCH  26  27
ATOM     27  C   UNL     1       0.993   4.084  20.099  0.00  0.00    +0.000 C 
BRANCH  27  28
ATOM     28  C   UNL     1       1.479   3.144  18.963  0.00  0.00    +0.000 C 
ATOM     29  C   UNL     1       0.571   1.909  18.818  0.00  0.00    +0.000 C 
ATOM     30  C   UNL     1       1.418   3.948  17.649  0.00  0.00    +0.000 C 
ATOM     31  C   UNL     1       2.925   2.687  19.196  0.00  0.00    +0.000 C 
ENDBRANCH  27  28
ENDBRANCH  26  27
ENDBRANCH   8  26
TORSDOF 7
ENDMDL
MODEL 3
REMARK VINA RESULT:      -8.2      1.265      1.659
REMARK  Name = 
REMARK  11 active torsions:
REMARK  status: ('A' for Active; 'I' for Inactive)
REMARK    1  A    between atoms: C_1  and  C_2
REMARK    2  A    between atoms: C_2  and  C_3
REMARK    3  A    between atoms: C_3  and  C_4
REMARK    4  A    between atoms: C_8  and  C_9
REMARK    5  A    between atoms: C_13  and  C_15
REMARK    6  A    between atoms: N_22  and  C_23
REMARK    7  A    between atoms: C_23  and  C_24
REMARK    8  A    between atoms: C_24  and  C_25
REMARK    9  A    between atoms: C_25  and  C_26
REMARK   10  A    between atoms: C_25  and  C_27
REMARK   11  A    between atoms: C_25  and  C_28
REMARK                            x       y       z     vdW  Elec       q    Type
REMARK                         _______ _______ _______ _____ _____    ______ ____
ROOT
ATOM      1  C   UNL     1       2.559   6.893  18.890  0.00  0.00    +0.000 A 
ATOM      2  C   UNL     1       2.149   8.179  18.586  0.00  0.00    +0.000 A 
ATOM      3  C   UNL     1       1.520   8.680  19.734  0.00  0.00    +0.000 A 
ATOM      4  N   UNL     1       0.971   9.930  19.885  0.00  0.00    +0.000 N 
ATOM      5  C   UNL     1       0.228  10.519  18.882  0.00  0.00    +0.000 C 
ATOM      6  O   UNL     1      -0.052   9.984  17.809  0.00  0.00    +0.000 OA
ATOM      7  N   UNL     1       1.575   7.810  20.742  0.00  0.00    +0.000 NA
ATOM      8  N   UNL     1       2.102   6.688  20.180  0.00  0.00    +0.000 N 
ATOM      9  H   UNL     1       0.872  10.234  20.845  0.00  0.00    +0.000 HD
ENDROOT
BRANCH   5  10
ATOM     10  C   UNL     1      -0.261  11.934  19.157  0.00  0.00    +0.000 C 
ATOM     11  C   UNL     1      -1.734  11.996  19.503  0.00  0.00    +0.000 C 
ATOM     12  N   UNL     1      -1.740  11.879  20.932  0.00  0.00    +0.000 N 
ATOM     13  C   UNL     1      -0.529  12.242  21.485  0.00  0.00    +0.000 C 
ATOM     14  O   UNL     1      -0.310  12.334  22.680  0.00  0.00    +0.000 OA
ATOM     15  C   UNL     1       0.442  12.532  20.373  0.00  0.00    +0.000 C 
ATOM     16  H   UNL     1      -2.559  11.770  21.521  0.00  0.00    +0.000 HD
ENDBRANCH   5  10
BRANCH   1  21
ATOM     17  C   UNL     1       5.609   5.570  17.123  0.00  0.00    +0.000 A 
ATOM     18  C   UNL     1       5.142   4.344  16.636  0.00  0.00    +0.000 A 
ATOM     19  C   UNL     1       3.803   3.994  16.792  0.00  0.00    +0.000 A 
ATOM     20  C   UNL     1       2.923   4.847  17.464  0.00  0.00    +0.000 A 
ATOM     21  C   UNL     1       3.399   6.021  18.066  0.00  0.00    +0.000 A 
ATOM     22  C   UNL     1       4.739   6.369  17.873  0.00  0.00    +0.000 A 
BRANCH  17  23
ATOM     23  C   UNL     1       7.005   6.052  16.810  0.00  0.00    +0.000 C 
BRANCH  23  25
ATOM     24  C   UNL     1       7.860   8.281  17.652  0.00  0.00    +0.000 C 
ATOM     25  C   UNL     1       7.598   6.825  17.995  0.00  0.00    +0.000 C 
ENDBRANCH  23  25
ENDBRANCH  17  23
ENDBRANCH   1  21
BRANCH   8  26
ATOM     26  C   UNL     1       2.121   5.467  20.974  0.00  0.00    +0.000 C 
BRANCH  26  27
ATOM     27  C   UNL     1       1.217   4.367  20.411  0.00  0.00    +0.000 C 
BRANCH  27  28
ATOM     28  C   UNL     1       1.773   2.919  20.442  0.00  0.00    +0.000 C 
ATOM     29  C   UNL     1       3.308   2.895  20.328  0.00  0.00    +0.000 C 
ATOM     30  C   UNL     1       1.377   2.307  21.801  0.00  0.00    +0.000 C 
ATOM     31  C   UNL     1       1.167   2.063  19.321  0.00  0.00    +0.000 C 
ENDBRANCH  27  28
ENDBRANCH  26  27
ENDBRANCH   8  26
TORSDOF 7
ENDMDL
MODEL 4
REMARK VINA RESULT:      -8.1      1.242      1.976
REMARK  Name = 
REMARK  11 active torsions:
REMARK  status: ('A' for Active; 'I' for Inactive)
REMARK    1  A    between atoms: C_1  and  C_2
REMARK    2  A    between atoms: C_2  and  C_3
REMARK    3  A    between atoms: C_3  and  C_4
REMARK    4  A    between atoms: C_8  and  C_9
REMARK    5  A    between atoms: C_13  and  C_15
REMARK    6  A    between atoms: N_22  and  C_23
REMARK    7  A    between atoms: C_23  and  C_24
REMARK    8  A    between atoms: C_24  and  C_25
REMARK    9  A    between atoms: C_25  and  C_26
REMARK   10  A    between atoms: C_25  and  C_27
REMARK   11  A    between atoms: C_25  and  C_28
REMARK                            x       y       z     vdW  Elec       q    Type
REMARK                         _______ _______ _______ _____ _____    ______ ____
ROOT
ATOM      1  C   UNL     1       2.551   6.993  18.908  0.00  0.00    +0.000 A 
ATOM      2  C   UNL     1       2.086   8.265  18.624  0.00  0.00    +0.000 A 
ATOM      3  C   UNL     1       1.438   8.720  19.781  0.00  0.00    +0.000 A 
ATOM      4  N   UNL     1       0.835   9.942  19.953  0.00  0.00    +0.000 N 
ATOM      5  C   UNL     1       0.065  10.514  18.960  0.00  0.00    +0.000 C 
ATOM      6  O   UNL     1      -0.193   9.984  17.879  0.00  0.00    +0.000 OA
ATOM      7  N   UNL     1       1.533   7.838  20.775  0.00  0.00    +0.000 NA
ATOM      8  N   UNL     1       2.107   6.748  20.195  0.00  0.00    +0.000 N 
ATOM      9  H   UNL     1       0.726  10.226  20.918  0.00  0.00    +0.000 HD
ENDROOT
BRANCH   5  10
ATOM     10  C   UNL     1      -0.484  11.902  19.258  0.00  0.00    +0.000 C 
ATOM     11  C   UNL     1       0.021  12.470  20.568  0.00  0.00    +0.000 C 
ATOM     12  N   UNL     1       1.202  13.186  20.181  0.00  0.00    +0.000 N 
ATOM     13  C   UNL     1       1.187  13.521  18.842  0.00  0.00    +0.000 C 
ATOM     14  O   UNL     1       2.018  14.222  18.291  0.00  0.00    +0.000 OA
ATOM     15  C   UNL     1      -0.031  12.910  18.204  0.00  0.00    +0.000 C 
ATOM     16  H   UNL     1       1.876  13.612  20.808  0.00  0.00    +0.000 HD
ENDBRANCH   5  10
BRANCH   1  21
ATOM     17  C   UNL     1       5.644   5.847  17.090  0.00  0.00    +0.000 A 
ATOM     18  C   UNL     1       5.239   4.597  16.608  0.00  0.00    +0.000 A 
ATOM     19  C   UNL     1       3.924   4.172  16.784  0.00  0.00    +0.000 A 
ATOM     20  C   UNL     1       3.009   4.973  17.471  0.00  0.00    +0.000 A 
ATOM     21  C   UNL     1       3.426   6.171  18.069  0.00  0.00    +0.000 A 
ATOM     22  C   UNL     1       4.742   6.595  17.856  0.00  0.00    +0.000 A 
BRANCH  17  23
ATOM     23  C   UNL     1       7.005   6.408  16.757  0.00  0.00    +0.000 C 
BRANCH  23  25
ATOM     24  C   UNL     1       8.003   8.480  17.814  0.00  0.00    +0.000 C 
ATOM     25  C   UNL     1       7.671   7.011  18.001  0.00  0.00    +0.000 C 
ENDBRANCH  23  25
ENDBRANCH  17  23
ENDBRANCH   1  21
BRANCH   8  26
ATOM     26  C   UNL     1       2.181   5.517  20.970  0.00  0.00    +0.000 C 
BRANCH  26  27
ATOM     27  C   UNL     1       1.211   4.438  20.481  0.00  0.00    +0.000 C 
BRANCH  27  28
ATOM     28  C   UNL     1       1.746   2.982  20.437  0.00  0.00    +0.000 C 
ATOM     29  C   UNL     1       3.278   2.943  20.291  0.00  0.00    +0.000 C 
ATOM     30  C   UNL     1       1.369   2.316  21.775  0.00  0.00    +0.000 C 
ATOM     31  C   UNL     1       1.107   2.185  19.293  0.00  0.00    +0.000 C 
ENDBRANCH  27  28
ENDBRANCH  26  27
ENDBRANCH   8  26
TORSDOF 7
ENDMDL
MODEL 5
REMARK VINA RESULT:      -8.0      1.462      2.470
REMARK  Name = 
REMARK  11 active torsions:
REMARK  status: ('A' for Active; 'I' for Inactive)
REMARK    1  A    between atoms: C_1  and  C_2
REMARK    2  A    between atoms: C_2  and  C_3
REMARK    3  A    between atoms: C_3  and  C_4
REMARK    4  A    between atoms: C_8  and  C_9
REMARK    5  A    between atoms: C_13  and  C_15
REMARK    6  A    between atoms: N_22  and  C_23
REMARK    7  A    between atoms: C_23  and  C_24
REMARK    8  A    between atoms: C_24  and  C_25
REMARK    9  A    between atoms: C_25  and  C_26
REMARK   10  A    between atoms: C_25  and  C_27
REMARK   11  A    between atoms: C_25  and  C_28
REMARK                            x       y       z     vdW  Elec       q    Type
REMARK                         _______ _______ _______ _____ _____    ______ ____
ROOT
ATOM      1  C   UNL     1       3.413   7.020  18.479  0.00  0.00    +0.000 A 
ATOM      2  C   UNL     1       2.738   8.223  18.366  0.00  0.00    +0.000 A 
ATOM      3  C   UNL     1       1.812   8.261  19.418  0.00  0.00    +0.000 A 
ATOM      4  N   UNL     1       0.936   9.281  19.698  0.00  0.00    +0.000 N 
ATOM      5  C   UNL     1       0.248   9.938  18.698  0.00  0.00    +0.000 C 
ATOM      6  O   UNL     1       0.307   9.653  17.501  0.00  0.00    +0.000 OA
ATOM      7  N   UNL     1       1.920   7.192  20.205  0.00  0.00    +0.000 NA
ATOM      8  N   UNL     1       2.812   6.393  19.557  0.00  0.00    +0.000 N 
ATOM      9  H   UNL     1       0.597   9.296  20.652  0.00  0.00    +0.000 HD
ENDROOT
BRANCH   5  10
ATOM     10  C   UNL     1      -0.635  11.094  19.144  0.00  0.00    +0.000 C 
ATOM     11  C   UNL     1      -0.338  12.385  18.410  0.00  0.00    +0.000 C 
ATOM     12  N   UNL     1      -1.230  12.337  17.288  0.00  0.00    +0.000 N 
ATOM     13  C   UNL     1      -2.300  11.495  17.515  0.00  0.00    +0.000 C 
ATOM     14  O   UNL     1      -3.252  11.363  16.766  0.00  0.00    +0.000 OA
ATOM     15  C   UNL     1      -2.105  10.813  18.841  0.00  0.00    +0.000 C 
ATOM     16  H   UNL     1      -1.243  12.982  16.505  0.00  0.00    +0.000 HD
ENDBRANCH   5  10
BRANCH   1  21
ATOM     17  C   UNL     1       5.482   5.143  15.955  0.00  0.00    +0.000 A 
ATOM     18  C   UNL     1       6.714   5.800  16.056  0.00  0.00    +0.000 A 
ATOM     19  C   UNL     1       6.903   6.786  17.022  0.00  0.00    +0.000 A 
ATOM     20  C   UNL     1       5.857   7.151  17.874  0.00  0.00    +0.000 A 
ATOM     21  C   UNL     1       4.581   6.592  17.706  0.00  0.00    +0.000 A 
ATOM     22  C   UNL     1       4.419   5.584  16.751  0.00  0.00    +0.000 A 
BRANCH  17  23
ATOM     23  C   UNL     1       5.307   3.952  15.043  0.00  0.00    +0.000 C 
BRANCH  23  25
ATOM     24  C   UNL     1       5.740   3.455  12.600  0.00  0.00    +0.000 C 
ATOM     25  C   UNL     1       6.326   3.982  13.897  0.00  0.00    +0.000 C 
ENDBRANCH  23  25
ENDBRANCH  17  23
ENDBRANCH   1  21
BRANCH   8  26
ATOM     26  C   UNL     1       3.016   5.042  20.059  0.00  0.00    +0.000 C 
BRANCH  26  27
ATOM     27  C   UNL     1       1.773   4.157  19.929  0.00  0.00    +0.000 C 
BRANCH  27  28
ATOM     28  C   UNL     1       1.662   3.287  18.649  0.00  0.00    +0.000 C 
ATOM     29  C   UNL     1       1.276   4.130  17.419  0.00  0.00    +0.000 C 
ATOM     30  C   UNL     1       3.052   2.670  18.395  0.00  0.00    +0.000 C 
ATOM     31  C   UNL     1       0.644   2.153  18.828  0.00  0.00    +0.000 C 
ENDBRANCH  27  28
ENDBRANCH  26  27
ENDBRANCH   8  26
TORSDOF 7
ENDMDL
MODEL 6
REMARK VINA RESULT:      -8.0      1.136      1.479
REMARK  Name = 
REMARK  11 active torsions:
REMARK  status: ('A' for Active; 'I' for Inactive)
REMARK    1  A    between atoms: C_1  and  C_2
REMARK    2  A    between atoms: C_2  and  C_3
REMARK    3  A    between atoms: C_3  and  C_4
REMARK    4  A    between atoms: C_8  and  C_9
REMARK    5  A    between atoms: C_13  and  C_15
REMARK    6  A    between atoms: N_22  and  C_23
REMARK    7  A    between atoms: C_23  and  C_24
REMARK    8  A    between atoms: C_24  and  C_25
REMARK    9  A    between atoms: C_25  and  C_26
REMARK   10  A    between atoms: C_25  and  C_27
REMARK   11  A    between atoms: C_25  and  C_28
REMARK                            x       y       z     vdW  Elec       q    Type
REMARK                         _______ _______ _______ _____ _____    ______ ____
ROOT
ATOM      1  C   UNL     1       3.223   7.082  18.513  0.00  0.00    +0.000 A 
ATOM      2  C   UNL     1       2.540   8.278  18.375  0.00  0.00    +0.000 A 
ATOM      3  C   UNL     1       1.650   8.356  19.456  0.00  0.00    +0.000 A 
ATOM      4  N   UNL     1       0.780   9.385  19.725  0.00  0.00    +0.000 N 
ATOM      5  C   UNL     1       0.056   9.999  18.722  0.00  0.00    +0.000 C 
ATOM      6  O   UNL     1       0.076   9.667  17.537  0.00  0.00    +0.000 OA
ATOM      7  N   UNL     1       1.788   7.319  20.280  0.00  0.00    +0.000 NA
ATOM      8  N   UNL     1       2.661   6.497  19.634  0.00  0.00    +0.000 N 
ATOM      9  H   UNL     1       0.474   9.437  20.688  0.00  0.00    +0.000 HD
ENDROOT
BRANCH   5  10
ATOM     10  C   UNL     1      -0.816  11.170  19.152  0.00  0.00    +0.000 C 
ATOM     11  C   UNL     1      -0.502  12.449  18.403  0.00  0.00    +0.000 C 
ATOM     12  N   UNL     1      -1.391  12.397  17.280  0.00  0.00    +0.000 N 
ATOM     13  C   UNL     1      -2.472  11.570  17.514  0.00  0.00    +0.000 C 
ATOM     14  O   UNL     1      -3.423  11.439  16.763  0.00  0.00    +0.000 OA
ATOM     15  C   UNL     1      -2.288  10.901  18.849  0.00  0.00    +0.000 C 
ATOM     16  H   UNL     1      -1.395  13.033  16.489  0.00  0.00    +0.000 HD
ENDBRANCH   5  10
BRANCH   1  21
ATOM     17  C   UNL     1       6.760   6.799  17.254  0.00  0.00    +0.000 A 
ATOM     18  C   UNL     1       6.657   5.723  16.365  0.00  0.00    +0.000 A 
ATOM     19  C   UNL     1       5.413   5.157  16.094  0.00  0.00    +0.000 A 
ATOM     20  C   UNL     1       4.266   5.634  16.732  0.00  0.00    +0.000 A 
ATOM     21  C   UNL     1       4.365   6.627  17.718  0.00  0.00    +0.000 A 
ATOM     22  C   UNL     1       5.617   7.203  17.954  0.00  0.00    +0.000 A 
BRANCH  17  23
ATOM     23  C   UNL     1       8.061   7.546  17.427  0.00  0.00    +0.000 C 
BRANCH  23  25
ATOM     24  C   UNL     1       8.875   9.598  18.664  0.00  0.00    +0.000 C 
ATOM     25  C   UNL     1       7.809   9.024  17.749  0.00  0.00    +0.000 C 
ENDBRANCH  23  25
ENDBRANCH  17  23
ENDBRANCH   1  21
BRANCH   8  26
ATOM     26  C   UNL     1       2.886   5.167  20.182  0.00  0.00    +0.000 C 
BRANCH  26  27
ATOM     27  C   UNL     1       1.682   4.236  20.018  0.00  0.00    +0.000 C 
BRANCH  27  28
ATOM     28  C   UNL     1       1.662   3.332  18.757  0.00  0.00    +0.000 C 
ATOM     29  C   UNL     1       1.292   4.127  17.492  0.00  0.00    +0.000 C 
ATOM     30  C   UNL     1       3.087   2.769  18.577  0.00  0.00    +0.000 C 
ATOM     31  C   UNL     1       0.687   2.159  18.924  0.00  0.00    +0.000 C 
ENDBRANCH  27  28
ENDBRANCH  26  27
ENDBRANCH   8  26
TORSDOF 7
ENDMDL
MODEL 7
REMARK VINA RESULT:      -7.9      0.986      1.263
REMARK  Name = 
REMARK  11 active torsions:
REMARK  status: ('A' for Active; 'I' for Inactive)
REMARK    1  A    between atoms: C_1  and  C_2
REMARK    2  A    between atoms: C_2  and  C_3
REMARK    3  A    between atoms: C_3  and  C_4
REMARK    4  A    between atoms: C_8  and  C_9
REMARK    5  A    between atoms: C_13  and  C_15
REMARK    6  A    between atoms: N_22  and  C_23
REMARK    7  A    between atoms: C_23  and  C_24
REMARK    8  A    between atoms: C_24  and  C_25
REMARK    9  A    between atoms: C_25  and  C_26
REMARK   10  A    between atoms: C_25  and  C_27
REMARK   11  A    between atoms: C_25  and  C_28
REMARK                            x       y       z     vdW  Elec       q    Type
REMARK                         _______ _______ _______ _____ _____    ______ ____
ROOT
ATOM      1  C   UNL     1       2.949   6.776  18.974  0.00  0.00    +0.000 A 
ATOM      2  C   UNL     1       2.455   8.053  18.775  0.00  0.00    +0.000 A 
ATOM      3  C   UNL     1       1.561   8.303  19.826  0.00  0.00    +0.000 A 
ATOM      4  N   UNL     1       0.847   9.458  20.033  0.00  0.00    +0.000 N 
ATOM      5  C   UNL     1       0.246  10.133  18.990  0.00  0.00    +0.000 C 
ATOM      6  O   UNL     1       0.245   9.757  17.818  0.00  0.00    +0.000 OA
ATOM      7  N   UNL     1       1.524   7.289  20.689  0.00  0.00    +0.000 NA
ATOM      8  N   UNL     1       2.280   6.324  20.098  0.00  0.00    +0.000 N 
ATOM      9  H   UNL     1       0.529   9.591  20.985  0.00  0.00    +0.000 HD
ENDROOT
BRANCH   5  10
ATOM     10  C   UNL     1      -0.452  11.436  19.354  0.00  0.00    +0.000 C 
ATOM     11  C   UNL     1      -0.161  12.557  18.377  0.00  0.00    +0.000 C 
ATOM     12  N   UNL     1      -1.217  12.437  17.416  0.00  0.00    +0.000 N 
ATOM     13  C   UNL     1      -2.309  11.765  17.929  0.00  0.00    +0.000 C 
ATOM     14  O   UNL     1      -3.373  11.626  17.352  0.00  0.00    +0.000 OA
ATOM     15  C   UNL     1      -1.970  11.277  19.310  0.00  0.00    +0.000 C 
ATOM     16  H   UNL     1      -1.296  12.952  16.545  0.00  0.00    +0.000 HD
ENDBRANCH   5  10
BRANCH   1  21
ATOM     17  C   UNL     1       6.383   5.464  18.158  0.00  0.00    +0.000 A 
ATOM     18  C   UNL     1       6.144   4.774  16.964  0.00  0.00    +0.000 A 
ATOM     19  C   UNL     1       4.886   4.823  16.368  0.00  0.00    +0.000 A 
ATOM     20  C   UNL     1       3.845   5.532  16.972  0.00  0.00    +0.000 A 
ATOM     21  C   UNL     1       4.030   6.127  18.229  0.00  0.00    +0.000 A 
ATOM     22  C   UNL     1       5.308   6.092  18.797  0.00  0.00    +0.000 A 
BRANCH  17  23
ATOM     23  C   UNL     1       7.777   5.577  18.728  0.00  0.00    +0.000 C 
BRANCH  23  25
ATOM     24  C   UNL     1       7.823   7.819  17.555  0.00  0.00    +0.000 C 
ATOM     25  C   UNL     1       8.228   7.041  18.794  0.00  0.00    +0.000 C 
ENDBRANCH  23  25
ENDBRANCH  17  23
ENDBRANCH   1  21
BRANCH   8  26
ATOM     26  C   UNL     1       2.292   4.997  20.698  0.00  0.00    +0.000 C 
BRANCH  26  27
ATOM     27  C   UNL     1       1.161   4.096  20.192  0.00  0.00    +0.000 C 
BRANCH  27  28
ATOM     28  C   UNL     1       1.509   3.112  19.045  0.00  0.00    +0.000 C 
ATOM     29  C   UNL     1       0.619   1.857  19.081  0.00  0.00    +0.000 C 
ATOM     30  C   UNL     1       1.253   3.850  17.716  0.00  0.00    +0.000 C 
ATOM     31  C   UNL     1       2.984   2.690  19.097  0.00  0.00    +0.000 C 
ENDBRANCH  27  28
ENDBRANCH  26  27
ENDBRANCH   8  26
TORSDOF 7
ENDMDL
MODEL 8
REMARK VINA RESULT:      -7.9      1.180      1.491
REMARK  Name = 
REMARK  11 active torsions:
REMARK  status: ('A' for Active; 'I' for Inactive)
REMARK    1  A    between atoms: C_1  and  C_2
REMARK    2  A    between atoms: C_2  and  C_3
REMARK    3  A    between atoms: C_3  and  C_4
REMARK    4  A    between atoms: C_8  and  C_9
REMARK    5  A    between atoms: C_13  and  C_15
REMARK    6  A    between atoms: N_22  and  C_23
REMARK    7  A    between atoms: C_23  and  C_24
REMARK    8  A    between atoms: C_24  and  C_25
REMARK    9  A    between atoms: C_25  and  C_26
REMARK   10  A    between atoms: C_25  and  C_27
REMARK   11  A    between atoms: C_25  and  C_28
REMARK                            x       y       z     vdW  Elec       q    Type
REMARK                         _______ _______ _______ _____ _____    ______ ____
ROOT
ATOM      1  C   UNL     1       3.162   7.095  18.420  0.00  0.00    +0.000 A 
ATOM      2  C   UNL     1       2.514   8.312  18.304  0.00  0.00    +0.000 A 
ATOM      3  C   UNL     1       1.690   8.435  19.431  0.00  0.00    +0.000 A 
ATOM      4  N   UNL     1       0.872   9.497  19.734  0.00  0.00    +0.000 N 
ATOM      5  C   UNL     1       0.114  10.124  18.765  0.00  0.00    +0.000 C 
ATOM      6  O   UNL     1       0.055   9.777  17.586  0.00  0.00    +0.000 OA
ATOM      7  N   UNL     1       1.839   7.405  20.262  0.00  0.00    +0.000 NA
ATOM      8  N   UNL     1       2.645   6.545  19.580  0.00  0.00    +0.000 N 
ATOM      9  H   UNL     1       0.624   9.572  20.712  0.00  0.00    +0.000 HD
ENDROOT
BRANCH   5  10
ATOM     10  C   UNL     1      -0.691  11.330  19.226  0.00  0.00    +0.000 C 
ATOM     11  C   UNL     1      -0.427  12.571  18.398  0.00  0.00    +0.000 C 
ATOM     12  N   UNL     1      -1.420  12.494  17.367  0.00  0.00    +0.000 N 
ATOM     13  C   UNL     1      -2.488  11.702  17.736  0.00  0.00    +0.000 C 
ATOM     14  O   UNL     1      -3.508  11.562  17.085  0.00  0.00    +0.000 OA
ATOM     15  C   UNL     1      -2.190  11.083  19.075  0.00  0.00    +0.000 C 
ATOM     16  H   UNL     1      -1.487  13.098  16.555  0.00  0.00    +0.000 HD
ENDBRANCH   5  10
BRANCH   1  21
ATOM     17  C   UNL     1       6.357   5.374  17.419  0.00  0.00    +0.000 A 
ATOM     18  C   UNL     1       6.287   5.441  16.023  0.00  0.00    +0.000 A 
ATOM     19  C   UNL     1       5.251   6.141  15.407  0.00  0.00    +0.000 A 
ATOM     20  C   UNL     1       4.257   6.751  16.176  0.00  0.00    +0.000 A 
ATOM     21  C   UNL     1       4.241   6.590  17.569  0.00  0.00    +0.000 A 
ATOM     22  C   UNL     1       5.305   5.910  18.170  0.00  0.00    +0.000 A 
BRANCH  17  23
ATOM     23  C   UNL     1       7.561   4.780  18.111  0.00  0.00    +0.000 C 
BRANCH  23  25
ATOM     24  C   UNL     1       8.259   7.150  18.658  0.00  0.00    +0.000 C 
ATOM     25  C   UNL     1       8.105   5.734  19.182  0.00  0.00    +0.000 C 
ENDBRANCH  23  25
ENDBRANCH  17  23
ENDBRANCH   1  21
BRANCH   8  26
ATOM     26  C   UNL     1       2.855   5.215  20.134  0.00  0.00    +0.000 C 
BRANCH  26  27
ATOM     27  C   UNL     1       1.884   4.169  19.577  0.00  0.00    +0.000 C 
BRANCH  27  28
ATOM     28  C   UNL     1       2.500   3.020  18.736  0.00  0.00    +0.000 C 
ATOM     29  C   UNL     1       2.621   3.403  17.250  0.00  0.00    +0.000 C 
ATOM     30  C   UNL     1       3.917   2.760  19.286  0.00  0.00    +0.000 C 
ATOM     31  C   UNL     1       1.678   1.731  18.863  0.00  0.00    +0.000 C 
ENDBRANCH  27  28
ENDBRANCH  26  27
ENDBRANCH   8  26
TORSDOF 7
ENDMDL
MODEL 9
REMARK VINA RESULT:      -7.8      1.864      2.723
REMARK  Name = 
REMARK  11 active torsions:
REMARK  status: ('A' for Active; 'I' for Inactive)
REMARK    1  A    between atoms: C_1  and  C_2
REMARK    2  A    between atoms: C_2  and  C_3
REMARK    3  A    between atoms: C_3  and  C_4
REMARK    4  A    between atoms: C_8  and  C_9
REMARK    5  A    between atoms: C_13  and  C_15
REMARK    6  A    between atoms: N_22  and  C_23
REMARK    7  A    between atoms: C_23  and  C_24
REMARK    8  A    between atoms: C_24  and  C_25
REMARK    9  A    between atoms: C_25  and  C_26
REMARK   10  A    between atoms: C_25  and  C_27
REMARK   11  A    between atoms: C_25  and  C_28
REMARK                            x       y       z     vdW  Elec       q    Type
REMARK                         _______ _______ _______ _____ _____    ______ ____
ROOT
ATOM      1  C   UNL     1       3.060   6.606  19.253  0.00  0.00    +0.000 A 
ATOM      2  C   UNL     1       2.600   7.897  19.058  0.00  0.00    +0.000 A 
ATOM      3  C   UNL     1       1.598   8.111  20.015  0.00  0.00    +0.000 A 
ATOM      4  N   UNL     1       0.873   9.264  20.195  0.00  0.00    +0.000 N 
ATOM      5  C   UNL     1       0.395   9.992  19.124  0.00  0.00    +0.000 C 
ATOM      6  O   UNL     1       0.519   9.667  17.943  0.00  0.00    +0.000 OA
ATOM      7  N   UNL     1       1.460   7.061  20.824  0.00  0.00    +0.000 NA
ATOM      8  N   UNL     1       2.269   6.114  20.276  0.00  0.00    +0.000 N 
ATOM      9  H   UNL     1       0.454   9.360  21.111  0.00  0.00    +0.000 HD
ENDROOT
BRANCH   5  10
ATOM     10  C   UNL     1      -0.330  11.285  19.467  0.00  0.00    +0.000 C 
ATOM     11  C   UNL     1       0.142  11.902  20.768  0.00  0.00    +0.000 C 
ATOM     12  N   UNL     1       1.195  12.781  20.351  0.00  0.00    +0.000 N 
ATOM     13  C   UNL     1       1.082  13.128  19.020  0.00  0.00    +0.000 C 
ATOM     14  O   UNL     1       1.785  13.945  18.452  0.00  0.00    +0.000 OA
ATOM     15  C   UNL     1      -0.063  12.361  18.416  0.00  0.00    +0.000 C 
ATOM     16  H   UNL     1       1.828  13.289  20.960  0.00  0.00    +0.000 HD
ENDBRANCH   5  10
BRANCH   1  21
ATOM     17  C   UNL     1       5.325   5.365  16.512  0.00  0.00    +0.000 A 
ATOM     18  C   UNL     1       6.439   4.937  17.242  0.00  0.00    +0.000 A 
ATOM     19  C   UNL     1       6.413   4.953  18.634  0.00  0.00    +0.000 A 
ATOM     20  C   UNL     1       5.288   5.429  19.313  0.00  0.00    +0.000 A 
ATOM     21  C   UNL     1       4.212   5.977  18.602  0.00  0.00    +0.000 A 
ATOM     22  C   UNL     1       4.245   5.925  17.205  0.00  0.00    +0.000 A 
BRANCH  17  23
ATOM     23  C   UNL     1       5.258   5.189  15.014  0.00  0.00    +0.000 C 
BRANCH  23  25
ATOM     24  C   UNL     1       6.004   3.708  13.102  0.00  0.00    +0.000 C 
ATOM     25  C   UNL     1       6.253   4.122  14.541  0.00  0.00    +0.000 C 
ENDBRANCH  23  25
ENDBRANCH  17  23
ENDBRANCH   1  21
BRANCH   8  26
ATOM     26  C   UNL     1       2.206   4.762  20.814  0.00  0.00    +0.000 C 
BRANCH  26  27
ATOM     27  C   UNL     1       1.089   3.917  20.194  0.00  0.00    +0.000 C 
BRANCH  27  28
ATOM     28  C   UNL     1       1.451   3.099  18.927  0.00  0.00    +0.000 C 
ATOM     29  C   UNL     1       1.365   3.956  17.651  0.00  0.00    +0.000 C 
ATOM     30  C   UNL     1       2.908   2.621  19.093  0.00  0.00    +0.000 C 
ATOM     31  C   UNL     1       0.544   1.870  18.776  0.00  0.00    +0.000 C 
ENDBRANCH  27  28
ENDBRANCH  26  27
ENDBRANCH   8  26
TORSDOF 7
ENDMDL
