MODEL 1
REMARK VINA RESULT:      -8.3      0.000      0.000
REMARK  Name = 
REMARK  8 active torsions:
REMARK  status: ('A' for Active; 'I' for Inactive)
REMARK    1  A    between atoms: C_1  and  O_2
REMARK    2  A    between atoms: O_2  and  C_3
REMARK    3  A    between atoms: C_3  and  C_4
REMARK    4  A    between atoms: C_4  and  N_5
REMARK    5  A    between atoms: C_11  and  C_12
REMARK    6  A    between atoms: N_17  and  C_18
REMARK    7  A    between atoms: N_22  and  C_23
REMARK    8  A    between atoms: N_25  and  C_26
REMARK                            x       y       z     vdW  Elec       q    Type
REMARK                         _______ _______ _______ _____ _____    ______ ____
ROOT
ATOM      1  N   UNL     1      -0.726  11.847  22.116  0.00  0.00    +0.000 N 
ATOM      2  C   UNL     1      -0.858  12.372  20.748  0.00  0.00    +0.000 C 
ATOM      3  C   UNL     1      -0.101  11.664  19.608  0.00  0.00    +0.000 C 
ATOM      4  C   UNL     1       0.497  10.384  20.052  0.00  0.00    +0.000 A 
ATOM      5  C   UNL     1       0.465   9.907  21.337  0.00  0.00    +0.000 A 
ATOM      6  C   UNL     1       1.151   8.671  21.324  0.00  0.00    +0.000 A 
ATOM      7  C   UNL     1       1.571   8.402  20.023  0.00  0.00    +0.000 A 
ATOM      8  N   UNL     1       1.177   9.485  19.256  0.00  0.00    +0.000 N 
ATOM      9  C   UNL     1       1.370   9.692  17.836  0.00  0.00    +0.000 C 
ATOM     10  C   UNL     1      -0.169  10.608  22.438  0.00  0.00    +0.000 C 
ATOM     11  O   UNL     1      -0.191  10.134  23.568  0.00  0.00    +0.000 OA
ENDROOT
BRANCH   7  12
ATOM     12  C   UNL     1       2.237   7.187  19.537  0.00  0.00    +0.000 A 
ATOM     13  C   UNL     1       2.108   6.004  20.232  0.00  0.00    +0.000 A 
ATOM     14  C   UNL     1       2.740   4.926  19.681  0.00  0.00    +0.000 A 
ATOM     15  N   UNL     1       3.465   5.001  18.559  0.00  0.00    +0.000 NA
ATOM     16  C   UNL     1       3.579   6.199  17.961  0.00  0.00    +0.000 A 
ATOM     17  N   UNL     1       4.373   6.342  16.813  0.00  0.00    +0.000 N 
ATOM     18  N   UNL     1       2.961   7.305  18.404  0.00  0.00    +0.000 NA
ATOM     19  H   UNL     1       4.256   7.278  16.448  0.00  0.00    +0.000 HD
BRANCH  17  20
ATOM     20  C   UNL     1       5.434   5.555  16.497  0.00  0.00    +0.000 A 
ATOM     21  C   UNL     1       5.529   4.387  15.769  0.00  0.00    +0.000 A 
ATOM     22  C   UNL     1       6.878   4.010  15.829  0.00  0.00    +0.000 A 
ATOM     23  N   UNL     1       7.613   4.872  16.532  0.00  0.00    +0.000 NA
ATOM     24  N   UNL     1       6.720   5.804  16.928  0.00  0.00    +0.000 N 
ATOM     25  C   UNL     1       7.195   6.917  17.713  0.00  0.00    +0.000 C 
ENDBRANCH  17  20
ENDBRANCH   7  12
BRANCH   1  26
ATOM     26  C   UNL     1      -1.389  12.594  23.185  0.00  0.00    +0.000 C 
BRANCH  26  27
ATOM     27  C   UNL     1      -2.914  12.577  23.062  0.00  0.00    +0.000 C 
BRANCH  27  29
ATOM     28  C   UNL     1      -4.686  12.370  24.590  0.00  0.00    +0.000 C 
ATOM     29  O   UNL     1      -3.471  11.797  24.121  0.00  0.00    +0.000 OA
ENDBRANCH  27  29
ENDBRANCH  26  27
ENDBRANCH   1  26
TORSDOF 5
ENDMDL
MODEL 2
REMARK VINA RESULT:      -8.1      4.088      9.724
REMARK  Name = 
REMARK  8 active torsions:
REMARK  status: ('A' for Active; 'I' for Inactive)
REMARK    1  A    between atoms: C_1  and  O_2
REMARK    2  A    between atoms: O_2  and  C_3
REMARK    3  A    between atoms: C_3  and  C_4
REMARK    4  A    between atoms: C_4  and  N_5
REMARK    5  A    between atoms: C_11  and  C_12
REMARK    6  A    between atoms: N_17  and  C_18
REMARK    7  A    between atoms: N_22  and  C_23
REMARK    8  A    between atoms: N_25  and  C_26
REMARK                            x       y       z     vdW  Elec       q    Type
REMARK                         _______ _______ _______ _____ _____    ______ ____
ROOT
ATOM      1  N   UNL     1       5.681   5.142  16.961  0.00  0.00    +0.000 N 
ATOM      2  C   UNL     1       5.229   4.210  18.007  0.00  0.00    +0.000 C 
ATOM      3  C   UNL     1       4.184   4.695  19.029  0.00  0.00    +0.000 C 
ATOM      4  C   UNL     1       3.616   6.011  18.658  0.00  0.00    +0.000 A 
ATOM      5  C   UNL     1       4.014   6.763  17.583  0.00  0.00    +0.000 A 
ATOM      6  C   UNL     1       3.226   7.936  17.598  0.00  0.00    +0.000 A 
ATOM      7  C   UNL     1       2.340   7.870  18.671  0.00  0.00    +0.000 A 
ATOM      8  N   UNL     1       2.613   6.681  19.328  0.00  0.00    +0.000 N 
ATOM      9  C   UNL     1       1.965   6.141  20.505  0.00  0.00    +0.000 C 
ATOM     10  C   UNL     1       5.060   6.356  16.662  0.00  0.00    +0.000 C 
ATOM     11  O   UNL     1       5.370   7.052  15.702  0.00  0.00    +0.000 OA
ENDROOT
BRANCH   7  12
ATOM     12  C   UNL     1       1.278   8.827  19.009  0.00  0.00    +0.000 A 
ATOM     13  C   UNL     1       1.073   9.195  20.320  0.00  0.00    +0.000 A 
ATOM     14  C   UNL     1       0.083  10.113  20.526  0.00  0.00    +0.000 A 
ATOM     15  N   UNL     1      -0.669  10.608  19.534  0.00  0.00    +0.000 NA
ATOM     16  C   UNL     1      -0.437  10.168  18.287  0.00  0.00    +0.000 A 
ATOM     17  N   UNL     1      -1.233  10.614  17.221  0.00  0.00    +0.000 N 
ATOM     18  N   UNL     1       0.541   9.300  17.982  0.00  0.00    +0.000 NA
ATOM     19  H   UNL     1      -0.850  10.261  16.355  0.00  0.00    +0.000 HD
BRANCH  17  20
ATOM     20  C   UNL     1      -2.515  11.050  17.336  0.00  0.00    +0.000 A 
ATOM     21  C   UNL     1      -3.212  11.587  18.399  0.00  0.00    +0.000 A 
ATOM     22  C   UNL     1      -4.516  11.798  17.931  0.00  0.00    +0.000 A 
ATOM     23  N   UNL     1      -4.660  11.437  16.656  0.00  0.00    +0.000 NA
ATOM     24  N   UNL     1      -3.434  10.988  16.311  0.00  0.00    +0.000 N 
ATOM     25  C   UNL     1      -3.229  10.526  14.960  0.00  0.00    +0.000 C 
ENDBRANCH  17  20
ENDBRANCH   7  12
BRANCH   1  26
ATOM     26  C   UNL     1       6.735   4.676  16.061  0.00  0.00    +0.000 C 
BRANCH  26  27
ATOM     27  C   UNL     1       6.255   3.585  15.101  0.00  0.00    +0.000 C 
BRANCH  27  29
ATOM     28  C   UNL     1       6.206   3.628  12.753  0.00  0.00    +0.000 C 
ATOM     29  O   UNL     1       5.670   4.188  13.945  0.00  0.00    +0.000 OA
ENDBRANCH  27  29
ENDBRANCH  26  27
ENDBRANCH   1  26
TORSDOF 5
ENDMDL
MODEL 3
REMARK VINA RESULT:      -8.0      1.090      1.381
REMARK  Name = 
REMARK  8 active torsions:
REMARK  status: ('A' for Active; 'I' for Inactive)
REMARK    1  A    between atoms: C_1  and  O_2
REMARK    2  A    between atoms: O_2  and  C_3
REMARK    3  A    between atoms: C_3  and  C_4
REMARK    4  A    between atoms: C_4  and  N_5
REMARK    5  A    between atoms: C_11  and  C_12
REMARK    6  A    between atoms: N_17  and  C_18
REMARK    7  A    between atoms: N_22  and  C_23
REMARK    8  A    between atoms: N_25  and  C_26
REMARK                            x       y       z     vdW  Elec       q    Type
REMARK                         _______ _______ _______ _____ _____    ______ ____
ROOT
ATOM      1  N   UNL     1      -0.836  11.326  22.185  0.00  0.00    +0.000 N 
ATOM      2  C   UNL     1      -1.036  11.843  20.823  0.00  0.00    +0.000 C 
ATOM      3  C   UNL     1      -0.253  11.198  19.664  0.00  0.00    +0.000 C 
ATOM      4  C   UNL     1       0.451   9.966  20.090  0.00  0.00    +0.000 A 
ATOM      5  C   UNL     1       0.482   9.485  21.372  0.00  0.00    +0.000 A 
ATOM      6  C   UNL     1       1.260   8.304  21.340  0.00  0.00    +0.000 A 
ATOM      7  C   UNL     1       1.672   8.072  20.029  0.00  0.00    +0.000 A 
ATOM      8  N   UNL     1       1.180   9.124  19.275  0.00  0.00    +0.000 N 
ATOM      9  C   UNL     1       1.327   9.349  17.852  0.00  0.00    +0.000 C 
ATOM     10  C   UNL     1      -0.180  10.132  22.490  0.00  0.00    +0.000 C 
ATOM     11  O   UNL     1      -0.141   9.654  23.618  0.00  0.00    +0.000 OA
ENDROOT
BRANCH   7  12
ATOM     12  C   UNL     1       2.417   6.912  19.524  0.00  0.00    +0.000 A 
ATOM     13  C   UNL     1       2.492   5.759  20.274  0.00  0.00    +0.000 A 
ATOM     14  C   UNL     1       3.182   4.729  19.702  0.00  0.00    +0.000 A 
ATOM     15  N   UNL     1       3.779   4.825  18.508  0.00  0.00    +0.000 NA
ATOM     16  C   UNL     1       3.698   5.997  17.856  0.00  0.00    +0.000 A 
ATOM     17  N   UNL     1       4.353   6.166  16.626  0.00  0.00    +0.000 N 
ATOM     18  N   UNL     1       3.007   7.051  18.318  0.00  0.00    +0.000 NA
ATOM     19  H   UNL     1       4.097   7.065  16.239  0.00  0.00    +0.000 HD
BRANCH  17  20
ATOM     20  C   UNL     1       5.459   5.483  16.232  0.00  0.00    +0.000 A 
ATOM     21  C   UNL     1       5.625   4.421  15.367  0.00  0.00    +0.000 A 
ATOM     22  C   UNL     1       6.992   4.113  15.400  0.00  0.00    +0.000 A 
ATOM     23  N   UNL     1       7.672   4.920  16.216  0.00  0.00    +0.000 NA
ATOM     24  N   UNL     1       6.725   5.747  16.709  0.00  0.00    +0.000 N 
ATOM     25  C   UNL     1       7.131   6.779  17.632  0.00  0.00    +0.000 C 
ENDBRANCH  17  20
ENDBRANCH   7  12
BRANCH   1  26
ATOM     26  C   UNL     1      -1.531  12.017  23.271  0.00  0.00    +0.000 C 
BRANCH  26  27
ATOM     27  C   UNL     1      -1.727  13.509  22.994  0.00  0.00    +0.000 C 
BRANCH  27  29
ATOM     28  C   UNL     1      -0.358  15.355  22.505  0.00  0.00    +0.000 C 
ATOM     29  O   UNL     1      -0.539  14.222  23.346  0.00  0.00    +0.000 OA
ENDBRANCH  27  29
ENDBRANCH  26  27
ENDBRANCH   1  26
TORSDOF 5
ENDMDL
MODEL 4
REMARK VINA RESULT:      -7.9      0.893      1.198
REMARK  Name = 
REMARK  8 active torsions:
REMARK  status: ('A' for Active; 'I' for Inactive)
REMARK    1  A    between atoms: C_1  and  O_2
REMARK    2  A    between atoms: O_2  and  C_3
REMARK    3  A    between atoms: C_3  and  C_4
REMARK    4  A    between atoms: C_4  and  N_5
REMARK    5  A    between atoms: C_11  and  C_12
REMARK    6  A    between atoms: N_17  and  C_18
REMARK    7  A    between atoms: N_22  and  C_23
REMARK    8  A    between atoms: N_25  and  C_26
REMARK                            x       y       z     vdW  Elec       q    Type
REMARK                         _______ _______ _______ _____ _____    ______ ____
ROOT
ATOM      1  N   UNL     1      -0.981  11.665  22.183  0.00  0.00    +0.000 N 
ATOM      2  C   UNL     1      -1.241  12.061  20.790  0.00  0.00    +0.000 C 
ATOM      3  C   UNL     1      -0.492  11.329  19.661  0.00  0.00    +0.000 C 
ATOM      4  C   UNL     1       0.246  10.146  20.162  0.00  0.00    +0.000 A 
ATOM      5  C   UNL     1       0.333   9.777  21.479  0.00  0.00    +0.000 A 
ATOM      6  C   UNL     1       1.127   8.607  21.516  0.00  0.00    +0.000 A 
ATOM      7  C   UNL     1       1.493   8.269  20.215  0.00  0.00    +0.000 A 
ATOM      8  N   UNL     1       0.956   9.247  19.394  0.00  0.00    +0.000 N 
ATOM      9  C   UNL     1       1.046   9.351  17.953  0.00  0.00    +0.000 C 
ATOM     10  C   UNL     1      -0.296  10.509  22.562  0.00  0.00    +0.000 C 
ATOM     11  O   UNL     1      -0.206  10.130  23.725  0.00  0.00    +0.000 OA
ENDROOT
BRANCH   7  12
ATOM     12  C   UNL     1       2.237   7.079  19.781  0.00  0.00    +0.000 A 
ATOM     13  C   UNL     1       1.943   5.847  20.321  0.00  0.00    +0.000 A 
ATOM     14  C   UNL     1       2.669   4.800  19.829  0.00  0.00    +0.000 A 
ATOM     15  N   UNL     1       3.627   4.948  18.906  0.00  0.00    +0.000 NA
ATOM     16  C   UNL     1       3.886   6.189  18.459  0.00  0.00    +0.000 A 
ATOM     17  N   UNL     1       4.917   6.404  17.532  0.00  0.00    +0.000 N 
ATOM     18  N   UNL     1       3.197   7.271  18.852  0.00  0.00    +0.000 NA
ATOM     19  H   UNL     1       4.896   7.371  17.237  0.00  0.00    +0.000 HD
BRANCH  17  20
ATOM     20  C   UNL     1       6.014   5.614  17.391  0.00  0.00    +0.000 A 
ATOM     21  C   UNL     1       6.986   5.220  18.288  0.00  0.00    +0.000 A 
ATOM     22  C   UNL     1       7.893   4.447  17.549  0.00  0.00    +0.000 A 
ATOM     23  N   UNL     1       7.536   4.334  16.270  0.00  0.00    +0.000 NA
ATOM     24  N   UNL     1       6.392   5.046  16.193  0.00  0.00    +0.000 N 
ATOM     25  C   UNL     1       5.715   5.119  14.921  0.00  0.00    +0.000 C 
ENDBRANCH  17  20
ENDBRANCH   7  12
BRANCH   1  26
ATOM     26  C   UNL     1      -1.645  12.438  23.233  0.00  0.00    +0.000 C 
BRANCH  26  27
ATOM     27  C   UNL     1      -3.146  12.156  23.317  0.00  0.00    +0.000 C 
BRANCH  27  29
ATOM     28  C   UNL     1      -5.265  13.134  23.044  0.00  0.00    +0.000 C 
ATOM     29  O   UNL     1      -3.872  13.266  22.785  0.00  0.00    +0.000 OA
ENDBRANCH  27  29
ENDBRANCH  26  27
ENDBRANCH   1  26
TORSDOF 5
ENDMDL
MODEL 5
REMARK VINA RESULT:      -7.7      3.814      9.804
REMARK  Name = 
REMARK  8 active torsions:
REMARK  status: ('A' for Active; 'I' for Inactive)
REMARK    1  A    between atoms: C_1  and  O_2
REMARK    2  A    between atoms: O_2  and  C_3
REMARK    3  A    between atoms: C_3  and  C_4
REMARK    4  A    between atoms: C_4  and  N_5
REMARK    5  A    between atoms: C_11  and  C_12
REMARK    6  A    between atoms: N_17  and  C_18
REMARK    7  A    between atoms: N_22  and  C_23
REMARK    8  A    between atoms: N_25  and  C_26
REMARK                            x       y       z     vdW  Elec       q    Type
REMARK                         _______ _______ _______ _____ _____    ______ ____
ROOT
ATOM      1  N   UNL     1       5.788   4.720  16.120  0.00  0.00    +0.000 N 
ATOM      2  C   UNL     1       4.932   3.563  16.425  0.00  0.00    +0.000 C 
ATOM      3  C   UNL     1       3.798   3.732  17.453  0.00  0.00    +0.000 C 
ATOM      4  C   UNL     1       3.603   5.150  17.835  0.00  0.00    +0.000 A 
ATOM      5  C   UNL     1       4.380   6.192  17.401  0.00  0.00    +0.000 A 
ATOM      6  C   UNL     1       3.858   7.360  18.003  0.00  0.00    +0.000 A 
ATOM      7  C   UNL     1       2.754   7.012  18.779  0.00  0.00    +0.000 A 
ATOM      8  N   UNL     1       2.627   5.637  18.679  0.00  0.00    +0.000 N 
ATOM      9  C   UNL     1       1.632   4.784  19.294  0.00  0.00    +0.000 C 
ATOM     10  C   UNL     1       5.507   6.034  16.500  0.00  0.00    +0.000 C 
ATOM     11  O   UNL     1       6.162   6.999  16.123  0.00  0.00    +0.000 OA
ENDROOT
BRANCH   7  12
ATOM     12  C   UNL     1       1.855   7.919  19.504  0.00  0.00    +0.000 A 
ATOM     13  C   UNL     1       1.571   7.693  20.832  0.00  0.00    +0.000 A 
ATOM     14  C   UNL     1       0.751   8.610  21.424  0.00  0.00    +0.000 A 
ATOM     15  N   UNL     1       0.223   9.648  20.763  0.00  0.00    +0.000 NA
ATOM     16  C   UNL     1       0.512   9.778  19.458  0.00  0.00    +0.000 A 
ATOM     17  N   UNL     1      -0.060  10.817  18.708  0.00  0.00    +0.000 N 
ATOM     18  N   UNL     1       1.341   8.951  18.802  0.00  0.00    +0.000 NA
ATOM     19  H   UNL     1       0.349  10.818  17.784  0.00  0.00    +0.000 HD
BRANCH  17  20
ATOM     20  C   UNL     1      -1.244  11.420  18.991  0.00  0.00    +0.000 A 
ATOM     21  C   UNL     1      -1.568  12.456  19.843  0.00  0.00    +0.000 A 
ATOM     22  C   UNL     1      -2.959  12.605  19.748  0.00  0.00    +0.000 A 
ATOM     23  N   UNL     1      -3.502  11.741  18.891  0.00  0.00    +0.000 NA
ATOM     24  N   UNL     1      -2.446  11.032  18.439  0.00  0.00    +0.000 N 
ATOM     25  C   UNL     1      -2.683   9.999  17.460  0.00  0.00    +0.000 C 
ENDBRANCH  17  20
ENDBRANCH   7  12
BRANCH   1  26
ATOM     26  C   UNL     1       6.908   4.501  15.204  0.00  0.00    +0.000 C 
BRANCH  26  27
ATOM     27  C   UNL     1       6.498   4.604  13.734  0.00  0.00    +0.000 C 
BRANCH  27  29
ATOM     28  C   UNL     1       5.401   3.296  12.119  0.00  0.00    +0.000 C 
ATOM     29  O   UNL     1       6.340   3.292  13.188  0.00  0.00    +0.000 OA
ENDBRANCH  27  29
ENDBRANCH  26  27
ENDBRANCH   1  26
TORSDOF 5
ENDMDL
MODEL 6
REMARK VINA RESULT:      -7.7      3.551      9.734
REMARK  Name = 
REMARK  8 active torsions:
REMARK  status: ('A' for Active; 'I' for Inactive)
REMARK    1  A    between atoms: C_1  and  O_2
REMARK    2  A    between atoms: O_2  and  C_3
REMARK    3  A    between atoms: C_3  and  C_4
REMARK    4  A    between atoms: C_4  and  N_5
REMARK    5  A    between atoms: C_11  and  C_12
REMARK    6  A    between atoms: N_17  and  C_18
REMARK    7  A    between atoms: N_22  and  C_23
REMARK    8  A    between atoms: N_25  and  C_26
REMARK                            x       y       z     vdW  Elec       q    Type
REMARK                         _______ _______ _______ _____ _____    ______ ____
ROOT
ATOM      1  N   UNL     1       4.831   4.637  16.628  0.00  0.00    +0.000 N 
ATOM      2  C   UNL     1       4.221   3.556  17.419  0.00  0.00    +0.000 C 
ATOM      3  C   UNL     1       3.358   3.928  18.639  0.00  0.00    +0.000 C 
ATOM      4  C   UNL     1       3.092   5.384  18.706  0.00  0.00    +0.000 A 
ATOM      5  C   UNL     1       3.608   6.316  17.843  0.00  0.00    +0.000 A 
ATOM      6  C   UNL     1       3.110   7.570  18.264  0.00  0.00    +0.000 A 
ATOM      7  C   UNL     1       2.278   7.380  19.364  0.00  0.00    +0.000 A 
ATOM      8  N   UNL     1       2.298   6.022  19.636  0.00  0.00    +0.000 N 
ATOM      9  C   UNL     1       1.593   5.310  20.680  0.00  0.00    +0.000 C 
ATOM     10  C   UNL     1       4.493   5.987  16.741  0.00  0.00    +0.000 C 
ATOM     11  O   UNL     1       4.916   6.852  15.983  0.00  0.00    +0.000 OA
ENDROOT
BRANCH   7  12
ATOM     12  C   UNL     1       1.479   8.396  20.061  0.00  0.00    +0.000 A 
ATOM     13  C   UNL     1       1.386   8.378  21.436  0.00  0.00    +0.000 A 
ATOM     14  C   UNL     1       0.646   9.382  21.990  0.00  0.00    +0.000 A 
ATOM     15  N   UNL     1       0.018  10.312  21.259  0.00  0.00    +0.000 NA
ATOM     16  C   UNL     1       0.120  10.239  19.922  0.00  0.00    +0.000 A 
ATOM     17  N   UNL     1      -0.563  11.157  19.110  0.00  0.00    +0.000 N 
ATOM     18  N   UNL     1       0.859   9.314  19.290  0.00  0.00    +0.000 NA
ATOM     19  H   UNL     1      -0.288  11.013  18.148  0.00  0.00    +0.000 HD
BRANCH  17  20
ATOM     20  C   UNL     1      -1.703  11.808  19.461  0.00  0.00    +0.000 A 
ATOM     21  C   UNL     1      -1.956  12.770  20.417  0.00  0.00    +0.000 A 
ATOM     22  C   UNL     1      -3.333  13.023  20.347  0.00  0.00    +0.000 A 
ATOM     23  N   UNL     1      -3.934  12.292  19.408  0.00  0.00    +0.000 NA
ATOM     24  N   UNL     1      -2.928  11.563  18.879  0.00  0.00    +0.000 N 
ATOM     25  C   UNL     1      -3.235  10.656  17.799  0.00  0.00    +0.000 C 
ENDBRANCH  17  20
ENDBRANCH   7  12
BRANCH   1  26
ATOM     26  C   UNL     1       5.713   4.246  15.529  0.00  0.00    +0.000 C 
BRANCH  26  27
ATOM     27  C   UNL     1       7.190   4.491  15.839  0.00  0.00    +0.000 C 
BRANCH  27  29
ATOM     28  C   UNL     1       7.284   4.933  13.533  0.00  0.00    +0.000 C 
ATOM     29  O   UNL     1       7.764   5.311  14.818  0.00  0.00    +0.000 OA
ENDBRANCH  27  29
ENDBRANCH  26  27
ENDBRANCH   1  26
TORSDOF 5
ENDMDL
MODEL 7
REMARK VINA RESULT:      -7.7      3.927      9.481
REMARK  Name = 
REMARK  8 active torsions:
REMARK  status: ('A' for Active; 'I' for Inactive)
REMARK    1  A    between atoms: C_1  and  O_2
REMARK    2  A    between atoms: O_2  and  C_3
REMARK    3  A    between atoms: C_3  and  C_4
REMARK    4  A    between atoms: C_4  and  N_5
REMARK    5  A    between atoms: C_11  and  C_12
REMARK    6  A    between atoms: N_17  and  C_18
REMARK    7  A    between atoms: N_22  and  C_23
REMARK    8  A    between atoms: N_25  and  C_26
REMARK                            x       y       z     vdW  Elec       q    Type
REMARK                         _______ _______ _______ _____ _____    ______ ____
ROOT
ATOM      1  N   UNL     1       4.556   5.329  18.068  0.00  0.00    +0.000 N 
ATOM      2  C   UNL     1       3.968   4.851  19.330  0.00  0.00    +0.000 C 
ATOM      3  C   UNL     1       3.025   5.788  20.108  0.00  0.00    +0.000 C 
ATOM      4  C   UNL     1       2.675   6.996  19.326  0.00  0.00    +0.000 A 
ATOM      5  C   UNL     1       3.181   7.303  18.090  0.00  0.00    +0.000 A 
ATOM      6  C   UNL     1       2.593   8.532  17.710  0.00  0.00    +0.000 A 
ATOM      7  C   UNL     1       1.718   8.943  18.712  0.00  0.00    +0.000 A 
ATOM      8  N   UNL     1       1.800   7.990  19.714  0.00  0.00    +0.000 N 
ATOM      9  C   UNL     1       1.084   7.951  20.972  0.00  0.00    +0.000 C 
ATOM     10  C   UNL     1       4.138   6.472  17.383  0.00  0.00    +0.000 C 
ATOM     11  O   UNL     1       4.549   6.777  16.270  0.00  0.00    +0.000 OA
ENDROOT
BRANCH   7  12
ATOM     12  C   UNL     1       0.829  10.111  18.694  0.00  0.00    +0.000 A 
ATOM     13  C   UNL     1      -0.441  10.004  18.171  0.00  0.00    +0.000 A 
ATOM     14  C   UNL     1      -1.200  11.138  18.228  0.00  0.00    +0.000 A 
ATOM     15  N   UNL     1      -0.744  12.294  18.727  0.00  0.00    +0.000 NA
ATOM     16  C   UNL     1       0.520  12.332  19.178  0.00  0.00    +0.000 A 
ATOM     17  N   UNL     1       1.062  13.533  19.659  0.00  0.00    +0.000 N 
ATOM     18  N   UNL     1       1.326  11.259  19.202  0.00  0.00    +0.000 NA
ATOM     19  H   UNL     1       1.977  13.348  20.048  0.00  0.00    +0.000 HD
BRANCH  17  20
ATOM     20  C   UNL     1       0.659  14.775  19.283  0.00  0.00    +0.000 A 
ATOM     21  C   UNL     1      -0.555  15.421  19.395  0.00  0.00    +0.000 A 
ATOM     22  C   UNL     1      -0.379  16.669  18.780  0.00  0.00    +0.000 A 
ATOM     23  N   UNL     1       0.858  16.832  18.312  0.00  0.00    +0.000 NA
ATOM     24  N   UNL     1       1.475  15.673  18.629  0.00  0.00    +0.000 N 
ATOM     25  C   UNL     1       2.865  15.518  18.274  0.00  0.00    +0.000 C 
ENDBRANCH  17  20
ENDBRANCH   7  12
BRANCH   1  26
ATOM     26  C   UNL     1       5.512   4.447  17.400  0.00  0.00    +0.000 C 
BRANCH  26  27
ATOM     27  C   UNL     1       6.967   4.817  17.698  0.00  0.00    +0.000 C 
BRANCH  27  29
ATOM     28  C   UNL     1       7.125   4.666  15.358  0.00  0.00    +0.000 C 
ATOM     29  O   UNL     1       7.792   4.438  16.594  0.00  0.00    +0.000 OA
ENDBRANCH  27  29
ENDBRANCH  26  27
ENDBRANCH   1  26
TORSDOF 5
ENDMDL
MODEL 8
REMARK VINA RESULT:      -7.5      3.463      9.771
REMARK  Name = 
REMARK  8 active torsions:
REMARK  status: ('A' for Active; 'I' for Inactive)
REMARK    1  A    between atoms: C_1  and  O_2
REMARK    2  A    between atoms: O_2  and  C_3
REMARK    3  A    between atoms: C_3  and  C_4
REMARK    4  A    between atoms: C_4  and  N_5
REMARK    5  A    between atoms: C_11  and  C_12
REMARK    6  A    between atoms: N_17  and  C_18
REMARK    7  A    between atoms: N_22  and  C_23
REMARK    8  A    between atoms: N_25  and  C_26
REMARK                            x       y       z     vdW  Elec       q    Type
REMARK                         _______ _______ _______ _____ _____    ______ ____
ROOT
ATOM      1  N   UNL     1       5.579   5.144  17.207  0.00  0.00    +0.000 N 
ATOM      2  C   UNL     1       5.048   4.243  18.241  0.00  0.00    +0.000 C 
ATOM      3  C   UNL     1       3.968   4.774  19.203  0.00  0.00    +0.000 C 
ATOM      4  C   UNL     1       3.459   6.101  18.784  0.00  0.00    +0.000 A 
ATOM      5  C   UNL     1       3.934   6.823  17.720  0.00  0.00    +0.000 A 
ATOM      6  C   UNL     1       3.181   8.019  17.679  0.00  0.00    +0.000 A 
ATOM      7  C   UNL     1       2.241   7.997  18.707  0.00  0.00    +0.000 A 
ATOM      8  N   UNL     1       2.445   6.811  19.393  0.00  0.00    +0.000 N 
ATOM      9  C   UNL     1       1.723   6.309  20.543  0.00  0.00    +0.000 C 
ATOM     10  C   UNL     1       5.011   6.372  16.859  0.00  0.00    +0.000 C 
ATOM     11  O   UNL     1       5.391   7.043  15.907  0.00  0.00    +0.000 OA
ENDROOT
BRANCH   7  12
ATOM     12  C   UNL     1       1.194   8.990  18.976  0.00  0.00    +0.000 A 
ATOM     13  C   UNL     1       0.392   9.443  17.951  0.00  0.00    +0.000 A 
ATOM     14  C   UNL     1      -0.571  10.341  18.310  0.00  0.00    +0.000 A 
ATOM     15  N   UNL     1      -0.721  10.786  19.564  0.00  0.00    +0.000 NA
ATOM     16  C   UNL     1       0.127  10.330  20.501  0.00  0.00    +0.000 A 
ATOM     17  N   UNL     1       0.047  10.808  21.818  0.00  0.00    +0.000 N 
ATOM     18  N   UNL     1       1.077   9.416  20.251  0.00  0.00    +0.000 NA
ATOM     19  H   UNL     1       0.687  10.282  22.397  0.00  0.00    +0.000 HD
BRANCH  17  20
ATOM     20  C   UNL     1      -0.442  12.024  22.177  0.00  0.00    +0.000 A 
ATOM     21  C   UNL     1      -1.553  12.388  22.910  0.00  0.00    +0.000 A 
ATOM     22  C   UNL     1      -1.568  13.790  22.906  0.00  0.00    +0.000 A 
ATOM     23  N   UNL     1      -0.540  14.304  22.231  0.00  0.00    +0.000 NA
ATOM     24  N   UNL     1       0.134  13.217  21.798  0.00  0.00    +0.000 N 
ATOM     25  C   UNL     1       1.339  13.419  21.031  0.00  0.00    +0.000 C 
ENDBRANCH  17  20
ENDBRANCH   7  12
BRANCH   1  26
ATOM     26  C   UNL     1       6.663   4.633  16.367  0.00  0.00    +0.000 C 
BRANCH  26  27
ATOM     27  C   UNL     1       6.162   3.730  15.239  0.00  0.00    +0.000 C 
BRANCH  27  29
ATOM     28  C   UNL     1       6.002   3.603  12.898  0.00  0.00    +0.000 C 
ATOM     29  O   UNL     1       6.711   4.169  13.995  0.00  0.00    +0.000 OA
ENDBRANCH  27  29
ENDBRANCH  26  27
ENDBRANCH   1  26
TORSDOF 5
ENDMDL
MODEL 9
REMARK VINA RESULT:      -7.5      3.471      9.886
REMARK  Name = 
REMARK  8 active torsions:
REMARK  status: ('A' for Active; 'I' for Inactive)
REMARK    1  A    between atoms: C_1  and  O_2
REMARK    2  A    between atoms: O_2  and  C_3
REMARK    3  A    between atoms: C_3  and  C_4
REMARK    4  A    between atoms: C_4  and  N_5
REMARK    5  A    between atoms: C_11  and  C_12
REMARK    6  A    between atoms: N_17  and  C_18
REMARK    7  A    between atoms: N_22  and  C_23
REMARK    8  A    between atoms: N_25  and  C_26
REMARK                            x       y       z     vdW  Elec       q    Type
REMARK                         _______ _______ _______ _____ _____    ______ ____
ROOT
ATOM      1  N   UNL     1       5.481   5.113  17.263  0.00  0.00    +0.000 N 
ATOM      2  C   UNL     1       4.944   4.262  18.337  0.00  0.00    +0.000 C 
ATOM      3  C   UNL     1       3.888   4.852  19.290  0.00  0.00    +0.000 C 
ATOM      4  C   UNL     1       3.401   6.172  18.828  0.00  0.00    +0.000 A 
ATOM      5  C   UNL     1       3.876   6.844  17.732  0.00  0.00    +0.000 A 
ATOM      6  C   UNL     1       3.147   8.053  17.655  0.00  0.00    +0.000 A 
ATOM      7  C   UNL     1       2.220   8.088  18.694  0.00  0.00    +0.000 A 
ATOM      8  N   UNL     1       2.408   6.925  19.422  0.00  0.00    +0.000 N 
ATOM      9  C   UNL     1       1.692   6.481  20.599  0.00  0.00    +0.000 C 
ATOM     10  C   UNL     1       4.933   6.338  16.876  0.00  0.00    +0.000 C 
ATOM     11  O   UNL     1       5.314   6.965  15.894  0.00  0.00    +0.000 OA
ENDROOT
BRANCH   7  12
ATOM     12  C   UNL     1       1.196   9.112  18.938  0.00  0.00    +0.000 A 
ATOM     13  C   UNL     1       0.322   9.466  17.935  0.00  0.00    +0.000 A 
ATOM     14  C   UNL     1      -0.612  10.404  18.271  0.00  0.00    +0.000 A 
ATOM     15  N   UNL     1      -0.668  10.974  19.481  0.00  0.00    +0.000 NA
ATOM     16  C   UNL     1       0.246  10.608  20.394  0.00  0.00    +0.000 A 
ATOM     17  N   UNL     1       0.264  11.216  21.659  0.00  0.00    +0.000 N 
ATOM     18  N   UNL     1       1.174   9.665  20.169  0.00  0.00    +0.000 NA
ATOM     19  H   UNL     1       0.945  10.745  22.239  0.00  0.00    +0.000 HD
BRANCH  17  20
ATOM     20  C   UNL     1      -0.196  12.465  21.929  0.00  0.00    +0.000 A 
ATOM     21  C   UNL     1       0.315  13.715  21.643  0.00  0.00    +0.000 A 
ATOM     22  C   UNL     1      -0.577  14.631  22.219  0.00  0.00    +0.000 A 
ATOM     23  N   UNL     1      -1.600  14.027  22.824  0.00  0.00    +0.000 NA
ATOM     24  N   UNL     1      -1.353  12.713  22.635  0.00  0.00    +0.000 N 
ATOM     25  C   UNL     1      -2.297  11.757  23.161  0.00  0.00    +0.000 C 
ENDBRANCH  17  20
ENDBRANCH   7  12
BRANCH   1  26
ATOM     26  C   UNL     1       6.543   4.549  16.430  0.00  0.00    +0.000 C 
BRANCH  26  27
ATOM     27  C   UNL     1       6.004   3.679  15.293  0.00  0.00    +0.000 C 
BRANCH  27  29
ATOM     28  C   UNL     1       5.893   3.616  12.946  0.00  0.00    +0.000 C 
ATOM     29  O   UNL     1       6.660   4.029  14.072  0.00  0.00    +0.000 OA
ENDBRANCH  27  29
ENDBRANCH  26  27
ENDBRANCH   1  26
TORSDOF 5
ENDMDL
