MODEL 1
REMARK VINA RESULT:      -7.3      0.000      0.000
REMARK  Name = 
REMARK  8 active torsions:
REMARK  status: ('A' for Active; 'I' for Inactive)
REMARK    1  A    between atoms: C_1  and  C_2
REMARK    2  A    between atoms: C_2  and  C_3
REMARK    3  A    between atoms: C_3  and  O_4
REMARK    4  A    between atoms: O_4  and  C_5
REMARK    5  A    between atoms: C_10  and  C_11
REMARK    6  A    between atoms: C_14  and  C_15
REMARK    7  A    between atoms: C_15  and  N_16
REMARK    8  A    between atoms: N_22  and  C_23
REMARK                            x       y       z     vdW  Elec       q    Type
REMARK                         _______ _______ _______ _____ _____    ______ ____
ROOT
ATOM      1  C   UNL     1       3.168   6.654  18.900  0.00  0.00    +0.000 A 
ATOM      2  N   UNL     1       3.176   7.513  17.896  0.00  0.00    +0.000 NA
ATOM      3  N   UNL     1       2.248   8.515  18.168  0.00  0.00    +0.000 NA
ATOM      4  C   UNL     1       1.684   8.263  19.341  0.00  0.00    +0.000 A 
ATOM      5  N   UNL     1       2.092   7.004  19.710  0.00  0.00    +0.000 N 
ATOM      6  C   UNL     1       1.601   6.277  20.840  0.00  0.00    +0.000 C 
ENDROOT
BRANCH   1  12
ATOM      7  C   UNL     1       6.713   4.127  15.902  0.00  0.00    +0.000 C 
ATOM      8  O   UNL     1       7.857   4.509  15.836  0.00  0.00    +0.000 OA
ATOM      9  N   UNL     1       5.867   4.438  16.978  0.00  0.00    +0.000 N 
ATOM     10  C   UNL     1       6.325   5.576  17.775  0.00  0.00    +0.000 C 
ATOM     11  C   UNL     1       5.603   5.783  19.107  0.00  0.00    +0.000 C 
ATOM     12  C   UNL     1       4.098   5.473  19.157  0.00  0.00    +0.000 C 
ATOM     13  C   UNL     1       3.796   4.209  18.342  0.00  0.00    +0.000 C 
ATOM     14  C   UNL     1       4.435   4.169  16.954  0.00  0.00    +0.000 C 
BRANCH   7  15
ATOM     15  O   UNL     1       6.107   3.419  14.884  0.00  0.00    +0.000 OA
BRANCH  15  16
ATOM     16  C   UNL     1       5.994   4.170  13.656  0.00  0.00    +0.000 C 
BRANCH  16  18
ATOM     17  C   UNL     1       4.658   3.304  11.691  0.00  0.00    +0.000 C 
ATOM     18  C   UNL     1       6.016   3.333  12.373  0.00  0.00    +0.000 C 
ENDBRANCH  16  18
ENDBRANCH  15  16
ENDBRANCH   7  15
ENDBRANCH   1  12
BRANCH   4  19
ATOM     19  C   UNL     1       0.681   9.117  20.107  0.00  0.00    +0.000 C 
BRANCH  19  20
ATOM     20  N   UNL     1       1.112  10.032  21.181  0.00  0.00    +0.000 NA
ATOM     21  C   UNL     1       1.177   9.465  22.524  0.00  0.00    +0.000 C 
ATOM     22  C   UNL     1      -0.182   9.533  23.219  0.00  0.00    +0.000 C 
ATOM     23  O   UNL     1      -0.714  10.859  23.321  0.00  0.00    +0.000 OA
ATOM     24  C   UNL     1      -0.558  11.705  22.178  0.00  0.00    +0.000 C 
ATOM     25  C   UNL     1       0.665  11.420  21.283  0.00  0.00    +0.000 C 
ENDBRANCH  19  20
ENDBRANCH   4  19
TORSDOF 6
ENDMDL
MODEL 2
REMARK VINA RESULT:      -7.1      1.002      1.111
REMARK  Name = 
REMARK  8 active torsions:
REMARK  status: ('A' for Active; 'I' for Inactive)
REMARK    1  A    between atoms: C_1  and  C_2
REMARK    2  A    between atoms: C_2  and  C_3
REMARK    3  A    between atoms: C_3  and  O_4
REMARK    4  A    between atoms: O_4  and  C_5
REMARK    5  A    between atoms: C_10  and  C_11
REMARK    6  A    between atoms: C_14  and  C_15
REMARK    7  A    between atoms: C_15  and  N_16
REMARK    8  A    between atoms: N_22  and  C_23
REMARK                            x       y       z     vdW  Elec       q    Type
REMARK                         _______ _______ _______ _____ _____    ______ ____
ROOT
ATOM      1  C   UNL     1       3.518   6.354  18.624  0.00  0.00    +0.000 A 
ATOM      2  N   UNL     1       3.316   7.417  17.868  0.00  0.00    +0.000 NA
ATOM      3  N   UNL     1       2.362   8.222  18.485  0.00  0.00    +0.000 NA
ATOM      4  C   UNL     1       1.992   7.644  19.619  0.00  0.00    +0.000 A 
ATOM      5  N   UNL     1       2.544   6.386  19.617  0.00  0.00    +0.000 N 
ATOM      6  C   UNL     1       2.277   5.368  20.585  0.00  0.00    +0.000 C 
ENDROOT
BRANCH   1  12
ATOM      7  C   UNL     1       6.465   4.709  14.555  0.00  0.00    +0.000 C 
ATOM      8  O   UNL     1       7.535   5.217  14.317  0.00  0.00    +0.000 OA
ATOM      9  N   UNL     1       5.864   4.760  15.823  0.00  0.00    +0.000 N 
ATOM     10  C   UNL     1       6.408   5.805  16.689  0.00  0.00    +0.000 C 
ATOM     11  C   UNL     1       5.993   5.728  18.160  0.00  0.00    +0.000 C 
ATOM     12  C   UNL     1       4.563   5.254  18.472  0.00  0.00    +0.000 C 
ATOM     13  C   UNL     1       4.176   4.104  17.534  0.00  0.00    +0.000 C 
ATOM     14  C   UNL     1       4.486   4.345  16.056  0.00  0.00    +0.000 C 
BRANCH   7  15
ATOM     15  O   UNL     1       5.697   4.103  13.582  0.00  0.00    +0.000 OA
BRANCH  15  16
ATOM     16  C   UNL     1       6.481   3.431  12.573  0.00  0.00    +0.000 C 
BRANCH  16  18
ATOM     17  C   UNL     1       6.638   1.450  11.009  0.00  0.00    +0.000 C 
ATOM     18  C   UNL     1       5.710   2.433  11.702  0.00  0.00    +0.000 C 
ENDBRANCH  16  18
ENDBRANCH  15  16
ENDBRANCH   7  15
ENDBRANCH   1  12
BRANCH   4  19
ATOM     19  C   UNL     1       1.044   8.183  20.685  0.00  0.00    +0.000 C 
BRANCH  19  20
ATOM     20  N   UNL     1       1.339   9.429  21.416  0.00  0.00    +0.000 NA
ATOM     21  C   UNL     1       1.312   9.345  22.873  0.00  0.00    +0.000 C 
ATOM     22  C   UNL     1      -0.103   9.542  23.412  0.00  0.00    +0.000 C 
ATOM     23  O   UNL     1      -0.701  10.786  23.027  0.00  0.00    +0.000 OA
ATOM     24  C   UNL     1      -0.484  11.215  21.680  0.00  0.00    +0.000 C 
ATOM     25  C   UNL     1       0.824  10.738  21.017  0.00  0.00    +0.000 C 
ENDBRANCH  19  20
ENDBRANCH   4  19
TORSDOF 6
ENDMDL
MODEL 3
REMARK VINA RESULT:      -7.1      1.109      1.454
REMARK  Name = 
REMARK  8 active torsions:
REMARK  status: ('A' for Active; 'I' for Inactive)
REMARK    1  A    between atoms: C_1  and  C_2
REMARK    2  A    between atoms: C_2  and  C_3
REMARK    3  A    between atoms: C_3  and  O_4
REMARK    4  A    between atoms: O_4  and  C_5
REMARK    5  A    between atoms: C_10  and  C_11
REMARK    6  A    between atoms: C_14  and  C_15
REMARK    7  A    between atoms: C_15  and  N_16
REMARK    8  A    between atoms: N_22  and  C_23
REMARK                            x       y       z     vdW  Elec       q    Type
REMARK                         _______ _______ _______ _____ _____    ______ ____
ROOT
ATOM      1  C   UNL     1       3.456   5.926  19.062  0.00  0.00    +0.000 A 
ATOM      2  N   UNL     1       3.186   6.982  18.317  0.00  0.00    +0.000 NA
ATOM      3  N   UNL     1       2.300   7.799  19.015  0.00  0.00    +0.000 NA
ATOM      4  C   UNL     1       2.042   7.236  20.188  0.00  0.00    +0.000 A 
ATOM      5  N   UNL     1       2.585   5.975  20.146  0.00  0.00    +0.000 N 
ATOM      6  C   UNL     1       2.410   4.969  21.148  0.00  0.00    +0.000 C 
ENDROOT
BRANCH   1  12
ATOM      7  C   UNL     1       6.413   4.584  14.891  0.00  0.00    +0.000 C 
ATOM      8  O   UNL     1       7.498   5.085  14.710  0.00  0.00    +0.000 OA
ATOM      9  N   UNL     1       5.798   4.535  16.152  0.00  0.00    +0.000 N 
ATOM     10  C   UNL     1       6.356   5.483  17.115  0.00  0.00    +0.000 C 
ATOM     11  C   UNL     1       5.921   5.283  18.568  0.00  0.00    +0.000 C 
ATOM     12  C   UNL     1       4.477   4.818  18.822  0.00  0.00    +0.000 C 
ATOM     13  C   UNL     1       4.074   3.769  17.779  0.00  0.00    +0.000 C 
ATOM     14  C   UNL     1       4.408   4.135  16.333  0.00  0.00    +0.000 C 
BRANCH   7  15
ATOM     15  O   UNL     1       5.643   4.089  13.859  0.00  0.00    +0.000 OA
BRANCH  15  16
ATOM     16  C   UNL     1       6.422   3.651  12.725  0.00  0.00    +0.000 C 
BRANCH  16  18
ATOM     17  C   UNL     1       4.294   3.258  11.416  0.00  0.00    +0.000 C 
ATOM     18  C   UNL     1       5.686   2.740  11.737  0.00  0.00    +0.000 C 
ENDBRANCH  16  18
ENDBRANCH  15  16
ENDBRANCH   7  15
ENDBRANCH   1  12
BRANCH   4  19
ATOM     19  C   UNL     1       1.206   7.792  21.335  0.00  0.00    +0.000 C 
BRANCH  19  20
ATOM     20  N   UNL     1       0.082   8.715  21.089  0.00  0.00    +0.000 NA
ATOM     21  C   UNL     1       0.347   9.828  20.183  0.00  0.00    +0.000 C 
ATOM     22  C   UNL     1       0.960  11.013  20.927  0.00  0.00    +0.000 C 
ATOM     23  O   UNL     1       0.151  11.499  22.005  0.00  0.00    +0.000 OA
ATOM     24  C   UNL     1      -0.491  10.517  22.823  0.00  0.00    +0.000 C 
ATOM     25  C   UNL     1      -0.825   9.176  22.139  0.00  0.00    +0.000 C 
ENDBRANCH  19  20
ENDBRANCH   4  19
TORSDOF 6
ENDMDL
MODEL 4
REMARK VINA RESULT:      -7.1      1.550      1.928
REMARK  Name = 
REMARK  8 active torsions:
REMARK  status: ('A' for Active; 'I' for Inactive)
REMARK    1  A    between atoms: C_1  and  C_2
REMARK    2  A    between atoms: C_2  and  C_3
REMARK    3  A    between atoms: C_3  and  O_4
REMARK    4  A    between atoms: O_4  and  C_5
REMARK    5  A    between atoms: C_10  and  C_11
REMARK    6  A    between atoms: C_14  and  C_15
REMARK    7  A    between atoms: C_15  and  N_16
REMARK    8  A    between atoms: N_22  and  C_23
REMARK                            x       y       z     vdW  Elec       q    Type
REMARK                         _______ _______ _______ _____ _____    ______ ____
ROOT
ATOM      1  C   UNL     1       2.803   6.995  18.519  0.00  0.00    +0.000 A 
ATOM      2  N   UNL     1       2.789   7.648  17.371  0.00  0.00    +0.000 NA
ATOM      3  N   UNL     1       2.159   8.874  17.570  0.00  0.00    +0.000 NA
ATOM      4  C   UNL     1       1.799   8.962  18.842  0.00  0.00    +0.000 A 
ATOM      5  N   UNL     1       2.003   7.721  19.395  0.00  0.00    +0.000 N 
ATOM      6  C   UNL     1       1.605   7.331  20.713  0.00  0.00    +0.000 C 
ENDROOT
BRANCH   1  12
ATOM      7  C   UNL     1       6.653   4.222  16.188  0.00  0.00    +0.000 C 
ATOM      8  O   UNL     1       7.815   4.451  16.425  0.00  0.00    +0.000 OA
ATOM      9  N   UNL     1       5.613   4.571  17.065  0.00  0.00    +0.000 N 
ATOM     10  C   UNL     1       5.994   5.581  18.053  0.00  0.00    +0.000 C 
ATOM     11  C   UNL     1       5.000   5.793  19.196  0.00  0.00    +0.000 C 
ATOM     12  C   UNL     1       3.502   5.685  18.868  0.00  0.00    +0.000 C 
ATOM     13  C   UNL     1       3.262   4.531  17.886  0.00  0.00    +0.000 C 
ATOM     14  C   UNL     1       4.208   4.499  16.686  0.00  0.00    +0.000 C 
BRANCH   7  15
ATOM     15  O   UNL     1       6.233   3.672  14.994  0.00  0.00    +0.000 OA
BRANCH  15  16
ATOM     16  C   UNL     1       6.638   4.438  13.839  0.00  0.00    +0.000 C 
BRANCH  16  18
ATOM     17  C   UNL     1       5.156   3.279  12.148  0.00  0.00    +0.000 C 
ATOM     18  C   UNL     1       6.575   3.691  12.503  0.00  0.00    +0.000 C 
ENDBRANCH  16  18
ENDBRANCH  15  16
ENDBRANCH   7  15
ENDBRANCH   1  12
BRANCH   4  19
ATOM     19  C   UNL     1       1.163  10.147  19.561  0.00  0.00    +0.000 C 
BRANCH  19  20
ATOM     20  N   UNL     1      -0.290  10.209  19.802  0.00  0.00    +0.000 NA
ATOM     21  C   UNL     1      -1.135  10.366  18.623  0.00  0.00    +0.000 C 
ATOM     22  C   UNL     1      -1.288  11.838  18.245  0.00  0.00    +0.000 C 
ATOM     23  O   UNL     1      -1.832  12.650  19.292  0.00  0.00    +0.000 OA
ATOM     24  C   UNL     1      -1.356  12.396  20.617  0.00  0.00    +0.000 C 
ATOM     25  C   UNL     1      -0.892  10.954  20.907  0.00  0.00    +0.000 C 
ENDBRANCH  19  20
ENDBRANCH   4  19
TORSDOF 6
ENDMDL
MODEL 5
REMARK VINA RESULT:      -6.9      1.615      1.887
REMARK  Name = 
REMARK  8 active torsions:
REMARK  status: ('A' for Active; 'I' for Inactive)
REMARK    1  A    between atoms: C_1  and  C_2
REMARK    2  A    between atoms: C_2  and  C_3
REMARK    3  A    between atoms: C_3  and  O_4
REMARK    4  A    between atoms: O_4  and  C_5
REMARK    5  A    between atoms: C_10  and  C_11
REMARK    6  A    between atoms: C_14  and  C_15
REMARK    7  A    between atoms: C_15  and  N_16
REMARK    8  A    between atoms: N_22  and  C_23
REMARK                            x       y       z     vdW  Elec       q    Type
REMARK                         _______ _______ _______ _____ _____    ______ ____
ROOT
ATOM      1  C   UNL     1       2.917   6.969  18.552  0.00  0.00    +0.000 A 
ATOM      2  N   UNL     1       2.920   7.640  17.415  0.00  0.00    +0.000 NA
ATOM      3  N   UNL     1       2.207   8.822  17.599  0.00  0.00    +0.000 NA
ATOM      4  C   UNL     1       1.780   8.866  18.854  0.00  0.00    +0.000 A 
ATOM      5  N   UNL     1       2.032   7.630  19.398  0.00  0.00    +0.000 N 
ATOM      6  C   UNL     1       1.595   7.193  20.688  0.00  0.00    +0.000 C 
ENDROOT
BRANCH   1  12
ATOM      7  C   UNL     1       6.671   4.174  16.093  0.00  0.00    +0.000 C 
ATOM      8  O   UNL     1       7.839   4.444  16.233  0.00  0.00    +0.000 OA
ATOM      9  N   UNL     1       5.687   4.543  17.025  0.00  0.00    +0.000 N 
ATOM     10  C   UNL     1       6.107   5.613  17.928  0.00  0.00    +0.000 C 
ATOM     11  C   UNL     1       5.192   5.862  19.129  0.00  0.00    +0.000 C 
ATOM     12  C   UNL     1       3.678   5.698  18.917  0.00  0.00    +0.000 C 
ATOM     13  C   UNL     1       3.403   4.487  18.016  0.00  0.00    +0.000 C 
ATOM     14  C   UNL     1       4.261   4.414  16.753  0.00  0.00    +0.000 C 
BRANCH   7  15
ATOM     15  O   UNL     1       6.183   3.550  14.963  0.00  0.00    +0.000 OA
BRANCH  15  16
ATOM     16  C   UNL     1       6.408   4.304  13.753  0.00  0.00    +0.000 C 
BRANCH  16  18
ATOM     17  C   UNL     1       4.981   3.300  11.922  0.00  0.00    +0.000 C 
ATOM     18  C   UNL     1       6.391   3.484  12.458  0.00  0.00    +0.000 C 
ENDBRANCH  16  18
ENDBRANCH  15  16
ENDBRANCH   7  15
ENDBRANCH   1  12
BRANCH   4  19
ATOM     19  C   UNL     1       1.039   9.997  19.557  0.00  0.00    +0.000 C 
BRANCH  19  20
ATOM     20  N   UNL     1       0.698  11.247  18.852  0.00  0.00    +0.000 NA
ATOM     21  C   UNL     1       1.527  12.408  19.158  0.00  0.00    +0.000 C 
ATOM     22  C   UNL     1       1.013  13.143  20.394  0.00  0.00    +0.000 C 
ATOM     23  O   UNL     1      -0.345  13.584  20.282  0.00  0.00    +0.000 OA
ATOM     24  C   UNL     1      -1.268  12.678  19.671  0.00  0.00    +0.000 C 
ATOM     25  C   UNL     1      -0.675  11.700  18.636  0.00  0.00    +0.000 C 
ENDBRANCH  19  20
ENDBRANCH   4  19
TORSDOF 6
ENDMDL
MODEL 6
REMARK VINA RESULT:      -6.9      0.773      1.263
REMARK  Name = 
REMARK  8 active torsions:
REMARK  status: ('A' for Active; 'I' for Inactive)
REMARK    1  A    between atoms: C_1  and  C_2
REMARK    2  A    between atoms: C_2  and  C_3
REMARK    3  A    between atoms: C_3  and  O_4
REMARK    4  A    between atoms: O_4  and  C_5
REMARK    5  A    between atoms: C_10  and  C_11
REMARK    6  A    between atoms: C_14  and  C_15
REMARK    7  A    between atoms: C_15  and  N_16
REMARK    8  A    between atoms: N_22  and  C_23
REMARK                            x       y       z     vdW  Elec       q    Type
REMARK                         _______ _______ _______ _____ _____    ______ ____
ROOT
ATOM      1  C   UNL     1       2.739   6.630  18.732  0.00  0.00    +0.000 A 
ATOM      2  N   UNL     1       2.572   7.302  17.608  0.00  0.00    +0.000 NA
ATOM      3  N   UNL     1       1.996   8.533  17.912  0.00  0.00    +0.000 NA
ATOM      4  C   UNL     1       1.823   8.605  19.224  0.00  0.00    +0.000 A 
ATOM      5  N   UNL     1       2.084   7.353  19.725  0.00  0.00    +0.000 N 
ATOM      6  C   UNL     1       1.873   6.946  21.080  0.00  0.00    +0.000 C 
ENDROOT
BRANCH   1  12
ATOM      7  C   UNL     1       6.733   4.219  16.245  0.00  0.00    +0.000 C 
ATOM      8  O   UNL     1       7.881   4.446  16.547  0.00  0.00    +0.000 OA
ATOM      9  N   UNL     1       5.657   4.446  17.119  0.00  0.00    +0.000 N 
ATOM     10  C   UNL     1       5.979   5.348  18.225  0.00  0.00    +0.000 C 
ATOM     11  C   UNL     1       4.944   5.410  19.350  0.00  0.00    +0.000 C 
ATOM     12  C   UNL     1       3.460   5.305  18.959  0.00  0.00    +0.000 C 
ATOM     13  C   UNL     1       3.283   4.262  17.849  0.00  0.00    +0.000 C 
ATOM     14  C   UNL     1       4.267   4.385  16.686  0.00  0.00    +0.000 C 
BRANCH   7  15
ATOM     15  O   UNL     1       6.366   3.796  14.984  0.00  0.00    +0.000 OA
BRANCH  15  16
ATOM     16  C   UNL     1       6.775   4.701  13.937  0.00  0.00    +0.000 C 
BRANCH  16  18
ATOM     17  C   UNL     1       5.647   3.236  12.212  0.00  0.00    +0.000 C 
ATOM     18  C   UNL     1       6.864   4.085  12.537  0.00  0.00    +0.000 C 
ENDBRANCH  16  18
ENDBRANCH  15  16
ENDBRANCH   7  15
ENDBRANCH   1  12
BRANCH   4  19
ATOM     19  C   UNL     1       1.315   9.787  20.043  0.00  0.00    +0.000 C 
BRANCH  19  20
ATOM     20  N   UNL     1      -0.045   9.798  20.613  0.00  0.00    +0.000 NA
ATOM     21  C   UNL     1      -0.728  11.088  20.629  0.00  0.00    +0.000 C 
ATOM     22  C   UNL     1      -0.362  11.891  21.875  0.00  0.00    +0.000 C 
ATOM     23  O   UNL     1      -0.656  11.218  23.105  0.00  0.00    +0.000 OA
ATOM     24  C   UNL     1      -0.360   9.819  23.159  0.00  0.00    +0.000 C 
ATOM     25  C   UNL     1      -0.419   9.060  21.818  0.00  0.00    +0.000 C 
ENDBRANCH  19  20
ENDBRANCH   4  19
TORSDOF 6
ENDMDL
MODEL 7
REMARK VINA RESULT:      -6.7      1.014      1.105
REMARK  Name = 
REMARK  8 active torsions:
REMARK  status: ('A' for Active; 'I' for Inactive)
REMARK    1  A    between atoms: C_1  and  C_2
REMARK    2  A    between atoms: C_2  and  C_3
REMARK    3  A    between atoms: C_3  and  O_4
REMARK    4  A    between atoms: O_4  and  C_5
REMARK    5  A    between atoms: C_10  and  C_11
REMARK    6  A    between atoms: C_14  and  C_15
REMARK    7  A    between atoms: C_15  and  N_16
REMARK    8  A    between atoms: N_22  and  C_23
REMARK                            x       y       z     vdW  Elec       q    Type
REMARK                         _______ _______ _______ _____ _____    ______ ____
ROOT
ATOM      1  C   UNL     1       2.844   5.682  18.945  0.00  0.00    +0.000 A 
ATOM      2  N   UNL     1       2.948   6.865  18.368  0.00  0.00    +0.000 NA
ATOM      3  N   UNL     1       2.257   7.795  19.140  0.00  0.00    +0.000 NA
ATOM      4  C   UNL     1       1.740   7.171  20.190  0.00  0.00    +0.000 A 
ATOM      5  N   UNL     1       1.918   5.826  19.974  0.00  0.00    +0.000 N 
ATOM      6  C   UNL     1       1.376   4.782  20.788  0.00  0.00    +0.000 C 
ENDROOT
BRANCH   1  12
ATOM      7  C   UNL     1       6.896   4.508  15.760  0.00  0.00    +0.000 C 
ATOM      8  O   UNL     1       8.035   4.547  16.162  0.00  0.00    +0.000 OA
ATOM      9  N   UNL     1       5.792   4.355  16.614  0.00  0.00    +0.000 N 
ATOM     10  C   UNL     1       6.084   4.668  18.013  0.00  0.00    +0.000 C 
ATOM     11  C   UNL     1       5.010   4.255  19.021  0.00  0.00    +0.000 C 
ATOM     12  C   UNL     1       3.540   4.374  18.583  0.00  0.00    +0.000 C 
ATOM     13  C   UNL     1       3.391   3.933  17.122  0.00  0.00    +0.000 C 
ATOM     14  C   UNL     1       4.418   4.529  16.160  0.00  0.00    +0.000 C 
BRANCH   7  15
ATOM     15  O   UNL     1       6.571   4.694  14.432  0.00  0.00    +0.000 OA
BRANCH  15  16
ATOM     16  C   UNL     1       6.261   3.463  13.744  0.00  0.00    +0.000 C 
BRANCH  16  18
ATOM     17  C   UNL     1       4.795   3.187  11.701  0.00  0.00    +0.000 C 
ATOM     18  C   UNL     1       6.171   3.571  12.218  0.00  0.00    +0.000 C 
ENDBRANCH  16  18
ENDBRANCH  15  16
ENDBRANCH   7  15
ENDBRANCH   1  12
BRANCH   4  19
ATOM     19  C   UNL     1       0.980   7.776  21.365  0.00  0.00    +0.000 C 
BRANCH  19  20
ATOM     20  N   UNL     1       1.159   9.189  21.749  0.00  0.00    +0.000 NA
ATOM     21  C   UNL     1       0.729   9.551  23.096  0.00  0.00    +0.000 C 
ATOM     22  C   UNL     1      -0.760   9.887  23.129  0.00  0.00    +0.000 C 
ATOM     23  O   UNL     1      -1.134  10.948  22.243  0.00  0.00    +0.000 OA
ATOM     24  C   UNL     1      -0.527  10.950  20.948  0.00  0.00    +0.000 C 
ATOM     25  C   UNL     1       0.873  10.308  20.853  0.00  0.00    +0.000 C 
ENDBRANCH  19  20
ENDBRANCH   4  19
TORSDOF 6
ENDMDL
MODEL 8
REMARK VINA RESULT:      -6.6      1.222      1.666
REMARK  Name = 
REMARK  8 active torsions:
REMARK  status: ('A' for Active; 'I' for Inactive)
REMARK    1  A    between atoms: C_1  and  C_2
REMARK    2  A    between atoms: C_2  and  C_3
REMARK    3  A    between atoms: C_3  and  O_4
REMARK    4  A    between atoms: O_4  and  C_5
REMARK    5  A    between atoms: C_10  and  C_11
REMARK    6  A    between atoms: C_14  and  C_15
REMARK    7  A    between atoms: C_15  and  N_16
REMARK    8  A    between atoms: N_22  and  C_23
REMARK                            x       y       z     vdW  Elec       q    Type
REMARK                         _______ _______ _______ _____ _____    ______ ____
ROOT
ATOM      1  C   UNL     1       2.756   5.919  18.824  0.00  0.00    +0.000 A 
ATOM      2  N   UNL     1       2.780   7.038  18.123  0.00  0.00    +0.000 NA
ATOM      3  N   UNL     1       2.254   8.061  18.909  0.00  0.00    +0.000 NA
ATOM      4  C   UNL     1       1.919   7.557  20.089  0.00  0.00    +0.000 A 
ATOM      5  N   UNL     1       2.029   6.192  19.979  0.00  0.00    +0.000 N 
ATOM      6  C   UNL     1       1.619   5.250  20.974  0.00  0.00    +0.000 C 
ENDROOT
BRANCH   1  12
ATOM      7  C   UNL     1       7.246   4.436  16.462  0.00  0.00    +0.000 C 
ATOM      8  O   UNL     1       8.261   4.280  17.098  0.00  0.00    +0.000 OA
ATOM      9  N   UNL     1       5.968   4.374  17.040  0.00  0.00    +0.000 N 
ATOM     10  C   UNL     1       5.974   4.530  18.494  0.00  0.00    +0.000 C 
ATOM     11  C   UNL     1       4.659   4.196  19.201  0.00  0.00    +0.000 C 
ATOM     12  C   UNL     1       3.351   4.558  18.477  0.00  0.00    +0.000 C 
ATOM     13  C   UNL     1       3.481   4.260  16.979  0.00  0.00    +0.000 C 
ATOM     14  C   UNL     1       4.763   4.778  16.327  0.00  0.00    +0.000 C 
BRANCH   7  15
ATOM     15  O   UNL     1       7.253   4.771  15.123  0.00  0.00    +0.000 OA
BRANCH  15  16
ATOM     16  C   UNL     1       6.491   3.860  14.303  0.00  0.00    +0.000 C 
BRANCH  16  18
ATOM     17  C   UNL     1       7.654   5.137  12.456  0.00  0.00    +0.000 C 
ATOM     18  C   UNL     1       6.734   3.976  12.795  0.00  0.00    +0.000 C 
ENDBRANCH  16  18
ENDBRANCH  15  16
ENDBRANCH   7  15
ENDBRANCH   1  12
BRANCH   4  19
ATOM     19  C   UNL     1       1.392   8.297  21.312  0.00  0.00    +0.000 C 
BRANCH  19  20
ATOM     20  N   UNL     1       0.008   8.806  21.365  0.00  0.00    +0.000 NA
ATOM     21  C   UNL     1      -0.357   9.788  20.349  0.00  0.00    +0.000 C 
ATOM     22  C   UNL     1       0.019  11.202  20.786  0.00  0.00    +0.000 C 
ATOM     23  O   UNL     1      -0.577  11.602  22.026  0.00  0.00    +0.000 OA
ATOM     24  C   UNL     1      -0.619  10.621  23.066  0.00  0.00    +0.000 C 
ATOM     25  C   UNL     1      -0.676   9.149  22.610  0.00  0.00    +0.000 C 
ENDBRANCH  19  20
ENDBRANCH   4  19
TORSDOF 6
ENDMDL
MODEL 9
REMARK VINA RESULT:      -6.5      1.293      1.512
REMARK  Name = 
REMARK  8 active torsions:
REMARK  status: ('A' for Active; 'I' for Inactive)
REMARK    1  A    between atoms: C_1  and  C_2
REMARK    2  A    between atoms: C_2  and  C_3
REMARK    3  A    between atoms: C_3  and  O_4
REMARK    4  A    between atoms: O_4  and  C_5
REMARK    5  A    between atoms: C_10  and  C_11
REMARK    6  A    between atoms: C_14  and  C_15
REMARK    7  A    between atoms: C_15  and  N_16
REMARK    8  A    between atoms: N_22  and  C_23
REMARK                            x       y       z     vdW  Elec       q    Type
REMARK                         _______ _______ _______ _____ _____    ______ ____
ROOT
ATOM      1  C   UNL     1       3.300   7.222  18.227  0.00  0.00    +0.000 A 
ATOM      2  N   UNL     1       3.150   7.985  17.160  0.00  0.00    +0.000 NA
ATOM      3  N   UNL     1       2.150   8.919  17.423  0.00  0.00    +0.000 NA
ATOM      4  C   UNL     1       1.702   8.721  18.655  0.00  0.00    +0.000 A 
ATOM      5  N   UNL     1       2.257   7.542  19.091  0.00  0.00    +0.000 N 
ATOM      6  C   UNL     1       1.924   6.876  20.312  0.00  0.00    +0.000 C 
ENDROOT
BRANCH   1  12
ATOM      7  C   UNL     1       6.652   4.566  15.119  0.00  0.00    +0.000 C 
ATOM      8  O   UNL     1       7.739   5.017  14.849  0.00  0.00    +0.000 OA
ATOM      9  N   UNL     1       5.923   4.962  16.253  0.00  0.00    +0.000 N 
ATOM     10  C   UNL     1       6.375   6.229  16.827  0.00  0.00    +0.000 C 
ATOM     11  C   UNL     1       5.811   6.567  18.208  0.00  0.00    +0.000 C 
ATOM     12  C   UNL     1       4.358   6.158  18.504  0.00  0.00    +0.000 C 
ATOM     13  C   UNL     1       4.071   4.775  17.907  0.00  0.00    +0.000 C 
ATOM     14  C   UNL     1       4.530   4.589  16.461  0.00  0.00    +0.000 C 
BRANCH   7  15
ATOM     15  O   UNL     1       5.988   3.682  14.293  0.00  0.00    +0.000 OA
BRANCH  15  16
ATOM     16  C   UNL     1       6.402   3.769  12.913  0.00  0.00    +0.000 C 
BRANCH  16  18
ATOM     17  C   UNL     1       5.909   1.816  11.384  0.00  0.00    +0.000 C 
ATOM     18  C   UNL     1       5.429   3.163  11.898  0.00  0.00    +0.000 C 
ENDBRANCH  16  18
ENDBRANCH  15  16
ENDBRANCH   7  15
ENDBRANCH   1  12
BRANCH   4  19
ATOM     19  C   UNL     1       0.678   9.544  19.428  0.00  0.00    +0.000 C 
BRANCH  19  20
ATOM     20  N   UNL     1       1.066  10.767  20.154  0.00  0.00    +0.000 NA
ATOM     21  C   UNL     1       0.440  10.971  21.457  0.00  0.00    +0.000 C 
ATOM     22  C   UNL     1      -0.914  11.665  21.317  0.00  0.00    +0.000 C 
ATOM     23  O   UNL     1      -0.848  12.932  20.652  0.00  0.00    +0.000 OA
ATOM     24  C   UNL     1       0.014  13.018  19.514  0.00  0.00    +0.000 C 
ATOM     25  C   UNL     1       1.229  12.069  19.509  0.00  0.00    +0.000 C 
ENDBRANCH  19  20
ENDBRANCH   4  19
TORSDOF 6
ENDMDL
