MODEL 1
REMARK VINA RESULT:      -6.1      0.000      0.000
REMARK  Name = 
REMARK  3 active torsions:
REMARK  status: ('A' for Active; 'I' for Inactive)
REMARK    1  A    between atoms: N_1  and  C_2
REMARK    2  A    between atoms: C_2  and  C_3
REMARK    3  A    between atoms: C_3  and  O_4
REMARK                            x       y       z     vdW  Elec       q    Type
REMARK                         _______ _______ _______ _____ _____    ______ ____
ROOT
ATOM      1  C   UNL     1       5.823   4.707  17.248  0.00  0.00    +0.000 C 
ATOM      2  C   UNL     1       5.761   6.239  17.474  0.00  0.00    +0.000 C 
ATOM      3  C   UNL     1       4.288   6.659  17.604  0.00  0.00    +0.000 C 
ATOM      4  C   UNL     1       3.554   5.360  17.673  0.00  0.00    +0.000 A 
ATOM      5  C   UNL     1       2.192   5.182  17.855  0.00  0.00    +0.000 A 
ATOM      6  C   UNL     1       1.684   3.881  17.858  0.00  0.00    +0.000 A 
ATOM      7  C   UNL     1       2.538   2.783  17.690  0.00  0.00    +0.000 A 
ATOM      8  C   UNL     1       3.908   2.974  17.512  0.00  0.00    +0.000 A 
ATOM      9  C   UNL     1       4.407   4.271  17.493  0.00  0.00    +0.000 A 
ENDROOT
BRANCH   1  10
ATOM     10  O   UNL     1       6.682   4.113  18.224  0.00  0.00    +0.000 OA
ATOM     11  H   UNL     1       6.927   3.248  17.851  0.00  0.00    +0.000 HD
ENDBRANCH   1  10
BRANCH   1  12
ATOM     12  C   UNL     1       6.311   4.308  15.833  0.00  0.00    +0.000 C 
BRANCH  12  13
ATOM     13  N   UNL     1       7.313   5.241  15.282  0.00  0.00    +0.000 NA
ATOM     14  H   UNL     1       8.201   5.067  15.756  0.00  0.00    +0.000 HD
ATOM     15  H   UNL     1       7.051   6.188  15.561  0.00  0.00    +0.000 HD
ENDBRANCH  12  13
ENDBRANCH   1  12
TORSDOF 3
ENDMDL
MODEL 2
REMARK VINA RESULT:      -5.9      2.208      3.072
REMARK  Name = 
REMARK  3 active torsions:
REMARK  status: ('A' for Active; 'I' for Inactive)
REMARK    1  A    between atoms: N_1  and  C_2
REMARK    2  A    between atoms: C_2  and  C_3
REMARK    3  A    between atoms: C_3  and  O_4
REMARK                            x       y       z     vdW  Elec       q    Type
REMARK                         _______ _______ _______ _____ _____    ______ ____
ROOT
ATOM      1  C   UNL     1       4.082   5.263  18.283  0.00  0.00    +0.000 C 
ATOM      2  C   UNL     1       4.167   4.483  16.948  0.00  0.00    +0.000 C 
ATOM      3  C   UNL     1       3.179   3.306  17.002  0.00  0.00    +0.000 C 
ATOM      4  C   UNL     1       2.398   3.555  18.250  0.00  0.00    +0.000 A 
ATOM      5  C   UNL     1       1.332   2.810  18.729  0.00  0.00    +0.000 A 
ATOM      6  C   UNL     1       0.748   3.183  19.941  0.00  0.00    +0.000 A 
ATOM      7  C   UNL     1       1.227   4.293  20.649  0.00  0.00    +0.000 A 
ATOM      8  C   UNL     1       2.298   5.039  20.157  0.00  0.00    +0.000 A 
ATOM      9  C   UNL     1       2.886   4.654  18.957  0.00  0.00    +0.000 A 
ENDROOT
BRANCH   1  10
ATOM     10  O   UNL     1       3.828   6.645  18.016  0.00  0.00    +0.000 OA
ATOM     11  H   UNL     1       3.749   7.061  18.892  0.00  0.00    +0.000 HD
ENDBRANCH   1  10
BRANCH   1  12
ATOM     12  C   UNL     1       5.357   5.143  19.155  0.00  0.00    +0.000 C 
BRANCH  12  13
ATOM     13  N   UNL     1       6.285   4.097  18.681  0.00  0.00    +0.000 NA
ATOM     14  H   UNL     1       7.096   4.090  19.301  0.00  0.00    +0.000 HD
ATOM     15  H   UNL     1       6.651   4.388  17.774  0.00  0.00    +0.000 HD
ENDBRANCH  12  13
ENDBRANCH   1  12
TORSDOF 3
ENDMDL
MODEL 3
REMARK VINA RESULT:      -5.9      3.122      4.361
REMARK  Name = 
REMARK  3 active torsions:
REMARK  status: ('A' for Active; 'I' for Inactive)
REMARK    1  A    between atoms: N_1  and  C_2
REMARK    2  A    between atoms: C_2  and  C_3
REMARK    3  A    between atoms: C_3  and  O_4
REMARK                            x       y       z     vdW  Elec       q    Type
REMARK                         _______ _______ _______ _____ _____    ______ ____
ROOT
ATOM      1  C   UNL     1       2.329   2.594  19.019  0.00  0.00    +0.000 C 
ATOM      2  C   UNL     1       1.754   2.293  20.426  0.00  0.00    +0.000 C 
ATOM      3  C   UNL     1       1.700   3.604  21.226  0.00  0.00    +0.000 C 
ATOM      4  C   UNL     1       2.025   4.652  20.213  0.00  0.00    +0.000 A 
ATOM      5  C   UNL     1       2.049   6.023  20.410  0.00  0.00    +0.000 A 
ATOM      6  C   UNL     1       2.413   6.846  19.342  0.00  0.00    +0.000 A 
ATOM      7  C   UNL     1       2.737   6.291  18.097  0.00  0.00    +0.000 A 
ATOM      8  C   UNL     1       2.706   4.910  17.907  0.00  0.00    +0.000 A 
ATOM      9  C   UNL     1       2.359   4.095  18.979  0.00  0.00    +0.000 A 
ENDROOT
BRANCH   1  10
ATOM     10  O   UNL     1       1.430   2.106  18.020  0.00  0.00    +0.000 OA
ATOM     11  H   UNL     1       0.772   2.814  17.905  0.00  0.00    +0.000 HD
ENDBRANCH   1  10
BRANCH   1  12
ATOM     12  C   UNL     1       3.732   1.983  18.778  0.00  0.00    +0.000 C 
BRANCH  12  13
ATOM     13  N   UNL     1       4.745   2.466  19.737  0.00  0.00    +0.000 NA
ATOM     14  H   UNL     1       4.587   1.992  20.628  0.00  0.00    +0.000 HD
ATOM     15  H   UNL     1       4.555   3.451  19.928  0.00  0.00    +0.000 HD
ENDBRANCH  12  13
ENDBRANCH   1  12
TORSDOF 3
ENDMDL
MODEL 4
REMARK VINA RESULT:      -5.8      1.765      2.057
REMARK  Name = 
REMARK  3 active torsions:
REMARK  status: ('A' for Active; 'I' for Inactive)
REMARK    1  A    between atoms: N_1  and  C_2
REMARK    2  A    between atoms: C_2  and  C_3
REMARK    3  A    between atoms: C_3  and  O_4
REMARK                            x       y       z     vdW  Elec       q    Type
REMARK                         _______ _______ _______ _____ _____    ______ ____
ROOT
ATOM      1  C   UNL     1       4.590   4.167  18.295  0.00  0.00    +0.000 C 
ATOM      2  C   UNL     1       4.615   5.614  18.847  0.00  0.00    +0.000 C 
ATOM      3  C   UNL     1       3.254   5.918  19.494  0.00  0.00    +0.000 C 
ATOM      4  C   UNL     1       2.562   4.595  19.502  0.00  0.00    +0.000 A 
ATOM      5  C   UNL     1       1.316   4.310  20.039  0.00  0.00    +0.000 A 
ATOM      6  C   UNL     1       0.819   3.011  19.918  0.00  0.00    +0.000 A 
ATOM      7  C   UNL     1       1.571   2.018  19.275  0.00  0.00    +0.000 A 
ATOM      8  C   UNL     1       2.826   2.315  18.742  0.00  0.00    +0.000 A 
ATOM      9  C   UNL     1       3.309   3.614  18.852  0.00  0.00    +0.000 A 
ENDROOT
BRANCH   1  10
ATOM     10  O   UNL     1       5.697   3.433  18.822  0.00  0.00    +0.000 OA
ATOM     11  H   UNL     1       6.058   3.994  19.531  0.00  0.00    +0.000 HD
ENDBRANCH   1  10
BRANCH   1  12
ATOM     12  C   UNL     1       4.624   4.093  16.748  0.00  0.00    +0.000 C 
BRANCH  12  13
ATOM     13  N   UNL     1       5.875   3.510  16.224  0.00  0.00    +0.000 NA
ATOM     14  H   UNL     1       5.751   3.342  15.225  0.00  0.00    +0.000 HD
ATOM     15  H   UNL     1       5.985   2.581  16.633  0.00  0.00    +0.000 HD
ENDBRANCH  12  13
ENDBRANCH   1  12
TORSDOF 3
ENDMDL
MODEL 5
REMARK VINA RESULT:      -5.7      2.757      4.080
REMARK  Name = 
REMARK  3 active torsions:
REMARK  status: ('A' for Active; 'I' for Inactive)
REMARK    1  A    between atoms: N_1  and  C_2
REMARK    2  A    between atoms: C_2  and  C_3
REMARK    3  A    between atoms: C_3  and  O_4
REMARK                            x       y       z     vdW  Elec       q    Type
REMARK                         _______ _______ _______ _____ _____    ______ ____
ROOT
ATOM      1  C   UNL     1       2.519   2.683  18.672  0.00  0.00    +0.000 C 
ATOM      2  C   UNL     1       1.376   2.874  19.700  0.00  0.00    +0.000 C 
ATOM      3  C   UNL     1       1.296   4.361  20.078  0.00  0.00    +0.000 C 
ATOM      4  C   UNL     1       2.225   5.023  19.115  0.00  0.00    +0.000 A 
ATOM      5  C   UNL     1       2.470   6.381  18.992  0.00  0.00    +0.000 A 
ATOM      6  C   UNL     1       3.406   6.808  18.048  0.00  0.00    +0.000 A 
ATOM      7  C   UNL     1       4.073   5.880  17.237  0.00  0.00    +0.000 A 
ATOM      8  C   UNL     1       3.816   4.515  17.366  0.00  0.00    +0.000 A 
ATOM      9  C   UNL     1       2.895   4.094  18.318  0.00  0.00    +0.000 A 
ENDROOT
BRANCH   1  10
ATOM     10  O   UNL     1       2.015   2.017  17.512  0.00  0.00    +0.000 OA
ATOM     11  H   UNL     1       2.796   1.618  17.091  0.00  0.00    +0.000 HD
ENDBRANCH   1  10
BRANCH   1  12
ATOM     12  C   UNL     1       3.727   1.888  19.228  0.00  0.00    +0.000 C 
BRANCH  12  13
ATOM     13  N   UNL     1       4.103   0.740  18.380  0.00  0.00    +0.000 NA
ATOM     14  H   UNL     1       3.752  -0.109  18.826  0.00  0.00    +0.000 HD
ATOM     15  H   UNL     1       5.119   0.648  18.406  0.00  0.00    +0.000 HD
ENDBRANCH  12  13
ENDBRANCH   1  12
TORSDOF 3
ENDMDL
MODEL 6
REMARK VINA RESULT:      -5.7      2.495      3.911
REMARK  Name = 
REMARK  3 active torsions:
REMARK  status: ('A' for Active; 'I' for Inactive)
REMARK    1  A    between atoms: N_1  and  C_2
REMARK    2  A    between atoms: C_2  and  C_3
REMARK    3  A    between atoms: C_3  and  O_4
REMARK                            x       y       z     vdW  Elec       q    Type
REMARK                         _______ _______ _______ _____ _____    ______ ____
ROOT
ATOM      1  C   UNL     1       3.425   2.533  18.838  0.00  0.00    +0.000 C 
ATOM      2  C   UNL     1       1.888   2.374  18.727  0.00  0.00    +0.000 C 
ATOM      3  C   UNL     1       1.265   3.760  18.493  0.00  0.00    +0.000 C 
ATOM      4  C   UNL     1       2.445   4.644  18.255  0.00  0.00    +0.000 A 
ATOM      5  C   UNL     1       2.425   5.991  17.933  0.00  0.00    +0.000 A 
ATOM      6  C   UNL     1       3.642   6.660  17.781  0.00  0.00    +0.000 A 
ATOM      7  C   UNL     1       4.854   5.976  17.942  0.00  0.00    +0.000 A 
ATOM      8  C   UNL     1       4.863   4.618  18.262  0.00  0.00    +0.000 A 
ATOM      9  C   UNL     1       3.649   3.961  18.428  0.00  0.00    +0.000 A 
ENDROOT
BRANCH   1  10
ATOM     10  O   UNL     1       4.066   1.662  17.903  0.00  0.00    +0.000 OA
ATOM     11  H   UNL     1       4.444   2.251  17.227  0.00  0.00    +0.000 HD
ENDBRANCH   1  10
BRANCH   1  12
ATOM     12  C   UNL     1       3.978   2.248  20.257  0.00  0.00    +0.000 C 
BRANCH  12  13
ATOM     13  N   UNL     1       5.250   1.501  20.243  0.00  0.00    +0.000 NA
ATOM     14  H   UNL     1       5.611   1.474  21.198  0.00  0.00    +0.000 HD
ATOM     15  H   UNL     1       5.934   2.052  19.721  0.00  0.00    +0.000 HD
ENDBRANCH  12  13
ENDBRANCH   1  12
TORSDOF 3
ENDMDL
MODEL 7
REMARK VINA RESULT:      -5.7      2.470      3.742
REMARK  Name = 
REMARK  3 active torsions:
REMARK  status: ('A' for Active; 'I' for Inactive)
REMARK    1  A    between atoms: N_1  and  C_2
REMARK    2  A    between atoms: C_2  and  C_3
REMARK    3  A    between atoms: C_3  and  O_4
REMARK                            x       y       z     vdW  Elec       q    Type
REMARK                         _______ _______ _______ _____ _____    ______ ____
ROOT
ATOM      1  C   UNL     1       2.942   3.242  18.161  0.00  0.00    +0.000 C 
ATOM      2  C   UNL     1       1.971   4.110  19.001  0.00  0.00    +0.000 C 
ATOM      3  C   UNL     1       2.399   5.581  18.884  0.00  0.00    +0.000 C 
ATOM      4  C   UNL     1       3.449   5.563  17.823  0.00  0.00    +0.000 A 
ATOM      5  C   UNL     1       4.119   6.654  17.294  0.00  0.00    +0.000 A 
ATOM      6  C   UNL     1       5.100   6.431  16.326  0.00  0.00    +0.000 A 
ATOM      7  C   UNL     1       5.389   5.130  15.894  0.00  0.00    +0.000 A 
ATOM      8  C   UNL     1       4.706   4.038  16.429  0.00  0.00    +0.000 A 
ATOM      9  C   UNL     1       3.742   4.265  17.405  0.00  0.00    +0.000 A 
ENDROOT
BRANCH   1  10
ATOM     10  O   UNL     1       2.196   2.442  17.240  0.00  0.00    +0.000 OA
ATOM     11  H   UNL     1       1.845   3.071  16.586  0.00  0.00    +0.000 HD
ENDBRANCH   1  10
BRANCH   1  12
ATOM     12  C   UNL     1       3.847   2.320  19.015  0.00  0.00    +0.000 C 
BRANCH  12  13
ATOM     13  N   UNL     1       4.081   1.002  18.393  0.00  0.00    +0.000 NA
ATOM     14  H   UNL     1       3.783   1.056  17.418  0.00  0.00    +0.000 HD
ATOM     15  H   UNL     1       3.443   0.332  18.825  0.00  0.00    +0.000 HD
ENDBRANCH  12  13
ENDBRANCH   1  12
TORSDOF 3
ENDMDL
MODEL 8
REMARK VINA RESULT:      -5.7      2.525      3.187
REMARK  Name = 
REMARK  3 active torsions:
REMARK  status: ('A' for Active; 'I' for Inactive)
REMARK    1  A    between atoms: N_1  and  C_2
REMARK    2  A    between atoms: C_2  and  C_3
REMARK    3  A    between atoms: C_3  and  O_4
REMARK                            x       y       z     vdW  Elec       q    Type
REMARK                         _______ _______ _______ _____ _____    ______ ____
ROOT
ATOM      1  C   UNL     1       4.277   3.348  18.407  0.00  0.00    +0.000 C 
ATOM      2  C   UNL     1       4.954   4.079  17.220  0.00  0.00    +0.000 C 
ATOM      3  C   UNL     1       4.348   5.486  17.099  0.00  0.00    +0.000 C 
ATOM      4  C   UNL     1       3.512   5.620  18.329  0.00  0.00    +0.000 A 
ATOM      5  C   UNL     1       2.796   6.736  18.732  0.00  0.00    +0.000 A 
ATOM      6  C   UNL     1       2.040   6.656  19.904  0.00  0.00    +0.000 A 
ATOM      7  C   UNL     1       2.018   5.475  20.657  0.00  0.00    +0.000 A 
ATOM      8  C   UNL     1       2.746   4.359  20.245  0.00  0.00    +0.000 A 
ATOM      9  C   UNL     1       3.484   4.438  19.069  0.00  0.00    +0.000 A 
ENDROOT
BRANCH   1  10
ATOM     10  O   UNL     1       5.277   2.869  19.309  0.00  0.00    +0.000 OA
ATOM     11  H   UNL     1       6.125   3.106  18.895  0.00  0.00    +0.000 HD
ENDBRANCH   1  10
BRANCH   1  12
ATOM     12  C   UNL     1       3.377   2.163  17.974  0.00  0.00    +0.000 C 
BRANCH  12  13
ATOM     13  N   UNL     1       3.921   0.849  18.369  0.00  0.00    +0.000 NA
ATOM     14  H   UNL     1       3.662   0.172  17.650  0.00  0.00    +0.000 HD
ATOM     15  H   UNL     1       3.426   0.542  19.207  0.00  0.00    +0.000 HD
ENDBRANCH  12  13
ENDBRANCH   1  12
TORSDOF 3
ENDMDL
MODEL 9
REMARK VINA RESULT:      -5.7      3.203      4.534
REMARK  Name = 
REMARK  3 active torsions:
REMARK  status: ('A' for Active; 'I' for Inactive)
REMARK    1  A    between atoms: N_1  and  C_2
REMARK    2  A    between atoms: C_2  and  C_3
REMARK    3  A    between atoms: C_3  and  O_4
REMARK                            x       y       z     vdW  Elec       q    Type
REMARK                         _______ _______ _______ _____ _____    ______ ____
ROOT
ATOM      1  C   UNL     1       2.463   2.644  19.068  0.00  0.00    +0.000 C 
ATOM      2  C   UNL     1       1.233   3.123  18.257  0.00  0.00    +0.000 C 
ATOM      3  C   UNL     1       1.534   4.518  17.686  0.00  0.00    +0.000 C 
ATOM      4  C   UNL     1       2.983   4.718  17.983  0.00  0.00    +0.000 A 
ATOM      5  C   UNL     1       3.766   5.802  17.618  0.00  0.00    +0.000 A 
ATOM      6  C   UNL     1       5.104   5.824  18.020  0.00  0.00    +0.000 A 
ATOM      7  C   UNL     1       5.639   4.767  18.768  0.00  0.00    +0.000 A 
ATOM      8  C   UNL     1       4.843   3.679  19.126  0.00  0.00    +0.000 A 
ATOM      9  C   UNL     1       3.509   3.669  18.737  0.00  0.00    +0.000 A 
ENDROOT
BRANCH   1  10
ATOM     10  O   UNL     1       2.881   1.362  18.592  0.00  0.00    +0.000 OA
ATOM     11  H   UNL     1       2.162   0.755  18.837  0.00  0.00    +0.000 HD
ENDBRANCH   1  10
BRANCH   1  12
ATOM     12  C   UNL     1       2.205   2.557  20.593  0.00  0.00    +0.000 C 
BRANCH  12  13
ATOM     13  N   UNL     1       0.842   2.977  20.974  0.00  0.00    +0.000 NA
ATOM     14  H   UNL     1       0.498   2.328  21.684  0.00  0.00    +0.000 HD
ATOM     15  H   UNL     1       0.231   2.832  20.170  0.00  0.00    +0.000 HD
ENDBRANCH  12  13
ENDBRANCH   1  12
TORSDOF 3
ENDMDL
