MODEL 1
REMARK VINA RESULT:      -7.7      0.000      0.000
REMARK  Name = 
REMARK  11 active torsions:
REMARK  status: ('A' for Active; 'I' for Inactive)
REMARK    1  A    between atoms: C_1  and  O_2
REMARK    2  A    between atoms: O_2  and  C_3
REMARK    3  A    between atoms: C_3  and  C_4
REMARK    4  A    between atoms: C_4  and  C_5
REMARK    5  A    between atoms: C_5  and  N_6
REMARK    6  A    between atoms: C_11  and  C_12
REMARK    7  A    between atoms: C_13  and  C_14
REMARK    8  A    between atoms: N_17  and  C_18
REMARK    9  A    between atoms: C_18  and  C_19
REMARK   10  A    between atoms: C_19  and  C_21
REMARK   11  A    between atoms: C_24  and  O_25
REMARK                            x       y       z     vdW  Elec       q    Type
REMARK                         _______ _______ _______ _____ _____    ______ ____
ROOT
ATOM      1  N   UNL     1       1.097   4.246  18.962  0.00  0.00    +0.000 N 
ATOM      2  C   UNL     1       2.242   4.597  18.332  0.00  0.00    +0.000 A 
ATOM      3  N   UNL     1       2.855   3.931  17.379  0.00  0.00    +0.000 NA
ATOM      4  C   UNL     1       3.999   4.630  17.091  0.00  0.00    +0.000 A 
ATOM      5  C   UNL     1       5.022   4.349  16.172  0.00  0.00    +0.000 A 
ATOM      6  C   UNL     1       6.156   5.186  16.102  0.00  0.00    +0.000 A 
ATOM      7  C   UNL     1       7.248   4.838  15.126  0.00  0.00    +0.000 C 
ATOM      8  C   UNL     1       6.251   6.309  16.949  0.00  0.00    +0.000 A 
ATOM      9  C   UNL     1       7.460   7.210  16.984  0.00  0.00    +0.000 C 
ATOM     10  C   UNL     1       5.206   6.616  17.843  0.00  0.00    +0.000 A 
ATOM     11  C   UNL     1       4.102   5.759  17.895  0.00  0.00    +0.000 A 
ATOM     12  N   UNL     1       2.965   5.720  18.674  0.00  0.00    +0.000 N 
ATOM     13  H   UNL     1       0.772   4.739  19.792  0.00  0.00    +0.000 HD
ENDROOT
BRANCH   1  14
ATOM     14  C   UNL     1       0.731   2.834  18.933  0.00  0.00    +0.000 C 
BRANCH  14  15
ATOM     15  C   UNL     1       1.593   2.022  19.896  0.00  0.00    +0.000 C 
BRANCH  15  16
ATOM     16  C   UNL     1       1.535   2.628  21.294  0.00  0.00    +0.000 C 
BRANCH  16  18
ATOM     17  C   UNL     1       3.847   2.436  20.904  0.00  0.00    +0.000 C 
ATOM     18  O   UNL     1       2.830   2.570  21.890  0.00  0.00    +0.000 OA
ENDBRANCH  16  18
ENDBRANCH  15  16
ENDBRANCH  14  15
ENDBRANCH   1  14
BRANCH  12  19
ATOM     19  C   UNL     1       2.648   6.672  19.718  0.00  0.00    +0.000 C 
BRANCH  19  20
ATOM     20  C   UNL     1       1.955   7.932  19.252  0.00  0.00    +0.000 C 
ATOM     21  O   UNL     1       2.031   8.287  18.074  0.00  0.00    +0.000 OA
BRANCH  20  22
ATOM     22  C   UNL     1       1.231   8.817  20.211  0.00  0.00    +0.000 A 
ATOM     23  C   UNL     1       1.128   8.391  21.545  0.00  0.00    +0.000 A 
ATOM     24  C   UNL     1       0.534   9.213  22.510  0.00  0.00    +0.000 A 
ATOM     25  C   UNL     1       0.051  10.462  22.138  0.00  0.00    +0.000 A 
ATOM     26  C   UNL     1       0.142  10.893  20.821  0.00  0.00    +0.000 A 
ATOM     27  C   UNL     1       0.732  10.072  19.856  0.00  0.00    +0.000 A 
BRANCH  25  28
ATOM     28  O   UNL     1      -0.511  11.312  23.040  0.00  0.00    +0.000 OA
ATOM     29  H   UNL     1      -1.094  11.931  22.571  0.00  0.00    +0.000 HD
ENDBRANCH  25  28
ENDBRANCH  20  22
ENDBRANCH  19  20
ENDBRANCH  12  19
TORSDOF 8
ENDMDL
MODEL 2
REMARK VINA RESULT:      -7.4      2.296      7.046
REMARK  Name = 
REMARK  11 active torsions:
REMARK  status: ('A' for Active; 'I' for Inactive)
REMARK    1  A    between atoms: C_1  and  O_2
REMARK    2  A    between atoms: O_2  and  C_3
REMARK    3  A    between atoms: C_3  and  C_4
REMARK    4  A    between atoms: C_4  and  C_5
REMARK    5  A    between atoms: C_5  and  N_6
REMARK    6  A    between atoms: C_11  and  C_12
REMARK    7  A    between atoms: C_13  and  C_14
REMARK    8  A    between atoms: N_17  and  C_18
REMARK    9  A    between atoms: C_18  and  C_19
REMARK   10  A    between atoms: C_19  and  C_21
REMARK   11  A    between atoms: C_24  and  O_25
REMARK                            x       y       z     vdW  Elec       q    Type
REMARK                         _______ _______ _______ _____ _____    ______ ____
ROOT
ATOM      1  N   UNL     1       3.809   6.365  17.666  0.00  0.00    +0.000 N 
ATOM      2  C   UNL     1       2.956   7.317  18.109  0.00  0.00    +0.000 A 
ATOM      3  N   UNL     1       2.598   8.413  17.477  0.00  0.00    +0.000 NA
ATOM      4  C   UNL     1       1.772   9.099  18.329  0.00  0.00    +0.000 A 
ATOM      5  C   UNL     1       1.133  10.338  18.164  0.00  0.00    +0.000 A 
ATOM      6  C   UNL     1       0.379  10.889  19.222  0.00  0.00    +0.000 A 
ATOM      7  C   UNL     1      -0.268  12.233  19.022  0.00  0.00    +0.000 C 
ATOM      8  C   UNL     1       0.263  10.186  20.440  0.00  0.00    +0.000 A 
ATOM      9  C   UNL     1      -0.464  10.739  21.640  0.00  0.00    +0.000 C 
ATOM     10  C   UNL     1       0.870   8.923  20.592  0.00  0.00    +0.000 A 
ATOM     11  C   UNL     1       1.619   8.412  19.527  0.00  0.00    +0.000 A 
ATOM     12  N   UNL     1       2.378   7.274  19.360  0.00  0.00    +0.000 N 
ATOM     13  H   UNL     1       4.149   5.626  18.279  0.00  0.00    +0.000 HD
ENDROOT
BRANCH   1  14
ATOM     14  C   UNL     1       4.761   6.757  16.631  0.00  0.00    +0.000 C 
BRANCH  14  15
ATOM     15  C   UNL     1       5.470   5.539  16.045  0.00  0.00    +0.000 C 
BRANCH  15  16
ATOM     16  C   UNL     1       6.699   5.193  16.879  0.00  0.00    +0.000 C 
BRANCH  16  18
ATOM     17  C   UNL     1       7.611   5.846  18.947  0.00  0.00    +0.000 C 
ATOM     18  O   UNL     1       7.016   6.291  17.733  0.00  0.00    +0.000 OA
ENDBRANCH  16  18
ENDBRANCH  15  16
ENDBRANCH  14  15
ENDBRANCH   1  14
BRANCH  12  19
ATOM     19  C   UNL     1       2.576   6.258  20.373  0.00  0.00    +0.000 C 
BRANCH  19  20
ATOM     20  C   UNL     1       1.780   4.989  20.178  0.00  0.00    +0.000 C 
ATOM     21  O   UNL     1       0.603   4.928  20.542  0.00  0.00    +0.000 OA
BRANCH  20  22
ATOM     22  C   UNL     1       2.409   3.759  19.616  0.00  0.00    +0.000 A 
ATOM     23  C   UNL     1       1.930   3.282  18.385  0.00  0.00    +0.000 A 
ATOM     24  C   UNL     1       2.533   2.182  17.765  0.00  0.00    +0.000 A 
ATOM     25  C   UNL     1       3.618   1.565  18.376  0.00  0.00    +0.000 A 
ATOM     26  C   UNL     1       4.098   2.023  19.595  0.00  0.00    +0.000 A 
ATOM     27  C   UNL     1       3.496   3.119  20.217  0.00  0.00    +0.000 A 
BRANCH  25  28
ATOM     28  O   UNL     1       4.258   0.509  17.804  0.00  0.00    +0.000 OA
ATOM     29  H   UNL     1       4.085  -0.288  18.330  0.00  0.00    +0.000 HD
ENDBRANCH  25  28
ENDBRANCH  20  22
ENDBRANCH  19  20
ENDBRANCH  12  19
TORSDOF 8
ENDMDL
MODEL 3
REMARK VINA RESULT:      -7.4      2.295      7.072
REMARK  Name = 
REMARK  11 active torsions:
REMARK  status: ('A' for Active; 'I' for Inactive)
REMARK    1  A    between atoms: C_1  and  O_2
REMARK    2  A    between atoms: O_2  and  C_3
REMARK    3  A    between atoms: C_3  and  C_4
REMARK    4  A    between atoms: C_4  and  C_5
REMARK    5  A    between atoms: C_5  and  N_6
REMARK    6  A    between atoms: C_11  and  C_12
REMARK    7  A    between atoms: C_13  and  C_14
REMARK    8  A    between atoms: N_17  and  C_18
REMARK    9  A    between atoms: C_18  and  C_19
REMARK   10  A    between atoms: C_19  and  C_21
REMARK   11  A    between atoms: C_24  and  O_25
REMARK                            x       y       z     vdW  Elec       q    Type
REMARK                         _______ _______ _______ _____ _____    ______ ____
ROOT
ATOM      1  N   UNL     1       3.955   6.384  17.757  0.00  0.00    +0.000 N 
ATOM      2  C   UNL     1       3.068   7.326  18.152  0.00  0.00    +0.000 A 
ATOM      3  N   UNL     1       2.737   8.421  17.503  0.00  0.00    +0.000 NA
ATOM      4  C   UNL     1       1.855   9.095  18.307  0.00  0.00    +0.000 A 
ATOM      5  C   UNL     1       1.214  10.329  18.108  0.00  0.00    +0.000 A 
ATOM      6  C   UNL     1       0.393  10.868  19.121  0.00  0.00    +0.000 A 
ATOM      7  C   UNL     1      -0.254  12.207  18.887  0.00  0.00    +0.000 C 
ATOM      8  C   UNL     1       0.212  10.160  20.327  0.00  0.00    +0.000 A 
ATOM      9  C   UNL     1      -0.592  10.700  21.483  0.00  0.00    +0.000 C 
ATOM     10  C   UNL     1       0.821   8.902  20.512  0.00  0.00    +0.000 A 
ATOM     11  C   UNL     1       1.637   8.402  19.491  0.00  0.00    +0.000 A 
ATOM     12  N   UNL     1       2.417   7.272  19.366  0.00  0.00    +0.000 N 
ATOM     13  H   UNL     1       4.266   5.646  18.387  0.00  0.00    +0.000 HD
ENDROOT
BRANCH   1  14
ATOM     14  C   UNL     1       4.963   6.790  16.783  0.00  0.00    +0.000 C 
BRANCH  14  15
ATOM     15  C   UNL     1       5.102   5.754  15.671  0.00  0.00    +0.000 C 
BRANCH  15  16
ATOM     16  C   UNL     1       5.030   4.345  16.252  0.00  0.00    +0.000 C 
BRANCH  16  18
ATOM     17  C   UNL     1       6.225   3.875  14.280  0.00  0.00    +0.000 C 
ATOM     18  O   UNL     1       6.036   3.532  15.648  0.00  0.00    +0.000 OA
ENDBRANCH  16  18
ENDBRANCH  15  16
ENDBRANCH  14  15
ENDBRANCH   1  14
BRANCH  12  19
ATOM     19  C   UNL     1       2.564   6.255  20.386  0.00  0.00    +0.000 C 
BRANCH  19  20
ATOM     20  C   UNL     1       1.764   4.994  20.158  0.00  0.00    +0.000 C 
ATOM     21  O   UNL     1       0.575   4.940  20.483  0.00  0.00    +0.000 OA
BRANCH  20  22
ATOM     22  C   UNL     1       2.401   3.761  19.609  0.00  0.00    +0.000 A 
ATOM     23  C   UNL     1       1.884   3.233  18.414  0.00  0.00    +0.000 A 
ATOM     24  C   UNL     1       2.489   2.128  17.805  0.00  0.00    +0.000 A 
ATOM     25  C   UNL     1       3.614   1.558  18.389  0.00  0.00    +0.000 A 
ATOM     26  C   UNL     1       4.132   2.067  19.572  0.00  0.00    +0.000 A 
ATOM     27  C   UNL     1       3.527   3.168  20.183  0.00  0.00    +0.000 A 
BRANCH  25  28
ATOM     28  O   UNL     1       4.257   0.500  17.824  0.00  0.00    +0.000 OA
ATOM     29  H   UNL     1       4.855   0.107  18.480  0.00  0.00    +0.000 HD
ENDBRANCH  25  28
ENDBRANCH  20  22
ENDBRANCH  19  20
ENDBRANCH  12  19
TORSDOF 8
ENDMDL
MODEL 4
REMARK VINA RESULT:      -7.3      2.732      5.904
REMARK  Name = 
REMARK  11 active torsions:
REMARK  status: ('A' for Active; 'I' for Inactive)
REMARK    1  A    between atoms: C_1  and  O_2
REMARK    2  A    between atoms: O_2  and  C_3
REMARK    3  A    between atoms: C_3  and  C_4
REMARK    4  A    between atoms: C_4  and  C_5
REMARK    5  A    between atoms: C_5  and  N_6
REMARK    6  A    between atoms: C_11  and  C_12
REMARK    7  A    between atoms: C_13  and  C_14
REMARK    8  A    between atoms: N_17  and  C_18
REMARK    9  A    between atoms: C_18  and  C_19
REMARK   10  A    between atoms: C_19  and  C_21
REMARK   11  A    between atoms: C_24  and  O_25
REMARK                            x       y       z     vdW  Elec       q    Type
REMARK                         _______ _______ _______ _____ _____    ______ ____
ROOT
ATOM      1  N   UNL     1       4.749   3.354  18.739  0.00  0.00    +0.000 N 
ATOM      2  C   UNL     1       4.128   4.546  18.897  0.00  0.00    +0.000 A 
ATOM      3  N   UNL     1       3.445   4.948  19.945  0.00  0.00    +0.000 NA
ATOM      4  C   UNL     1       2.951   6.188  19.634  0.00  0.00    +0.000 A 
ATOM      5  C   UNL     1       2.138   7.051  20.386  0.00  0.00    +0.000 A 
ATOM      6  C   UNL     1       1.686   8.264  19.822  0.00  0.00    +0.000 A 
ATOM      7  C   UNL     1       0.791   9.151  20.645  0.00  0.00    +0.000 C 
ATOM      8  C   UNL     1       2.063   8.608  18.508  0.00  0.00    +0.000 A 
ATOM      9  C   UNL     1       1.567   9.850  17.811  0.00  0.00    +0.000 C 
ATOM     10  C   UNL     1       2.914   7.763  17.767  0.00  0.00    +0.000 A 
ATOM     11  C   UNL     1       3.333   6.564  18.352  0.00  0.00    +0.000 A 
ATOM     12  N   UNL     1       4.090   5.502  17.904  0.00  0.00    +0.000 N 
ATOM     13  H   UNL     1       5.126   3.064  17.838  0.00  0.00    +0.000 HD
ENDROOT
BRANCH   1  14
ATOM     14  C   UNL     1       4.278   2.247  19.565  0.00  0.00    +0.000 C 
BRANCH  14  15
ATOM     15  C   UNL     1       3.366   1.316  18.771  0.00  0.00    +0.000 C 
BRANCH  15  16
ATOM     16  C   UNL     1       2.717   2.073  17.617  0.00  0.00    +0.000 C 
BRANCH  16  18
ATOM     17  C   UNL     1       0.693   2.132  18.814  0.00  0.00    +0.000 C 
ATOM     18  O   UNL     1       1.670   2.901  18.122  0.00  0.00    +0.000 OA
ENDBRANCH  16  18
ENDBRANCH  15  16
ENDBRANCH  14  15
ENDBRANCH   1  14
BRANCH  12  19
ATOM     19  C   UNL     1       4.672   5.404  16.581  0.00  0.00    +0.000 C 
BRANCH  19  20
ATOM     20  C   UNL     1       6.180   5.485  16.534  0.00  0.00    +0.000 C 
ATOM     21  O   UNL     1       6.831   4.649  15.903  0.00  0.00    +0.000 OA
BRANCH  20  22
ATOM     22  C   UNL     1       6.924   6.523  17.304  0.00  0.00    +0.000 A 
ATOM     23  C   UNL     1       7.638   6.109  18.441  0.00  0.00    +0.000 A 
ATOM     24  C   UNL     1       8.423   7.018  19.159  0.00  0.00    +0.000 A 
ATOM     25  C   UNL     1       8.498   8.339  18.733  0.00  0.00    +0.000 A 
ATOM     26  C   UNL     1       7.794   8.763  17.614  0.00  0.00    +0.000 A 
ATOM     27  C   UNL     1       7.007   7.857  16.899  0.00  0.00    +0.000 A 
BRANCH  25  28
ATOM     28  O   UNL     1       9.267   9.258  19.378  0.00  0.00    +0.000 OA
ATOM     29  H   UNL     1       9.336   9.011  20.315  0.00  0.00    +0.000 HD
ENDBRANCH  25  28
ENDBRANCH  20  22
ENDBRANCH  19  20
ENDBRANCH  12  19
TORSDOF 8
ENDMDL
MODEL 5
REMARK VINA RESULT:      -7.3      2.311      7.086
REMARK  Name = 
REMARK  11 active torsions:
REMARK  status: ('A' for Active; 'I' for Inactive)
REMARK    1  A    between atoms: C_1  and  O_2
REMARK    2  A    between atoms: O_2  and  C_3
REMARK    3  A    between atoms: C_3  and  C_4
REMARK    4  A    between atoms: C_4  and  C_5
REMARK    5  A    between atoms: C_5  and  N_6
REMARK    6  A    between atoms: C_11  and  C_12
REMARK    7  A    between atoms: C_13  and  C_14
REMARK    8  A    between atoms: N_17  and  C_18
REMARK    9  A    between atoms: C_18  and  C_19
REMARK   10  A    between atoms: C_19  and  C_21
REMARK   11  A    between atoms: C_24  and  O_25
REMARK                            x       y       z     vdW  Elec       q    Type
REMARK                         _______ _______ _______ _____ _____    ______ ____
ROOT
ATOM      1  N   UNL     1       3.734   6.535  17.680  0.00  0.00    +0.000 N 
ATOM      2  C   UNL     1       2.872   7.467  18.149  0.00  0.00    +0.000 A 
ATOM      3  N   UNL     1       2.501   8.574  17.546  0.00  0.00    +0.000 NA
ATOM      4  C   UNL     1       1.670   9.229  18.418  0.00  0.00    +0.000 A 
ATOM      5  C   UNL     1       1.017  10.465  18.285  0.00  0.00    +0.000 A 
ATOM      6  C   UNL     1       0.260  10.981  19.360  0.00  0.00    +0.000 A 
ATOM      7  C   UNL     1      -0.402  12.323  19.195  0.00  0.00    +0.000 C 
ATOM      8  C   UNL     1       0.156  10.247  20.559  0.00  0.00    +0.000 A 
ATOM      9  C   UNL     1      -0.573  10.761  21.775  0.00  0.00    +0.000 C 
ATOM     10  C   UNL     1       0.777   8.987  20.679  0.00  0.00    +0.000 A 
ATOM     11  C   UNL     1       1.528   8.511  19.598  0.00  0.00    +0.000 A 
ATOM     12  N   UNL     1       2.299   7.386  19.401  0.00  0.00    +0.000 N 
ATOM     13  H   UNL     1       4.085   5.785  18.274  0.00  0.00    +0.000 HD
ENDROOT
BRANCH   1  14
ATOM     14  C   UNL     1       4.678   6.964  16.653  0.00  0.00    +0.000 C 
BRANCH  14  15
ATOM     15  C   UNL     1       6.115   6.894  17.162  0.00  0.00    +0.000 C 
BRANCH  15  16
ATOM     16  C   UNL     1       6.768   5.589  16.721  0.00  0.00    +0.000 C 
BRANCH  16  18
ATOM     17  C   UNL     1       6.073   3.713  15.483  0.00  0.00    +0.000 C 
ATOM     18  O   UNL     1       5.765   4.586  16.563  0.00  0.00    +0.000 OA
ENDBRANCH  16  18
ENDBRANCH  15  16
ENDBRANCH  14  15
ENDBRANCH   1  14
BRANCH  12  19
ATOM     19  C   UNL     1       2.512   6.348  20.388  0.00  0.00    +0.000 C 
BRANCH  19  20
ATOM     20  C   UNL     1       1.768   5.057  20.135  0.00  0.00    +0.000 C 
ATOM     21  O   UNL     1       0.610   4.914  20.538  0.00  0.00    +0.000 OA
BRANCH  20  22
ATOM     22  C   UNL     1       2.430   3.899  19.468  0.00  0.00    +0.000 A 
ATOM     23  C   UNL     1       3.548   3.331  20.100  0.00  0.00    +0.000 A 
ATOM     24  C   UNL     1       4.164   2.192  19.568  0.00  0.00    +0.000 A 
ATOM     25  C   UNL     1       3.654   1.620  18.408  0.00  0.00    +0.000 A 
ATOM     26  C   UNL     1       2.552   2.175  17.771  0.00  0.00    +0.000 A 
ATOM     27  C   UNL     1       1.938   3.313  18.299  0.00  0.00    +0.000 A 
BRANCH  25  28
ATOM     28  O   UNL     1       4.197   0.497  17.863  0.00  0.00    +0.000 OA
ATOM     29  H   UNL     1       4.845   0.755  17.188  0.00  0.00    +0.000 HD
ENDBRANCH  25  28
ENDBRANCH  20  22
ENDBRANCH  19  20
ENDBRANCH  12  19
TORSDOF 8
ENDMDL
MODEL 6
REMARK VINA RESULT:      -7.3      2.273      6.745
REMARK  Name = 
REMARK  11 active torsions:
REMARK  status: ('A' for Active; 'I' for Inactive)
REMARK    1  A    between atoms: C_1  and  O_2
REMARK    2  A    between atoms: O_2  and  C_3
REMARK    3  A    between atoms: C_3  and  C_4
REMARK    4  A    between atoms: C_4  and  C_5
REMARK    5  A    between atoms: C_5  and  N_6
REMARK    6  A    between atoms: C_11  and  C_12
REMARK    7  A    between atoms: C_13  and  C_14
REMARK    8  A    between atoms: N_17  and  C_18
REMARK    9  A    between atoms: C_18  and  C_19
REMARK   10  A    between atoms: C_19  and  C_21
REMARK   11  A    between atoms: C_24  and  O_25
REMARK                            x       y       z     vdW  Elec       q    Type
REMARK                         _______ _______ _______ _____ _____    ______ ____
ROOT
ATOM      1  N   UNL     1       2.577   5.723  20.375  0.00  0.00    +0.000 N 
ATOM      2  C   UNL     1       1.991   6.943  20.370  0.00  0.00    +0.000 A 
ATOM      3  N   UNL     1       1.214   7.449  21.302  0.00  0.00    +0.000 NA
ATOM      4  C   UNL     1       0.808   8.676  20.842  0.00  0.00    +0.000 A 
ATOM      5  C   UNL     1      -0.047   9.621  21.430  0.00  0.00    +0.000 A 
ATOM      6  C   UNL     1      -0.386  10.798  20.728  0.00  0.00    +0.000 A 
ATOM      7  C   UNL     1      -1.329  11.777  21.375  0.00  0.00    +0.000 C 
ATOM      8  C   UNL     1       0.146  11.023  19.442  0.00  0.00    +0.000 A 
ATOM      9  C   UNL     1      -0.222  12.219  18.600  0.00  0.00    +0.000 C 
ATOM     10  C   UNL     1       1.037  10.095  18.868  0.00  0.00    +0.000 A 
ATOM     11  C   UNL     1       1.342   8.934  19.587  0.00  0.00    +0.000 A 
ATOM     12  N   UNL     1       2.100   7.816  19.309  0.00  0.00    +0.000 N 
ATOM     13  H   UNL     1       3.039   5.350  19.547  0.00  0.00    +0.000 HD
ENDROOT
BRANCH   1  14
ATOM     14  C   UNL     1       1.976   4.702  21.226  0.00  0.00    +0.000 C 
BRANCH  14  15
ATOM     15  C   UNL     1       1.152   3.715  20.403  0.00  0.00    +0.000 C 
BRANCH  15  16
ATOM     16  C   UNL     1       2.031   2.562  19.929  0.00  0.00    +0.000 C 
BRANCH  16  18
ATOM     17  C   UNL     1       4.339   2.497  19.478  0.00  0.00    +0.000 C 
ATOM     18  O   UNL     1       3.342   2.712  20.471  0.00  0.00    +0.000 OA
ENDBRANCH  16  18
ENDBRANCH  15  16
ENDBRANCH  14  15
ENDBRANCH   1  14
BRANCH  12  19
ATOM     19  C   UNL     1       2.818   7.594  18.071  0.00  0.00    +0.000 C 
BRANCH  19  20
ATOM     20  C   UNL     1       3.079   6.145  17.729  0.00  0.00    +0.000 C 
ATOM     21  O   UNL     1       2.146   5.342  17.662  0.00  0.00    +0.000 OA
BRANCH  20  22
ATOM     22  C   UNL     1       4.467   5.631  17.541  0.00  0.00    +0.000 A 
ATOM     23  C   UNL     1       5.412   5.917  18.540  0.00  0.00    +0.000 A 
ATOM     24  C   UNL     1       6.708   5.394  18.463  0.00  0.00    +0.000 A 
ATOM     25  C   UNL     1       7.053   4.581  17.390  0.00  0.00    +0.000 A 
ATOM     26  C   UNL     1       6.130   4.294  16.394  0.00  0.00    +0.000 A 
ATOM     27  C   UNL     1       4.837   4.818  16.467  0.00  0.00    +0.000 A 
BRANCH  25  28
ATOM     28  O   UNL     1       8.290   4.025  17.281  0.00  0.00    +0.000 OA
ATOM     29  H   UNL     1       8.604   4.130  16.368  0.00  0.00    +0.000 HD
ENDBRANCH  25  28
ENDBRANCH  20  22
ENDBRANCH  19  20
ENDBRANCH  12  19
TORSDOF 8
ENDMDL
MODEL 7
REMARK VINA RESULT:      -7.2      2.528      5.939
REMARK  Name = 
REMARK  11 active torsions:
REMARK  status: ('A' for Active; 'I' for Inactive)
REMARK    1  A    between atoms: C_1  and  O_2
REMARK    2  A    between atoms: O_2  and  C_3
REMARK    3  A    between atoms: C_3  and  C_4
REMARK    4  A    between atoms: C_4  and  C_5
REMARK    5  A    between atoms: C_5  and  N_6
REMARK    6  A    between atoms: C_11  and  C_12
REMARK    7  A    between atoms: C_13  and  C_14
REMARK    8  A    between atoms: N_17  and  C_18
REMARK    9  A    between atoms: C_18  and  C_19
REMARK   10  A    between atoms: C_19  and  C_21
REMARK   11  A    between atoms: C_24  and  O_25
REMARK                            x       y       z     vdW  Elec       q    Type
REMARK                         _______ _______ _______ _____ _____    ______ ____
ROOT
ATOM      1  N   UNL     1       4.699   3.396  18.902  0.00  0.00    +0.000 N 
ATOM      2  C   UNL     1       4.066   4.586  19.013  0.00  0.00    +0.000 A 
ATOM      3  N   UNL     1       3.359   5.012  20.037  0.00  0.00    +0.000 NA
ATOM      4  C   UNL     1       2.863   6.239  19.681  0.00  0.00    +0.000 A 
ATOM      5  C   UNL     1       2.028   7.116  20.392  0.00  0.00    +0.000 A 
ATOM      6  C   UNL     1       1.579   8.309  19.786  0.00  0.00    +0.000 A 
ATOM      7  C   UNL     1       0.661   9.212  20.565  0.00  0.00    +0.000 C 
ATOM      8  C   UNL     1       1.980   8.620  18.470  0.00  0.00    +0.000 A 
ATOM      9  C   UNL     1       1.488   9.838  17.728  0.00  0.00    +0.000 C 
ATOM     10  C   UNL     1       2.851   7.761  17.770  0.00  0.00    +0.000 A 
ATOM     11  C   UNL     1       3.268   6.582  18.397  0.00  0.00    +0.000 A 
ATOM     12  N   UNL     1       4.041   5.514  17.993  0.00  0.00    +0.000 N 
ATOM     13  H   UNL     1       5.096   3.083  18.016  0.00  0.00    +0.000 HD
ENDROOT
BRANCH   1  14
ATOM     14  C   UNL     1       4.220   2.309  19.749  0.00  0.00    +0.000 C 
BRANCH  14  15
ATOM     15  C   UNL     1       2.811   1.879  19.350  0.00  0.00    +0.000 C 
BRANCH  15  16
ATOM     16  C   UNL     1       1.839   2.128  20.499  0.00  0.00    +0.000 C 
BRANCH  16  18
ATOM     17  C   UNL     1       0.720   2.952  18.601  0.00  0.00    +0.000 C 
ATOM     18  O   UNL     1       0.723   2.879  20.022  0.00  0.00    +0.000 OA
ENDBRANCH  16  18
ENDBRANCH  15  16
ENDBRANCH  14  15
ENDBRANCH   1  14
BRANCH  12  19
ATOM     19  C   UNL     1       4.650   5.384  16.686  0.00  0.00    +0.000 C 
BRANCH  19  20
ATOM     20  C   UNL     1       6.155   5.246  16.687  0.00  0.00    +0.000 C 
ATOM     21  O   UNL     1       6.692   4.264  16.169  0.00  0.00    +0.000 OA
BRANCH  20  22
ATOM     22  C   UNL     1       7.023   6.243  17.377  0.00  0.00    +0.000 A 
ATOM     23  C   UNL     1       7.070   7.546  16.853  0.00  0.00    +0.000 A 
ATOM     24  C   UNL     1       7.800   8.548  17.501  0.00  0.00    +0.000 A 
ATOM     25  C   UNL     1       8.476   8.247  18.677  0.00  0.00    +0.000 A 
ATOM     26  C   UNL     1       8.443   6.963  19.204  0.00  0.00    +0.000 A 
ATOM     27  C   UNL     1       7.717   5.960  18.556  0.00  0.00    +0.000 A 
BRANCH  25  28
ATOM     28  O   UNL     1       9.179   9.190  19.362  0.00  0.00    +0.000 OA
ATOM     29  H   UNL     1       9.868   9.554  18.782  0.00  0.00    +0.000 HD
ENDBRANCH  25  28
ENDBRANCH  20  22
ENDBRANCH  19  20
ENDBRANCH  12  19
TORSDOF 8
ENDMDL
MODEL 8
REMARK VINA RESULT:      -7.2      3.679      6.275
REMARK  Name = 
REMARK  11 active torsions:
REMARK  status: ('A' for Active; 'I' for Inactive)
REMARK    1  A    between atoms: C_1  and  O_2
REMARK    2  A    between atoms: O_2  and  C_3
REMARK    3  A    between atoms: C_3  and  C_4
REMARK    4  A    between atoms: C_4  and  C_5
REMARK    5  A    between atoms: C_5  and  N_6
REMARK    6  A    between atoms: C_11  and  C_12
REMARK    7  A    between atoms: C_13  and  C_14
REMARK    8  A    between atoms: N_17  and  C_18
REMARK    9  A    between atoms: C_18  and  C_19
REMARK   10  A    between atoms: C_19  and  C_21
REMARK   11  A    between atoms: C_24  and  O_25
REMARK                            x       y       z     vdW  Elec       q    Type
REMARK                         _______ _______ _______ _____ _____    ______ ____
ROOT
ATOM      1  N   UNL     1       6.869   5.111  18.154  0.00  0.00    +0.000 N 
ATOM      2  C   UNL     1       6.782   4.837  16.832  0.00  0.00    +0.000 A 
ATOM      3  N   UNL     1       7.580   5.271  15.881  0.00  0.00    +0.000 NA
ATOM      4  C   UNL     1       7.075   4.788  14.701  0.00  0.00    +0.000 A 
ATOM      5  C   UNL     1       7.527   4.972  13.385  0.00  0.00    +0.000 A 
ATOM      6  C   UNL     1       6.793   4.433  12.306  0.00  0.00    +0.000 A 
ATOM      7  C   UNL     1       7.288   4.673  10.906  0.00  0.00    +0.000 C 
ATOM      8  C   UNL     1       5.613   3.702  12.558  0.00  0.00    +0.000 A 
ATOM      9  C   UNL     1       4.737   3.155  11.460  0.00  0.00    +0.000 C 
ATOM     10  C   UNL     1       5.181   3.482  13.882  0.00  0.00    +0.000 A 
ATOM     11  C   UNL     1       5.927   4.040  14.926  0.00  0.00    +0.000 A 
ATOM     12  N   UNL     1       5.763   4.079  16.294  0.00  0.00    +0.000 N 
ATOM     13  H   UNL     1       6.122   4.860  18.801  0.00  0.00    +0.000 HD
ENDROOT
BRANCH   1  14
ATOM     14  C   UNL     1       7.598   6.317  18.534  0.00  0.00    +0.000 C 
BRANCH  14  15
ATOM     15  C   UNL     1       7.028   7.548  17.835  0.00  0.00    +0.000 C 
BRANCH  15  16
ATOM     16  C   UNL     1       8.127   8.583  17.612  0.00  0.00    +0.000 C 
BRANCH  16  18
ATOM     17  C   UNL     1       9.098  10.140  19.083  0.00  0.00    +0.000 C 
ATOM     18  O   UNL     1       8.862   8.762  18.822  0.00  0.00    +0.000 OA
ENDBRANCH  16  18
ENDBRANCH  15  16
ENDBRANCH  14  15
ENDBRANCH   1  14
BRANCH  12  19
ATOM     19  C   UNL     1       4.657   3.479  17.010  0.00  0.00    +0.000 C 
BRANCH  19  20
ATOM     20  C   UNL     1       3.752   4.451  17.729  0.00  0.00    +0.000 C 
ATOM     21  O   UNL     1       3.701   5.633  17.381  0.00  0.00    +0.000 OA
BRANCH  20  22
ATOM     22  C   UNL     1       2.958   4.033  18.921  0.00  0.00    +0.000 A 
ATOM     23  C   UNL     1       2.409   2.740  18.923  0.00  0.00    +0.000 A 
ATOM     24  C   UNL     1       1.725   2.259  20.044  0.00  0.00    +0.000 A 
ATOM     25  C   UNL     1       1.597   3.071  21.165  0.00  0.00    +0.000 A 
ATOM     26  C   UNL     1       2.130   4.352  21.176  0.00  0.00    +0.000 A 
ATOM     27  C   UNL     1       2.811   4.835  20.055  0.00  0.00    +0.000 A 
BRANCH  25  28
ATOM     28  O   UNL     1       0.965   2.642  22.292  0.00  0.00    +0.000 OA
ATOM     29  H   UNL     1       0.189   2.117  22.039  0.00  0.00    +0.000 HD
ENDBRANCH  25  28
ENDBRANCH  20  22
ENDBRANCH  19  20
ENDBRANCH  12  19
TORSDOF 8
ENDMDL
MODEL 9
REMARK VINA RESULT:      -7.0      3.859      6.946
REMARK  Name = 
REMARK  11 active torsions:
REMARK  status: ('A' for Active; 'I' for Inactive)
REMARK    1  A    between atoms: C_1  and  O_2
REMARK    2  A    between atoms: O_2  and  C_3
REMARK    3  A    between atoms: C_3  and  C_4
REMARK    4  A    between atoms: C_4  and  C_5
REMARK    5  A    between atoms: C_5  and  N_6
REMARK    6  A    between atoms: C_11  and  C_12
REMARK    7  A    between atoms: C_13  and  C_14
REMARK    8  A    between atoms: N_17  and  C_18
REMARK    9  A    between atoms: C_18  and  C_19
REMARK   10  A    between atoms: C_19  and  C_21
REMARK   11  A    between atoms: C_24  and  O_25
REMARK                            x       y       z     vdW  Elec       q    Type
REMARK                         _______ _______ _______ _____ _____    ______ ____
ROOT
ATOM      1  N   UNL     1       7.020   7.051  17.809  0.00  0.00    +0.000 N 
ATOM      2  C   UNL     1       6.819   6.265  16.727  0.00  0.00    +0.000 A 
ATOM      3  N   UNL     1       7.732   5.821  15.893  0.00  0.00    +0.000 NA
ATOM      4  C   UNL     1       7.063   5.118  14.924  0.00  0.00    +0.000 A 
ATOM      5  C   UNL     1       7.554   4.459  13.786  0.00  0.00    +0.000 A 
ATOM      6  C   UNL     1       6.656   3.857  12.878  0.00  0.00    +0.000 A 
ATOM      7  C   UNL     1       7.214   3.185  11.652  0.00  0.00    +0.000 C 
ATOM      8  C   UNL     1       5.269   3.911  13.125  0.00  0.00    +0.000 A 
ATOM      9  C   UNL     1       4.243   3.354  12.170  0.00  0.00    +0.000 C 
ATOM     10  C   UNL     1       4.777   4.536  14.289  0.00  0.00    +0.000 A 
ATOM     11  C   UNL     1       5.695   5.132  15.161  0.00  0.00    +0.000 A 
ATOM     12  N   UNL     1       5.563   5.865  16.322  0.00  0.00    +0.000 N 
ATOM     13  H   UNL     1       6.242   7.475  18.314  0.00  0.00    +0.000 HD
ENDROOT
BRANCH   1  14
ATOM     14  C   UNL     1       8.241   7.850  17.830  0.00  0.00    +0.000 C 
BRANCH  14  15
ATOM     15  C   UNL     1       7.921   9.342  17.889  0.00  0.00    +0.000 C 
BRANCH  15  16
ATOM     16  C   UNL     1       8.978  10.075  18.709  0.00  0.00    +0.000 C 
BRANCH  16  18
ATOM     17  C   UNL     1      10.548  11.596  17.839  0.00  0.00    +0.000 C 
ATOM     18  O   UNL     1       9.180  11.379  18.165  0.00  0.00    +0.000 OA
ENDBRANCH  16  18
ENDBRANCH  15  16
ENDBRANCH  14  15
ENDBRANCH   1  14
BRANCH  12  19
ATOM     19  C   UNL     1       4.301   6.203  16.945  0.00  0.00    +0.000 C 
BRANCH  19  20
ATOM     20  C   UNL     1       4.045   5.544  18.281  0.00  0.00    +0.000 C 
ATOM     21  O   UNL     1       4.660   5.909  19.286  0.00  0.00    +0.000 OA
BRANCH  20  22
ATOM     22  C   UNL     1       3.108   4.390  18.408  0.00  0.00    +0.000 A 
ATOM     23  C   UNL     1       1.995   4.540  19.253  0.00  0.00    +0.000 A 
ATOM     24  C   UNL     1       1.036   3.527  19.351  0.00  0.00    +0.000 A 
ATOM     25  C   UNL     1       1.188   2.368  18.599  0.00  0.00    +0.000 A 
ATOM     26  C   UNL     1       2.285   2.205  17.764  0.00  0.00    +0.000 A 
ATOM     27  C   UNL     1       3.245   3.214  17.667  0.00  0.00    +0.000 A 
BRANCH  25  28
ATOM     28  O   UNL     1       0.270   1.363  18.637  0.00  0.00    +0.000 OA
ATOM     29  H   UNL     1      -0.383   1.505  17.933  0.00  0.00    +0.000 HD
ENDBRANCH  25  28
ENDBRANCH  20  22
ENDBRANCH  19  20
ENDBRANCH  12  19
TORSDOF 8
ENDMDL
