MODEL 1
REMARK VINA RESULT:      -9.3      0.000      0.000
REMARK  Name = 
REMARK  2 active torsions:
REMARK  status: ('A' for Active; 'I' for Inactive)
REMARK    1  A    between atoms: C_7  and  C_8
REMARK    2  A    between atoms: C_13  and  C_14
REMARK                            x       y       z     vdW  Elec       q    Type
REMARK                         _______ _______ _______ _____ _____    ______ ____
ROOT
ATOM      1  C   UNL     1       7.483   6.412  17.395  0.00  0.00    +0.000 C 
ATOM      2  O   UNL     1       7.814   5.924  18.473  0.00  0.00    +0.000 OA
ATOM      3  N   UNL     1       7.685   7.721  17.008  0.00  0.00    +0.000 N 
ATOM      4  C   UNL     1       8.212   8.686  17.842  0.00  0.00    +0.000 A 
ATOM      5  C   UNL     1       8.476  10.022  17.462  0.00  0.00    +0.000 A 
ATOM      6  C   UNL     1       9.064  10.622  18.562  0.00  0.00    +0.000 A 
ATOM      7  N   UNL     1       9.058   9.648  19.523  0.00  0.00    +0.000 N 
ATOM      8  N   UNL     1       8.535   8.490  19.119  0.00  0.00    +0.000 NA
ATOM      9  H   UNL     1       7.489   8.006  16.060  0.00  0.00    +0.000 HD
ATOM     10  H   UNL     1       9.399   9.706  20.477  0.00  0.00    +0.000 HD
ENDROOT
BRANCH   1  17
ATOM     11  O   UNL     1       1.724   2.400  16.977  0.00  0.00    +0.000 OA
ATOM     12  C   UNL     1       2.465   3.244  17.437  0.00  0.00    +0.000 C 
ATOM     13  O   UNL     1       3.549   3.808  16.821  0.00  0.00    +0.000 OA
ATOM     14  C   UNL     1       4.291   4.688  17.712  0.00  0.00    +0.000 C 
ATOM     15  C   UNL     1       5.631   4.003  18.010  0.00  0.00    +0.000 C 
ATOM     16  C   UNL     1       6.621   4.100  16.839  0.00  0.00    +0.000 C 
ATOM     17  C   UNL     1       6.794   5.542  16.330  0.00  0.00    +0.000 C 
ATOM     18  C   UNL     1       5.427   6.080  15.896  0.00  0.00    +0.000 C 
ATOM     19  C   UNL     1       4.419   6.066  17.047  0.00  0.00    +0.000 C 
ATOM     20  C   UNL     1       3.417   4.732  18.907  0.00  0.00    +0.000 A 
ATOM     21  C   UNL     1       3.498   5.449  20.075  0.00  0.00    +0.000 A 
ATOM     22  N   UNL     1       2.563   5.336  21.046  0.00  0.00    +0.000 NA
ATOM     23  C   UNL     1       1.536   4.469  20.843  0.00  0.00    +0.000 A 
ATOM     24  C   UNL     1       1.383   3.704  19.705  0.00  0.00    +0.000 A 
ATOM     25  C   UNL     1       2.360   3.874  18.746  0.00  0.00    +0.000 A 
ENDBRANCH   1  17
BRANCH   6  26
ATOM     26  C   UNL     1       9.627  11.953  18.757  0.00  0.00    +0.000 A 
ATOM     27  C   UNL     1       9.261  13.005  17.908  0.00  0.00    +0.000 A 
ATOM     28  C   UNL     1       9.855  14.262  18.038  0.00  0.00    +0.000 A 
ATOM     29  C   UNL     1      10.818  14.481  19.020  0.00  0.00    +0.000 A 
ATOM     30  C   UNL     1      11.173  13.450  19.888  0.00  0.00    +0.000 A 
ATOM     31  C   UNL     1      10.579  12.193  19.759  0.00  0.00    +0.000 A 
ENDBRANCH   6  26
TORSDOF 2
ENDMDL
MODEL 2
REMARK VINA RESULT:      -8.9      1.280      1.727
REMARK  Name = 
REMARK  2 active torsions:
REMARK  status: ('A' for Active; 'I' for Inactive)
REMARK    1  A    between atoms: C_7  and  C_8
REMARK    2  A    between atoms: C_13  and  C_14
REMARK                            x       y       z     vdW  Elec       q    Type
REMARK                         _______ _______ _______ _____ _____    ______ ____
ROOT
ATOM      1  C   UNL     1       6.287   5.687  17.075  0.00  0.00    +0.000 C 
ATOM      2  O   UNL     1       6.924   4.904  17.775  0.00  0.00    +0.000 OA
ATOM      3  N   UNL     1       6.502   7.047  16.986  0.00  0.00    +0.000 N 
ATOM      4  C   UNL     1       7.422   7.721  17.765  0.00  0.00    +0.000 A 
ATOM      5  C   UNL     1       7.702   9.104  17.665  0.00  0.00    +0.000 A 
ATOM      6  C   UNL     1       8.727   9.351  18.561  0.00  0.00    +0.000 A 
ATOM      7  N   UNL     1       8.947   8.143  19.166  0.00  0.00    +0.000 N 
ATOM      8  N   UNL     1       8.164   7.161  18.718  0.00  0.00    +0.000 NA
ATOM      9  H   UNL     1       6.011   7.595  16.297  0.00  0.00    +0.000 HD
ATOM     10  H   UNL     1       9.619   7.919  19.892  0.00  0.00    +0.000 HD
ENDROOT
BRANCH   1  17
ATOM     11  O   UNL     1       0.254   2.182  17.946  0.00  0.00    +0.000 OA
ATOM     12  C   UNL     1       1.223   2.835  18.275  0.00  0.00    +0.000 C 
ATOM     13  O   UNL     1       2.082   3.503  17.446  0.00  0.00    +0.000 OA
ATOM     14  C   UNL     1       3.211   4.072  18.167  0.00  0.00    +0.000 C 
ATOM     15  C   UNL     1       4.457   3.278  17.754  0.00  0.00    +0.000 C 
ATOM     16  C   UNL     1       4.964   3.655  16.354  0.00  0.00    +0.000 C 
ATOM     17  C   UNL     1       5.146   5.173  16.180  0.00  0.00    +0.000 C 
ATOM     18  C   UNL     1       3.805   5.865  16.447  0.00  0.00    +0.000 C 
ATOM     19  C   UNL     1       3.286   5.574  17.856  0.00  0.00    +0.000 C 
ATOM     20  C   UNL     1       2.839   3.819  19.579  0.00  0.00    +0.000 A 
ATOM     21  C   UNL     1       3.434   4.182  20.761  0.00  0.00    +0.000 A 
ATOM     22  N   UNL     1       2.904   3.843  21.959  0.00  0.00    +0.000 NA
ATOM     23  C   UNL     1       1.761   3.108  21.964  0.00  0.00    +0.000 A 
ATOM     24  C   UNL     1       1.103   2.694  20.823  0.00  0.00    +0.000 A 
ATOM     25  C   UNL     1       1.684   3.083  19.634  0.00  0.00    +0.000 A 
ENDBRANCH   1  17
BRANCH   6  26
ATOM     26  C   UNL     1       9.493  10.557  18.852  0.00  0.00    +0.000 A 
ATOM     27  C   UNL     1       9.696  10.961  20.177  0.00  0.00    +0.000 A 
ATOM     28  C   UNL     1      10.359  12.157  20.461  0.00  0.00    +0.000 A 
ATOM     29  C   UNL     1      10.830  12.957  19.424  0.00  0.00    +0.000 A 
ATOM     30  C   UNL     1      10.656  12.555  18.101  0.00  0.00    +0.000 A 
ATOM     31  C   UNL     1       9.994  11.359  17.816  0.00  0.00    +0.000 A 
ENDBRANCH   6  26
TORSDOF 2
ENDMDL
MODEL 3
REMARK VINA RESULT:      -8.9      1.621      1.874
REMARK  Name = 
REMARK  2 active torsions:
REMARK  status: ('A' for Active; 'I' for Inactive)
REMARK    1  A    between atoms: C_7  and  C_8
REMARK    2  A    between atoms: C_13  and  C_14
REMARK                            x       y       z     vdW  Elec       q    Type
REMARK                         _______ _______ _______ _____ _____    ______ ____
ROOT
ATOM      1  C   UNL     1       7.291   7.130  17.260  0.00  0.00    +0.000 C 
ATOM      2  O   UNL     1       6.498   7.747  16.553  0.00  0.00    +0.000 OA
ATOM      3  N   UNL     1       8.206   7.693  18.126  0.00  0.00    +0.000 N 
ATOM      4  C   UNL     1       8.409   9.055  18.234  0.00  0.00    +0.000 A 
ATOM      5  C   UNL     1       9.303   9.666  19.144  0.00  0.00    +0.000 A 
ATOM      6  C   UNL     1       9.144  11.031  18.975  0.00  0.00    +0.000 A 
ATOM      7  N   UNL     1       8.233  11.143  17.960  0.00  0.00    +0.000 N 
ATOM      8  N   UNL     1       7.797   9.974  17.490  0.00  0.00    +0.000 NA
ATOM      9  H   UNL     1       8.735   7.110  18.756  0.00  0.00    +0.000 HD
ATOM     10  H   UNL     1       7.863  11.989  17.541  0.00  0.00    +0.000 HD
ENDROOT
BRANCH   1  17
ATOM     11  O   UNL     1       3.393   1.920  19.923  0.00  0.00    +0.000 OA
ATOM     12  C   UNL     1       3.656   3.055  19.581  0.00  0.00    +0.000 C 
ATOM     13  O   UNL     1       4.700   3.453  18.792  0.00  0.00    +0.000 OA
ATOM     14  C   UNL     1       4.793   4.902  18.693  0.00  0.00    +0.000 C 
ATOM     15  C   UNL     1       6.054   5.326  19.457  0.00  0.00    +0.000 C 
ATOM     16  C   UNL     1       7.346   5.036  18.678  0.00  0.00    +0.000 C 
ATOM     17  C   UNL     1       7.308   5.592  17.243  0.00  0.00    +0.000 C 
ATOM     18  C   UNL     1       6.113   4.978  16.507  0.00  0.00    +0.000 C 
ATOM     19  C   UNL     1       4.791   5.294  17.208  0.00  0.00    +0.000 C 
ATOM     20  C   UNL     1       3.557   5.342  19.381  0.00  0.00    +0.000 A 
ATOM     21  C   UNL     1       3.002   6.584  19.560  0.00  0.00    +0.000 A 
ATOM     22  N   UNL     1       1.837   6.754  20.228  0.00  0.00    +0.000 NA
ATOM     23  C   UNL     1       1.230   5.651  20.740  0.00  0.00    +0.000 A 
ATOM     24  C   UNL     1       1.724   4.368  20.614  0.00  0.00    +0.000 A 
ATOM     25  C   UNL     1       2.905   4.258  19.911  0.00  0.00    +0.000 A 
ENDBRANCH   1  17
BRANCH   6  26
ATOM     26  C   UNL     1       9.724  12.169  19.677  0.00  0.00    +0.000 A 
ATOM     27  C   UNL     1       9.245  12.538  20.940  0.00  0.00    +0.000 A 
ATOM     28  C   UNL     1       9.741  13.675  21.584  0.00  0.00    +0.000 A 
ATOM     29  C   UNL     1      10.723  14.449  20.973  0.00  0.00    +0.000 A 
ATOM     30  C   UNL     1      11.227  14.079  19.728  0.00  0.00    +0.000 A 
ATOM     31  C   UNL     1      10.733  12.943  19.084  0.00  0.00    +0.000 A 
ENDBRANCH   6  26
TORSDOF 2
ENDMDL
MODEL 4
REMARK VINA RESULT:      -8.9      1.588      1.749
REMARK  Name = 
REMARK  2 active torsions:
REMARK  status: ('A' for Active; 'I' for Inactive)
REMARK    1  A    between atoms: C_7  and  C_8
REMARK    2  A    between atoms: C_13  and  C_14
REMARK                            x       y       z     vdW  Elec       q    Type
REMARK                         _______ _______ _______ _____ _____    ______ ____
ROOT
ATOM      1  C   UNL     1       6.731   6.494  16.627  0.00  0.00    +0.000 C 
ATOM      2  O   UNL     1       5.921   7.243  16.087  0.00  0.00    +0.000 OA
ATOM      3  N   UNL     1       7.730   6.881  17.497  0.00  0.00    +0.000 N 
ATOM      4  C   UNL     1       8.005   8.200  17.798  0.00  0.00    +0.000 A 
ATOM      5  C   UNL     1       8.988   8.628  18.720  0.00  0.00    +0.000 A 
ATOM      6  C   UNL     1       8.882  10.007  18.778  0.00  0.00    +0.000 A 
ATOM      7  N   UNL     1       7.908  10.310  17.865  0.00  0.00    +0.000 N 
ATOM      8  N   UNL     1       7.385   9.246  17.254  0.00  0.00    +0.000 NA
ATOM      9  H   UNL     1       8.274   6.187  17.987  0.00  0.00    +0.000 HD
ATOM     10  H   UNL     1       7.551  11.225  17.611  0.00  0.00    +0.000 HD
ENDROOT
BRANCH   1  17
ATOM     11  O   UNL     1       3.022   1.019  19.012  0.00  0.00    +0.000 OA
ATOM     12  C   UNL     1       3.285   2.187  18.813  0.00  0.00    +0.000 C 
ATOM     13  O   UNL     1       4.221   2.681  17.947  0.00  0.00    +0.000 OA
ATOM     14  C   UNL     1       4.366   4.124  18.059  0.00  0.00    +0.000 C 
ATOM     15  C   UNL     1       5.742   4.393  18.681  0.00  0.00    +0.000 C 
ATOM     16  C   UNL     1       6.893   4.201  17.681  0.00  0.00    +0.000 C 
ATOM     17  C   UNL     1       6.674   4.979  16.372  0.00  0.00    +0.000 C 
ATOM     18  C   UNL     1       5.358   4.517  15.737  0.00  0.00    +0.000 C 
ATOM     19  C   UNL     1       4.167   4.748  16.669  0.00  0.00    +0.000 C 
ATOM     20  C   UNL     1       3.265   4.478  18.984  0.00  0.00    +0.000 A 
ATOM     21  C   UNL     1       2.799   5.689  19.434  0.00  0.00    +0.000 A 
ATOM     22  N   UNL     1       1.752   5.778  20.287  0.00  0.00    +0.000 NA
ATOM     23  C   UNL     1       1.175   4.621  20.708  0.00  0.00    +0.000 A 
ATOM     24  C   UNL     1       1.585   3.363  20.314  0.00  0.00    +0.000 A 
ATOM     25  C   UNL     1       2.646   3.340  19.433  0.00  0.00    +0.000 A 
ENDBRANCH   1  17
BRANCH   6  26
ATOM     26  C   UNL     1       9.563  10.999  19.600  0.00  0.00    +0.000 A 
ATOM     27  C   UNL     1       8.978  11.451  20.789  0.00  0.00    +0.000 A 
ATOM     28  C   UNL     1       9.586  12.459  21.542  0.00  0.00    +0.000 A 
ATOM     29  C   UNL     1      10.787  13.020  21.115  0.00  0.00    +0.000 A 
ATOM     30  C   UNL     1      11.393  12.562  19.947  0.00  0.00    +0.000 A 
ATOM     31  C   UNL     1      10.786  11.554  19.195  0.00  0.00    +0.000 A 
ENDBRANCH   6  26
TORSDOF 2
ENDMDL
MODEL 5
REMARK VINA RESULT:      -8.5      4.855      6.276
REMARK  Name = 
REMARK  2 active torsions:
REMARK  status: ('A' for Active; 'I' for Inactive)
REMARK    1  A    between atoms: C_7  and  C_8
REMARK    2  A    between atoms: C_13  and  C_14
REMARK                            x       y       z     vdW  Elec       q    Type
REMARK                         _______ _______ _______ _____ _____    ______ ____
ROOT
ATOM      1  C   UNL     1       4.689   6.733  16.731  0.00  0.00    +0.000 C 
ATOM      2  O   UNL     1       4.642   7.354  15.673  0.00  0.00    +0.000 OA
ATOM      3  N   UNL     1       3.908   6.976  17.844  0.00  0.00    +0.000 N 
ATOM      4  C   UNL     1       3.025   8.033  17.934  0.00  0.00    +0.000 A 
ATOM      5  C   UNL     1       2.177   8.282  19.038  0.00  0.00    +0.000 A 
ATOM      6  C   UNL     1       1.412   9.381  18.690  0.00  0.00    +0.000 A 
ATOM      7  N   UNL     1       1.881   9.745  17.457  0.00  0.00    +0.000 N 
ATOM      8  N   UNL     1       2.859   8.964  16.997  0.00  0.00    +0.000 NA
ATOM      9  H   UNL     1       3.930   6.341  18.627  0.00  0.00    +0.000 HD
ATOM     10  H   UNL     1       1.576  10.516  16.873  0.00  0.00    +0.000 HD
ENDROOT
BRANCH   1  17
ATOM     11  O   UNL     1       5.257   1.065  20.852  0.00  0.00    +0.000 OA
ATOM     12  C   UNL     1       4.709   2.010  20.323  0.00  0.00    +0.000 C 
ATOM     13  O   UNL     1       5.175   2.743  19.267  0.00  0.00    +0.000 OA
ATOM     14  C   UNL     1       4.325   3.888  18.975  0.00  0.00    +0.000 C 
ATOM     15  C   UNL     1       5.114   5.146  19.360  0.00  0.00    +0.000 C 
ATOM     16  C   UNL     1       6.204   5.500  18.337  0.00  0.00    +0.000 C 
ATOM     17  C   UNL     1       5.667   5.558  16.897  0.00  0.00    +0.000 C 
ATOM     18  C   UNL     1       5.051   4.200  16.544  0.00  0.00    +0.000 C 
ATOM     19  C   UNL     1       3.912   3.829  17.496  0.00  0.00    +0.000 C 
ATOM     20  C   UNL     1       3.174   3.661  19.878  0.00  0.00    +0.000 A 
ATOM     21  C   UNL     1       1.985   4.330  20.033  0.00  0.00    +0.000 A 
ATOM     22  N   UNL     1       1.056   3.933  20.933  0.00  0.00    +0.000 NA
ATOM     23  C   UNL     1       1.339   2.849  21.703  0.00  0.00    +0.000 A 
ATOM     24  C   UNL     1       2.511   2.125  21.619  0.00  0.00    +0.000 A 
ATOM     25  C   UNL     1       3.412   2.570  20.674  0.00  0.00    +0.000 A 
ENDBRANCH   1  17
BRANCH   6  26
ATOM     26  C   UNL     1       0.315  10.056  19.374  0.00  0.00    +0.000 A 
ATOM     27  C   UNL     1      -0.722  10.642  18.638  0.00  0.00    +0.000 A 
ATOM     28  C   UNL     1      -1.734  11.358  19.281  0.00  0.00    +0.000 A 
ATOM     29  C   UNL     1      -1.721  11.490  20.667  0.00  0.00    +0.000 A 
ATOM     30  C   UNL     1      -0.710  10.891  21.414  0.00  0.00    +0.000 A 
ATOM     31  C   UNL     1       0.302  10.174  20.772  0.00  0.00    +0.000 A 
ENDBRANCH   6  26
TORSDOF 2
ENDMDL
MODEL 6
REMARK VINA RESULT:      -8.3      6.917     10.259
REMARK  Name = 
REMARK  2 active torsions:
REMARK  status: ('A' for Active; 'I' for Inactive)
REMARK    1  A    between atoms: C_7  and  C_8
REMARK    2  A    between atoms: C_13  and  C_14
REMARK                            x       y       z     vdW  Elec       q    Type
REMARK                         _______ _______ _______ _____ _____    ______ ____
ROOT
ATOM      1  C   UNL     1      -0.547  10.663  20.368  0.00  0.00    +0.000 C 
ATOM      2  O   UNL     1      -0.420  10.210  21.502  0.00  0.00    +0.000 OA
ATOM      3  N   UNL     1       0.073  10.182  19.233  0.00  0.00    +0.000 N 
ATOM      4  C   UNL     1       1.008   9.166  19.253  0.00  0.00    +0.000 A 
ATOM      5  C   UNL     1       1.625   8.617  18.106  0.00  0.00    +0.000 A 
ATOM      6  C   UNL     1       2.427   7.585  18.561  0.00  0.00    +0.000 A 
ATOM      7  N   UNL     1       2.287   7.622  19.922  0.00  0.00    +0.000 N 
ATOM      8  N   UNL     1       1.458   8.572  20.357  0.00  0.00    +0.000 NA
ATOM      9  H   UNL     1      -0.182  10.539  18.325  0.00  0.00    +0.000 HD
ATOM     10  H   UNL     1       2.727   7.025  20.614  0.00  0.00    +0.000 HD
ENDROOT
BRANCH   1  17
ATOM     11  O   UNL     1       0.144  17.383  18.421  0.00  0.00    +0.000 OA
ATOM     12  C   UNL     1       0.477  16.226  18.575  0.00  0.00    +0.000 C 
ATOM     13  O   UNL     1      -0.340  15.172  18.880  0.00  0.00    +0.000 OA
ATOM     14  C   UNL     1       0.410  13.949  19.124  0.00  0.00    +0.000 C 
ATOM     15  C   UNL     1       0.291  13.637  20.621  0.00  0.00    +0.000 C 
ATOM     16  C   UNL     1      -1.080  13.055  20.999  0.00  0.00    +0.000 C 
ATOM     17  C   UNL     1      -1.478  11.861  20.113  0.00  0.00    +0.000 C 
ATOM     18  C   UNL     1      -1.497  12.316  18.650  0.00  0.00    +0.000 C 
ATOM     19  C   UNL     1      -0.134  12.846  18.203  0.00  0.00    +0.000 C 
ATOM     20  C   UNL     1       1.787  14.347  18.752  0.00  0.00    +0.000 A 
ATOM     21  C   UNL     1       2.958  13.634  18.673  0.00  0.00    +0.000 A 
ATOM     22  N   UNL     1       4.121  14.213  18.295  0.00  0.00    +0.000 NA
ATOM     23  C   UNL     1       4.106  15.541  18.007  0.00  0.00    +0.000 A 
ATOM     24  C   UNL     1       2.978  16.335  18.069  0.00  0.00    +0.000 A 
ATOM     25  C   UNL     1       1.822  15.684  18.447  0.00  0.00    +0.000 A 
ENDBRANCH   1  17
BRANCH   6  26
ATOM     26  C   UNL     1       3.242   6.605  17.854  0.00  0.00    +0.000 A 
ATOM     27  C   UNL     1       2.971   5.237  17.984  0.00  0.00    +0.000 A 
ATOM     28  C   UNL     1       3.795   4.288  17.374  0.00  0.00    +0.000 A 
ATOM     29  C   UNL     1       4.894   4.699  16.624  0.00  0.00    +0.000 A 
ATOM     30  C   UNL     1       5.162   6.056  16.466  0.00  0.00    +0.000 A 
ATOM     31  C   UNL     1       4.338   7.006  17.075  0.00  0.00    +0.000 A 
ENDBRANCH   6  26
TORSDOF 2
ENDMDL
MODEL 7
REMARK VINA RESULT:      -8.2      7.930     10.595
REMARK  Name = 
REMARK  2 active torsions:
REMARK  status: ('A' for Active; 'I' for Inactive)
REMARK    1  A    between atoms: C_7  and  C_8
REMARK    2  A    between atoms: C_13  and  C_14
REMARK                            x       y       z     vdW  Elec       q    Type
REMARK                         _______ _______ _______ _____ _____    ______ ____
ROOT
ATOM      1  C   UNL     1       0.840  11.144  19.684  0.00  0.00    +0.000 C 
ATOM      2  O   UNL     1       0.649  10.850  20.861  0.00  0.00    +0.000 OA
ATOM      3  N   UNL     1       1.313  10.292  18.707  0.00  0.00    +0.000 N 
ATOM      4  C   UNL     1       1.728   9.001  18.963  0.00  0.00    +0.000 A 
ATOM      5  C   UNL     1       2.171   8.087  17.978  0.00  0.00    +0.000 A 
ATOM      6  C   UNL     1       2.415   6.898  18.644  0.00  0.00    +0.000 A 
ATOM      7  N   UNL     1       2.165   7.188  19.958  0.00  0.00    +0.000 N 
ATOM      8  N   UNL     1       1.772   8.444  20.172  0.00  0.00    +0.000 NA
ATOM      9  H   UNL     1       1.325  10.584  17.741  0.00  0.00    +0.000 HD
ATOM     10  H   UNL     1       2.241   6.573  20.760  0.00  0.00    +0.000 HD
ENDROOT
BRANCH   1  17
ATOM     11  O   UNL     1      -3.905  16.151  21.044  0.00  0.00    +0.000 OA
ATOM     12  C   UNL     1      -3.265  15.138  21.237  0.00  0.00    +0.000 C 
ATOM     13  O   UNL     1      -2.138  14.740  20.571  0.00  0.00    +0.000 OA
ATOM     14  C   UNL     1      -1.707  13.408  20.969  0.00  0.00    +0.000 C 
ATOM     15  C   UNL     1      -1.957  12.477  19.776  0.00  0.00    +0.000 C 
ATOM     16  C   UNL     1      -0.916  12.649  18.659  0.00  0.00    +0.000 C 
ATOM     17  C   UNL     1       0.529  12.564  19.181  0.00  0.00    +0.000 C 
ATOM     18  C   UNL     1       0.733  13.646  20.247  0.00  0.00    +0.000 C 
ATOM     19  C   UNL     1      -0.239  13.480  21.417  0.00  0.00    +0.000 C 
ATOM     20  C   UNL     1      -2.614  13.110  22.101  0.00  0.00    +0.000 A 
ATOM     21  C   UNL     1      -2.676  12.050  22.971  0.00  0.00    +0.000 A 
ATOM     22  N   UNL     1      -3.602  11.990  23.956  0.00  0.00    +0.000 NA
ATOM     23  C   UNL     1      -4.494  13.010  24.053  0.00  0.00    +0.000 A 
ATOM     24  C   UNL     1      -4.509  14.108  23.216  0.00  0.00    +0.000 A 
ATOM     25  C   UNL     1      -3.532  14.118  22.243  0.00  0.00    +0.000 A 
ENDBRANCH   1  17
BRANCH   6  26
ATOM     26  C   UNL     1       2.810   5.580  18.162  0.00  0.00    +0.000 A 
ATOM     27  C   UNL     1       1.856   4.564  18.026  0.00  0.00    +0.000 A 
ATOM     28  C   UNL     1       2.239   3.277  17.642  0.00  0.00    +0.000 A 
ATOM     29  C   UNL     1       3.578   2.995  17.385  0.00  0.00    +0.000 A 
ATOM     30  C   UNL     1       4.534   4.003  17.492  0.00  0.00    +0.000 A 
ATOM     31  C   UNL     1       4.152   5.290  17.875  0.00  0.00    +0.000 A 
ENDBRANCH   6  26
TORSDOF 2
ENDMDL
MODEL 8
REMARK VINA RESULT:      -8.0      7.508     11.003
REMARK  Name = 
REMARK  2 active torsions:
REMARK  status: ('A' for Active; 'I' for Inactive)
REMARK    1  A    between atoms: C_7  and  C_8
REMARK    2  A    between atoms: C_13  and  C_14
REMARK                            x       y       z     vdW  Elec       q    Type
REMARK                         _______ _______ _______ _____ _____    ______ ____
ROOT
ATOM      1  C   UNL     1      -0.703  11.878  21.993  0.00  0.00    +0.000 C 
ATOM      2  O   UNL     1      -0.388  11.688  23.165  0.00  0.00    +0.000 OA
ATOM      3  N   UNL     1      -0.377  11.063  20.928  0.00  0.00    +0.000 N 
ATOM      4  C   UNL     1       0.443   9.959  21.043  0.00  0.00    +0.000 A 
ATOM      5  C   UNL     1       0.758   9.076  19.983  0.00  0.00    +0.000 A 
ATOM      6  C   UNL     1       1.537   8.076  20.539  0.00  0.00    +0.000 A 
ATOM      7  N   UNL     1       1.683   8.448  21.848  0.00  0.00    +0.000 N 
ATOM      8  N   UNL     1       1.054   9.580  22.164  0.00  0.00    +0.000 NA
ATOM      9  H   UNL     1      -0.778  11.231  20.019  0.00  0.00    +0.000 HD
ATOM     10  H   UNL     1       2.198   7.973  22.581  0.00  0.00    +0.000 HD
ENDROOT
BRANCH   1  17
ATOM     11  O   UNL     1       0.211  17.816  18.342  0.00  0.00    +0.000 OA
ATOM     12  C   UNL     1       0.459  16.691  18.722  0.00  0.00    +0.000 C 
ATOM     13  O   UNL     1      -0.376  15.856  19.414  0.00  0.00    +0.000 OA
ATOM     14  C   UNL     1       0.291  14.630  19.825  0.00  0.00    +0.000 C 
ATOM     15  C   UNL     1       0.440  14.687  21.351  0.00  0.00    +0.000 C 
ATOM     16  C   UNL     1      -0.876  14.400  22.088  0.00  0.00    +0.000 C 
ATOM     17  C   UNL     1      -1.551  13.102  21.609  0.00  0.00    +0.000 C 
ATOM     18  C   UNL     1      -1.816  13.211  20.103  0.00  0.00    +0.000 C 
ATOM     19  C   UNL     1      -0.524  13.432  19.314  0.00  0.00    +0.000 C 
ATOM     20  C   UNL     1       1.599  14.739  19.138  0.00  0.00    +0.000 A 
ATOM     21  C   UNL     1       2.659  13.873  19.044  0.00  0.00    +0.000 A 
ATOM     22  N   UNL     1       3.773  14.184  18.342  0.00  0.00    +0.000 NA
ATOM     23  C   UNL     1       3.826  15.401  17.738  0.00  0.00    +0.000 A 
ATOM     24  C   UNL     1       2.810  16.335  17.790  0.00  0.00    +0.000 A 
ATOM     25  C   UNL     1       1.696  15.953  18.508  0.00  0.00    +0.000 A 
ENDBRANCH   1  17
BRANCH   6  26
ATOM     26  C   UNL     1       2.094   6.853  19.975  0.00  0.00    +0.000 A 
ATOM     27  C   UNL     1       2.775   6.887  18.752  0.00  0.00    +0.000 A 
ATOM     28  C   UNL     1       3.242   5.708  18.165  0.00  0.00    +0.000 A 
ATOM     29  C   UNL     1       3.037   4.486  18.799  0.00  0.00    +0.000 A 
ATOM     30  C   UNL     1       2.383   4.439  20.027  0.00  0.00    +0.000 A 
ATOM     31  C   UNL     1       1.916   5.617  20.615  0.00  0.00    +0.000 A 
ENDBRANCH   6  26
TORSDOF 2
ENDMDL
MODEL 9
REMARK VINA RESULT:      -8.0      7.327     10.767
REMARK  Name = 
REMARK  2 active torsions:
REMARK  status: ('A' for Active; 'I' for Inactive)
REMARK    1  A    between atoms: C_7  and  C_8
REMARK    2  A    between atoms: C_13  and  C_14
REMARK                            x       y       z     vdW  Elec       q    Type
REMARK                         _______ _______ _______ _____ _____    ______ ____
ROOT
ATOM      1  C   UNL     1      -0.636  11.460  21.984  0.00  0.00    +0.000 C 
ATOM      2  O   UNL     1      -0.398  11.111  23.138  0.00  0.00    +0.000 OA
ATOM      3  N   UNL     1      -0.220  10.805  20.842  0.00  0.00    +0.000 N 
ATOM      4  C   UNL     1       0.614   9.705  20.860  0.00  0.00    +0.000 A 
ATOM      5  C   UNL     1       1.019   8.983  19.714  0.00  0.00    +0.000 A 
ATOM      6  C   UNL     1       1.780   7.924  20.180  0.00  0.00    +0.000 A 
ATOM      7  N   UNL     1       1.828   8.111  21.535  0.00  0.00    +0.000 N 
ATOM      8  N   UNL     1       1.154   9.181  21.959  0.00  0.00    +0.000 NA
ATOM      9  H   UNL     1      -0.561  11.094  19.939  0.00  0.00    +0.000 HD
ATOM     10  H   UNL     1       2.301   7.544  22.229  0.00  0.00    +0.000 HD
ENDROOT
BRANCH   1  17
ATOM     11  O   UNL     1       0.227  17.626  18.719  0.00  0.00    +0.000 OA
ATOM     12  C   UNL     1       0.473  16.475  19.012  0.00  0.00    +0.000 C 
ATOM     13  O   UNL     1      -0.348  15.603  19.674  0.00  0.00    +0.000 OA
ATOM     14  C   UNL     1       0.318  14.344  19.977  0.00  0.00    +0.000 C 
ATOM     15  C   UNL     1       0.520  14.295  21.497  0.00  0.00    +0.000 C 
ATOM     16  C   UNL     1      -0.775  13.971  22.257  0.00  0.00    +0.000 C 
ATOM     17  C   UNL     1      -1.481  12.716  21.714  0.00  0.00    +0.000 C 
ATOM     18  C   UNL     1      -1.795  12.930  20.229  0.00  0.00    +0.000 C 
ATOM     19  C   UNL     1      -0.528  13.192  19.413  0.00  0.00    +0.000 C 
ATOM     20  C   UNL     1       1.603  14.488  19.254  0.00  0.00    +0.000 A 
ATOM     21  C   UNL     1       2.649  13.620  19.064  0.00  0.00    +0.000 A 
ATOM     22  N   UNL     1       3.742  13.968  18.347  0.00  0.00    +0.000 NA
ATOM     23  C   UNL     1       3.789  15.223  17.827  0.00  0.00    +0.000 A 
ATOM     24  C   UNL     1       2.787  16.161  17.978  0.00  0.00    +0.000 A 
ATOM     25  C   UNL     1       1.694  15.742  18.706  0.00  0.00    +0.000 A 
ENDBRANCH   1  17
BRANCH   6  26
ATOM     26  C   UNL     1       2.400   6.799  19.492  0.00  0.00    +0.000 A 
ATOM     27  C   UNL     1       2.393   5.525  20.074  0.00  0.00    +0.000 A 
ATOM     28  C   UNL     1       3.053   4.459  19.459  0.00  0.00    +0.000 A 
ATOM     29  C   UNL     1       3.723   4.655  18.254  0.00  0.00    +0.000 A 
ATOM     30  C   UNL     1       3.718   5.911  17.651  0.00  0.00    +0.000 A 
ATOM     31  C   UNL     1       3.057   6.977  18.265  0.00  0.00    +0.000 A 
ENDBRANCH   6  26
TORSDOF 2
ENDMDL
