MODEL 1
REMARK VINA RESULT:      -7.6      0.000      0.000
REMARK  Name = 
REMARK  12 active torsions:
REMARK  status: ('A' for Active; 'I' for Inactive)
REMARK    1  A    between atoms: C_1  and  C_2
REMARK    2  A    between atoms: C_2  and  C_3
REMARK    3  A    between atoms: C_3  and  N_4
REMARK    4  A    between atoms: N_4  and  C_5
REMARK    5  A    between atoms: C_5  and  C_6
REMARK    6  A    between atoms: C_11  and  C_13
REMARK    7  A    between atoms: C_18  and  O_19
REMARK    8  A    between atoms: O_19  and  C_20
REMARK    9  A    between atoms: C_20  and  C_21
REMARK   10  A    between atoms: C_21  and  C_22
REMARK   11  A    between atoms: C_22  and  O_23
REMARK   12  A    between atoms: O_23  and  N_24
REMARK                            x       y       z     vdW  Elec       q    Type
REMARK                         _______ _______ _______ _____ _____    ______ ____
ROOT
ATOM      1  C   UNL     1       4.958   4.113  17.418  0.00  0.00    +0.000 A 
ATOM      2  C   UNL     1       4.814   3.750  16.081  0.00  0.00    +0.000 A 
ATOM      3  C   UNL     1       5.638   4.330  15.117  0.00  0.00    +0.000 A 
ATOM      4 CL   UNL     1       5.415   3.935  13.458  0.00  0.00    +0.000 Cl
ATOM      5  C   UNL     1       6.639   5.229  15.483  0.00  0.00    +0.000 A 
ATOM      6  C   UNL     1       6.841   5.545  16.825  0.00  0.00    +0.000 A 
ATOM      7  C   UNL     1       5.992   5.000  17.788  0.00  0.00    +0.000 A 
ENDROOT
BRANCH   1   9
ATOM      8  N   UNL     1       3.499   4.308  19.497  0.00  0.00    +0.000 N 
ATOM      9  C   UNL     1       4.140   3.521  18.516  0.00  0.00    +0.000 C 
ATOM     10  O   UNL     1       4.083   2.290  18.518  0.00  0.00    +0.000 OA
BRANCH   8  11
ATOM     11  C   UNL     1       2.733   3.564  20.516  0.00  0.00    +0.000 C 
BRANCH  11  13
ATOM     12  C   UNL     1       0.697   2.823  19.148  0.00  0.00    +0.000 C 
ATOM     13  C   UNL     1       1.205   3.523  20.392  0.00  0.00    +0.000 C 
ENDBRANCH  11  13
ENDBRANCH   8  11
BRANCH   8  14
ATOM     14  C   UNL     1       3.703   5.764  19.637  0.00  0.00    +0.000 C 
BRANCH  14  15
ATOM     15  C   UNL     1       2.685   6.691  18.970  0.00  0.00    +0.000 C 
ATOM     16  C   UNL     1       2.051   7.738  19.882  0.00  0.00    +0.000 C 
ATOM     17  C   UNL     1       1.331   8.635  18.882  0.00  0.00    +0.000 C 
ATOM     18  C   UNL     1       2.225   8.649  17.639  0.00  0.00    +0.000 C 
ATOM     19  C   UNL     1       3.303   7.594  17.893  0.00  0.00    +0.000 C 
ENDBRANCH  14  15
ENDBRANCH   8  14
ENDBRANCH   1   9
BRANCH   6  20
ATOM     20  O   UNL     1       7.871   6.415  17.062  0.00  0.00    +0.000 OA
BRANCH  20  21
ATOM     21  C   UNL     1       7.740   7.281  18.192  0.00  0.00    +0.000 C 
BRANCH  21  22
ATOM     22  C   UNL     1       8.147   8.692  17.767  0.00  0.00    +0.000 C 
BRANCH  22  23
ATOM     23  C   UNL     1       8.885   9.437  18.877  0.00  0.00    +0.000 C 
BRANCH  23  24
ATOM     24  O   UNL     1       8.983  10.820  18.530  0.00  0.00    +0.000 OA
BRANCH  24  25
ATOM     25  N   UNL     1      10.097  10.983  17.693  0.00  0.00    +0.000 NA
ATOM     26  C   UNL     1      10.964  11.776  18.230  0.00  0.00    +0.000 C 
ATOM     27  N   UNL     1      10.837  12.413  19.420  0.00  0.00    +0.000 N 
ATOM     28  N   UNL     1      12.117  12.089  17.596  0.00  0.00    +0.000 N 
ATOM     29  H   UNL     1      10.039  12.050  19.936  0.00  0.00    +0.000 HD
ATOM     30  H   UNL     1      11.669  12.491  19.981  0.00  0.00    +0.000 HD
ATOM     31  H   UNL     1      12.268  11.505  16.782  0.00  0.00    +0.000 HD
ATOM     32  H   UNL     1      12.937  12.183  18.173  0.00  0.00    +0.000 HD
ENDBRANCH  24  25
ENDBRANCH  23  24
ENDBRANCH  22  23
ENDBRANCH  21  22
ENDBRANCH  20  21
ENDBRANCH   6  20
TORSDOF 11
ENDMDL
MODEL 2
REMARK VINA RESULT:      -7.5      4.416      7.460
REMARK  Name = 
REMARK  12 active torsions:
REMARK  status: ('A' for Active; 'I' for Inactive)
REMARK    1  A    between atoms: C_1  and  C_2
REMARK    2  A    between atoms: C_2  and  C_3
REMARK    3  A    between atoms: C_3  and  N_4
REMARK    4  A    between atoms: N_4  and  C_5
REMARK    5  A    between atoms: C_5  and  C_6
REMARK    6  A    between atoms: C_11  and  C_13
REMARK    7  A    between atoms: C_18  and  O_19
REMARK    8  A    between atoms: O_19  and  C_20
REMARK    9  A    between atoms: C_20  and  C_21
REMARK   10  A    between atoms: C_21  and  C_22
REMARK   11  A    between atoms: C_22  and  O_23
REMARK   12  A    between atoms: O_23  and  N_24
REMARK                            x       y       z     vdW  Elec       q    Type
REMARK                         _______ _______ _______ _____ _____    ______ ____
ROOT
ATOM      1  C   UNL     1       3.165   4.491  18.534  0.00  0.00    +0.000 A 
ATOM      2  C   UNL     1       2.596   3.583  19.425  0.00  0.00    +0.000 A 
ATOM      3  C   UNL     1       1.946   4.053  20.566  0.00  0.00    +0.000 A 
ATOM      4 CL   UNL     1       1.305   2.932  21.702  0.00  0.00    +0.000 Cl
ATOM      5  C   UNL     1       1.813   5.422  20.797  0.00  0.00    +0.000 A 
ATOM      6  C   UNL     1       2.313   6.340  19.877  0.00  0.00    +0.000 A 
ATOM      7  C   UNL     1       3.001   5.875  18.756  0.00  0.00    +0.000 A 
ENDROOT
BRANCH   1   9
ATOM      8  N   UNL     1       5.257   4.040  17.154  0.00  0.00    +0.000 N 
ATOM      9  C   UNL     1       3.852   4.077  17.276  0.00  0.00    +0.000 C 
ATOM     10  O   UNL     1       3.101   3.791  16.342  0.00  0.00    +0.000 OA
BRANCH   8  11
ATOM     11  C   UNL     1       5.775   3.612  15.839  0.00  0.00    +0.000 C 
BRANCH  11  13
ATOM     12  C   UNL     1       6.806   4.416  13.636  0.00  0.00    +0.000 C 
ATOM     13  C   UNL     1       5.720   4.608  14.675  0.00  0.00    +0.000 C 
ENDBRANCH  11  13
ENDBRANCH   8  11
BRANCH   8  14
ATOM     14  C   UNL     1       6.181   4.558  18.184  0.00  0.00    +0.000 C 
BRANCH  14  15
ATOM     15  C   UNL     1       7.077   5.738  17.805  0.00  0.00    +0.000 C 
ATOM     16  C   UNL     1       6.350   6.985  17.311  0.00  0.00    +0.000 C 
ATOM     17  C   UNL     1       7.470   8.019  17.290  0.00  0.00    +0.000 C 
ATOM     18  C   UNL     1       8.367   7.661  18.478  0.00  0.00    +0.000 C 
ATOM     19  C   UNL     1       7.851   6.318  18.997  0.00  0.00    +0.000 C 
ENDBRANCH  14  15
ENDBRANCH   8  14
ENDBRANCH   1   9
BRANCH   6  20
ATOM     20  O   UNL     1       2.096   7.653  20.198  0.00  0.00    +0.000 OA
BRANCH  20  21
ATOM     21  C   UNL     1       1.039   7.927  21.120  0.00  0.00    +0.000 C 
BRANCH  21  22
ATOM     22  C   UNL     1       0.799   9.437  21.143  0.00  0.00    +0.000 C 
BRANCH  22  23
ATOM     23  C   UNL     1       0.590  10.008  19.743  0.00  0.00    +0.000 C 
BRANCH  23  24
ATOM     24  O   UNL     1      -0.809  10.046  19.454  0.00  0.00    +0.000 OA
BRANCH  24  25
ATOM     25  N   UNL     1      -0.968  10.394  18.104  0.00  0.00    +0.000 NA
ATOM     26  C   UNL     1      -1.639  11.492  17.989  0.00  0.00    +0.000 C 
ATOM     27  N   UNL     1      -2.167  12.218  19.005  0.00  0.00    +0.000 N 
ATOM     28  N   UNL     1      -1.925  12.016  16.775  0.00  0.00    +0.000 N 
ATOM     29  H   UNL     1      -1.817  11.888  19.900  0.00  0.00    +0.000 HD
ATOM     30  H   UNL     1      -2.128  13.220  18.910  0.00  0.00    +0.000 HD
ATOM     31  H   UNL     1      -1.411  11.550  16.036  0.00  0.00    +0.000 HD
ATOM     32  H   UNL     1      -1.902  13.020  16.701  0.00  0.00    +0.000 HD
ENDBRANCH  24  25
ENDBRANCH  23  24
ENDBRANCH  22  23
ENDBRANCH  21  22
ENDBRANCH  20  21
ENDBRANCH   6  20
TORSDOF 11
ENDMDL
MODEL 3
REMARK VINA RESULT:      -7.4      1.185      1.495
REMARK  Name = 
REMARK  12 active torsions:
REMARK  status: ('A' for Active; 'I' for Inactive)
REMARK    1  A    between atoms: C_1  and  C_2
REMARK    2  A    between atoms: C_2  and  C_3
REMARK    3  A    between atoms: C_3  and  N_4
REMARK    4  A    between atoms: N_4  and  C_5
REMARK    5  A    between atoms: C_5  and  C_6
REMARK    6  A    between atoms: C_11  and  C_13
REMARK    7  A    between atoms: C_18  and  O_19
REMARK    8  A    between atoms: O_19  and  C_20
REMARK    9  A    between atoms: C_20  and  C_21
REMARK   10  A    between atoms: C_21  and  C_22
REMARK   11  A    between atoms: C_22  and  O_23
REMARK   12  A    between atoms: O_23  and  N_24
REMARK                            x       y       z     vdW  Elec       q    Type
REMARK                         _______ _______ _______ _____ _____    ______ ____
ROOT
ATOM      1  C   UNL     1       4.753   4.385  17.219  0.00  0.00    +0.000 A 
ATOM      2  C   UNL     1       4.820   3.909  15.911  0.00  0.00    +0.000 A 
ATOM      3  C   UNL     1       5.922   4.226  15.118  0.00  0.00    +0.000 A 
ATOM      4 CL   UNL     1       5.972   3.697  13.482  0.00  0.00    +0.000 Cl
ATOM      5  C   UNL     1       6.983   4.967  15.636  0.00  0.00    +0.000 A 
ATOM      6  C   UNL     1       6.962   5.387  16.964  0.00  0.00    +0.000 A 
ATOM      7  C   UNL     1       5.844   5.110  17.748  0.00  0.00    +0.000 A 
ENDROOT
BRANCH   1   9
ATOM      8  N   UNL     1       2.850   5.073  18.765  0.00  0.00    +0.000 N 
ATOM      9  C   UNL     1       3.627   4.072  18.145  0.00  0.00    +0.000 C 
ATOM     10  O   UNL     1       3.438   2.871  18.347  0.00  0.00    +0.000 OA
BRANCH   8  11
ATOM     11  C   UNL     1       1.776   4.592  19.657  0.00  0.00    +0.000 C 
BRANCH  11  13
ATOM     12  C   UNL     1       1.823   2.934  21.609  0.00  0.00    +0.000 C 
ATOM     13  C   UNL     1       2.111   4.343  21.132  0.00  0.00    +0.000 C 
ENDBRANCH  11  13
ENDBRANCH   8  11
BRANCH   8  14
ATOM     14  C   UNL     1       3.170   6.514  18.698  0.00  0.00    +0.000 C 
BRANCH  14  15
ATOM     15  C   UNL     1       2.003   7.503  18.735  0.00  0.00    +0.000 C 
ATOM     16  C   UNL     1       1.813   8.248  20.053  0.00  0.00    +0.000 C 
ATOM     17  C   UNL     1       0.788   9.310  19.672  0.00  0.00    +0.000 C 
ATOM     18  C   UNL     1       1.122   9.689  18.227  0.00  0.00    +0.000 C 
ATOM     19  C   UNL     1       2.178   8.683  17.768  0.00  0.00    +0.000 C 
ENDBRANCH  14  15
ENDBRANCH   8  14
ENDBRANCH   1   9
BRANCH   6  20
ATOM     20  O   UNL     1       8.072   6.081  17.365  0.00  0.00    +0.000 OA
BRANCH  20  21
ATOM     21  C   UNL     1       7.886   7.072  18.378  0.00  0.00    +0.000 C 
BRANCH  21  22
ATOM     22  C   UNL     1       7.941   8.451  17.720  0.00  0.00    +0.000 C 
BRANCH  22  23
ATOM     23  C   UNL     1       8.688   9.468  18.578  0.00  0.00    +0.000 C 
BRANCH  23  24
ATOM     24  O   UNL     1       8.940  10.642  17.803  0.00  0.00    +0.000 OA
BRANCH  24  25
ATOM     25  N   UNL     1       9.291  11.679  18.681  0.00  0.00    +0.000 NA
ATOM     26  C   UNL     1       8.818  12.809  18.271  0.00  0.00    +0.000 C 
ATOM     27  N   UNL     1       8.108  13.014  17.135  0.00  0.00    +0.000 N 
ATOM     28  N   UNL     1       9.042  13.954  18.956  0.00  0.00    +0.000 N 
ATOM     29  H   UNL     1       7.831  12.128  16.721  0.00  0.00    +0.000 HD
ATOM     30  H   UNL     1       7.353  13.678  17.190  0.00  0.00    +0.000 HD
ATOM     31  H   UNL     1       9.447  13.773  19.867  0.00  0.00    +0.000 HD
ATOM     32  H   UNL     1       8.284  14.617  18.985  0.00  0.00    +0.000 HD
ENDBRANCH  24  25
ENDBRANCH  23  24
ENDBRANCH  22  23
ENDBRANCH  21  22
ENDBRANCH  20  21
ENDBRANCH   6  20
TORSDOF 11
ENDMDL
MODEL 4
REMARK VINA RESULT:      -7.2      1.443      1.798
REMARK  Name = 
REMARK  12 active torsions:
REMARK  status: ('A' for Active; 'I' for Inactive)
REMARK    1  A    between atoms: C_1  and  C_2
REMARK    2  A    between atoms: C_2  and  C_3
REMARK    3  A    between atoms: C_3  and  N_4
REMARK    4  A    between atoms: N_4  and  C_5
REMARK    5  A    between atoms: C_5  and  C_6
REMARK    6  A    between atoms: C_11  and  C_13
REMARK    7  A    between atoms: C_18  and  O_19
REMARK    8  A    between atoms: O_19  and  C_20
REMARK    9  A    between atoms: C_20  and  C_21
REMARK   10  A    between atoms: C_21  and  C_22
REMARK   11  A    between atoms: C_22  and  O_23
REMARK   12  A    between atoms: O_23  and  N_24
REMARK                            x       y       z     vdW  Elec       q    Type
REMARK                         _______ _______ _______ _____ _____    ______ ____
ROOT
ATOM      1  C   UNL     1       5.618   4.438  18.126  0.00  0.00    +0.000 A 
ATOM      2  C   UNL     1       5.734   4.292  16.745  0.00  0.00    +0.000 A 
ATOM      3  C   UNL     1       6.566   5.153  16.029  0.00  0.00    +0.000 A 
ATOM      4 CL   UNL     1       6.657   5.018  14.317  0.00  0.00    +0.000 Cl
ATOM      5  C   UNL     1       7.323   6.121  16.686  0.00  0.00    +0.000 A 
ATOM      6  C   UNL     1       7.271   6.230  18.074  0.00  0.00    +0.000 A 
ATOM      7  C   UNL     1       6.409   5.401  18.790  0.00  0.00    +0.000 A 
ENDROOT
BRANCH   1   9
ATOM      8  N   UNL     1       3.364   3.586  18.951  0.00  0.00    +0.000 N 
ATOM      9  C   UNL     1       4.775   3.545  18.972  0.00  0.00    +0.000 C 
ATOM     10  O   UNL     1       5.401   2.782  19.709  0.00  0.00    +0.000 OA
BRANCH   8  11
ATOM     11  C   UNL     1       2.681   2.637  19.853  0.00  0.00    +0.000 C 
BRANCH  11  13
ATOM     12  C   UNL     1       1.143   2.688  21.901  0.00  0.00    +0.000 C 
ATOM     13  C   UNL     1       1.322   3.037  20.438  0.00  0.00    +0.000 C 
ENDBRANCH  11  13
ENDBRANCH   8  11
BRANCH   8  14
ATOM     14  C   UNL     1       2.587   4.613  18.228  0.00  0.00    +0.000 C 
BRANCH  14  15
ATOM     15  C   UNL     1       2.727   6.065  18.689  0.00  0.00    +0.000 C 
ATOM     16  C   UNL     1       2.089   7.110  17.778  0.00  0.00    +0.000 C 
ATOM     17  C   UNL     1       2.163   8.367  18.637  0.00  0.00    +0.000 C 
ATOM     18  C   UNL     1       1.959   7.883  20.075  0.00  0.00    +0.000 C 
ATOM     19  C   UNL     1       1.994   6.356  20.007  0.00  0.00    +0.000 C 
ENDBRANCH  14  15
ENDBRANCH   8  14
ENDBRANCH   1   9
BRANCH   6  20
ATOM     20  O   UNL     1       8.080   7.197  18.606  0.00  0.00    +0.000 OA
BRANCH  20  21
ATOM     21  C   UNL     1       8.095   8.465  17.946  0.00  0.00    +0.000 C 
BRANCH  21  22
ATOM     22  C   UNL     1       8.816   9.470  18.845  0.00  0.00    +0.000 C 
BRANCH  22  23
ATOM     23  C   UNL     1       9.387  10.644  18.054  0.00  0.00    +0.000 C 
BRANCH  23  24
ATOM     24  O   UNL     1       9.094  11.861  18.743  0.00  0.00    +0.000 OA
BRANCH  24  25
ATOM     25  N   UNL     1       8.947  12.879  17.788  0.00  0.00    +0.000 NA
ATOM     26  C   UNL     1       9.800  13.828  17.993  0.00  0.00    +0.000 C 
ATOM     27  N   UNL     1      10.705  13.887  19.001  0.00  0.00    +0.000 N 
ATOM     28  N   UNL     1       9.836  14.922  17.199  0.00  0.00    +0.000 N 
ATOM     29  H   UNL     1      10.756  12.997  19.488  0.00  0.00    +0.000 HD
ATOM     30  H   UNL     1      11.609  14.266  18.773  0.00  0.00    +0.000 HD
ATOM     31  H   UNL     1       9.260  14.806  16.373  0.00  0.00    +0.000 HD
ATOM     32  H   UNL     1      10.747  15.302  16.996  0.00  0.00    +0.000 HD
ENDBRANCH  24  25
ENDBRANCH  23  24
ENDBRANCH  22  23
ENDBRANCH  21  22
ENDBRANCH  20  21
ENDBRANCH   6  20
TORSDOF 11
ENDMDL
MODEL 5
REMARK VINA RESULT:      -7.2      1.108      1.322
REMARK  Name = 
REMARK  12 active torsions:
REMARK  status: ('A' for Active; 'I' for Inactive)
REMARK    1  A    between atoms: C_1  and  C_2
REMARK    2  A    between atoms: C_2  and  C_3
REMARK    3  A    between atoms: C_3  and  N_4
REMARK    4  A    between atoms: N_4  and  C_5
REMARK    5  A    between atoms: C_5  and  C_6
REMARK    6  A    between atoms: C_11  and  C_13
REMARK    7  A    between atoms: C_18  and  O_19
REMARK    8  A    between atoms: O_19  and  C_20
REMARK    9  A    between atoms: C_20  and  C_21
REMARK   10  A    between atoms: C_21  and  C_22
REMARK   11  A    between atoms: C_22  and  O_23
REMARK   12  A    between atoms: O_23  and  N_24
REMARK                            x       y       z     vdW  Elec       q    Type
REMARK                         _______ _______ _______ _____ _____    ______ ____
ROOT
ATOM      1  C   UNL     1       5.082   4.908  17.628  0.00  0.00    +0.000 A 
ATOM      2  C   UNL     1       5.049   4.211  16.422  0.00  0.00    +0.000 A 
ATOM      3  C   UNL     1       5.927   4.564  15.397  0.00  0.00    +0.000 A 
ATOM      4 CL   UNL     1       5.839   3.751  13.885  0.00  0.00    +0.000 Cl
ATOM      5  C   UNL     1       6.873   5.571  15.586  0.00  0.00    +0.000 A 
ATOM      6  C   UNL     1       6.965   6.226  16.812  0.00  0.00    +0.000 A 
ATOM      7  C   UNL     1       6.062   5.906  17.825  0.00  0.00    +0.000 A 
ENDROOT
BRANCH   1   9
ATOM      8  N   UNL     1       3.357   5.531  19.395  0.00  0.00    +0.000 N 
ATOM      9  C   UNL     1       4.201   4.578  18.785  0.00  0.00    +0.000 C 
ATOM     10  O   UNL     1       4.280   3.415  19.186  0.00  0.00    +0.000 OA
BRANCH   8  11
ATOM     11  C   UNL     1       2.552   5.040  20.532  0.00  0.00    +0.000 C 
BRANCH  11  13
ATOM     12  C   UNL     1       1.158   2.952  21.041  0.00  0.00    +0.000 C 
ATOM     13  C   UNL     1       1.288   4.227  20.233  0.00  0.00    +0.000 C 
ENDBRANCH  11  13
ENDBRANCH   8  11
BRANCH   8  14
ATOM     14  C   UNL     1       3.379   6.971  19.067  0.00  0.00    +0.000 C 
BRANCH  14  15
ATOM     15  C   UNL     1       2.037   7.699  18.973  0.00  0.00    +0.000 C 
ATOM     16  C   UNL     1       1.699   8.612  20.148  0.00  0.00    +0.000 C 
ATOM     17  C   UNL     1       0.481   9.364  19.625  0.00  0.00    +0.000 C 
ATOM     18  C   UNL     1       0.733   9.542  18.126  0.00  0.00    +0.000 C 
ATOM     19  C   UNL     1       1.970   8.700  17.811  0.00  0.00    +0.000 C 
ENDBRANCH  14  15
ENDBRANCH   8  14
ENDBRANCH   1   9
BRANCH   6  20
ATOM     20  O   UNL     1       7.950   7.173  16.885  0.00  0.00    +0.000 OA
BRANCH  20  21
ATOM     21  C   UNL     1       7.641   8.377  17.589  0.00  0.00    +0.000 C 
BRANCH  21  22
ATOM     22  C   UNL     1       8.670   8.563  18.704  0.00  0.00    +0.000 C 
BRANCH  22  23
ATOM     23  C   UNL     1       8.970  10.036  18.972  0.00  0.00    +0.000 C 
BRANCH  23  24
ATOM     24  O   UNL     1       9.420  10.650  17.762  0.00  0.00    +0.000 OA
BRANCH  24  25
ATOM     25  N   UNL     1       9.087  12.013  17.814  0.00  0.00    +0.000 NA
ATOM     26  C   UNL     1      10.108  12.747  17.514  0.00  0.00    +0.000 C 
ATOM     27  N   UNL     1      11.354  12.303  17.219  0.00  0.00    +0.000 N 
ATOM     28  N   UNL     1      10.024  14.097  17.510  0.00  0.00    +0.000 N 
ATOM     29  H   UNL     1      11.353  11.295  17.087  0.00  0.00    +0.000 HD
ATOM     30  H   UNL     1      11.849  12.797  16.494  0.00  0.00    +0.000 HD
ATOM     31  H   UNL     1       9.064  14.413  17.590  0.00  0.00    +0.000 HD
ATOM     32  H   UNL     1      10.540  14.578  16.791  0.00  0.00    +0.000 HD
ENDBRANCH  24  25
ENDBRANCH  23  24
ENDBRANCH  22  23
ENDBRANCH  21  22
ENDBRANCH  20  21
ENDBRANCH   6  20
TORSDOF 11
ENDMDL
MODEL 6
REMARK VINA RESULT:      -7.1      1.044      1.169
REMARK  Name = 
REMARK  12 active torsions:
REMARK  status: ('A' for Active; 'I' for Inactive)
REMARK    1  A    between atoms: C_1  and  C_2
REMARK    2  A    between atoms: C_2  and  C_3
REMARK    3  A    between atoms: C_3  and  N_4
REMARK    4  A    between atoms: N_4  and  C_5
REMARK    5  A    between atoms: C_5  and  C_6
REMARK    6  A    between atoms: C_11  and  C_13
REMARK    7  A    between atoms: C_18  and  O_19
REMARK    8  A    between atoms: O_19  and  C_20
REMARK    9  A    between atoms: C_20  and  C_21
REMARK   10  A    between atoms: C_21  and  C_22
REMARK   11  A    between atoms: C_22  and  O_23
REMARK   12  A    between atoms: O_23  and  N_24
REMARK                            x       y       z     vdW  Elec       q    Type
REMARK                         _______ _______ _______ _____ _____    ______ ____
ROOT
ATOM      1  C   UNL     1       4.932   4.241  17.154  0.00  0.00    +0.000 A 
ATOM      2  C   UNL     1       4.855   3.785  15.839  0.00  0.00    +0.000 A 
ATOM      3  C   UNL     1       5.713   4.314  14.876  0.00  0.00    +0.000 A 
ATOM      4 CL   UNL     1       5.573   3.804  13.240  0.00  0.00    +0.000 Cl
ATOM      5  C   UNL     1       6.682   5.254  15.224  0.00  0.00    +0.000 A 
ATOM      6  C   UNL     1       6.817   5.664  16.549  0.00  0.00    +0.000 A 
ATOM      7  C   UNL     1       5.934   5.170  17.508  0.00  0.00    +0.000 A 
ENDROOT
BRANCH   1   9
ATOM      8  N   UNL     1       3.436   4.547  19.193  0.00  0.00    +0.000 N 
ATOM      9  C   UNL     1       4.074   3.709  18.252  0.00  0.00    +0.000 C 
ATOM     10  O   UNL     1       3.979   2.481  18.292  0.00  0.00    +0.000 OA
BRANCH   8  11
ATOM     11  C   UNL     1       2.626   3.859  20.218  0.00  0.00    +0.000 C 
BRANCH  11  13
ATOM     12  C   UNL     1       0.604   2.687  19.171  0.00  0.00    +0.000 C 
ATOM     13  C   UNL     1       1.104   3.822  20.040  0.00  0.00    +0.000 C 
ENDBRANCH  11  13
ENDBRANCH   8  11
BRANCH   8  14
ATOM     14  C   UNL     1       3.681   6.000  19.291  0.00  0.00    +0.000 C 
BRANCH  14  15
ATOM     15  C   UNL     1       2.560   6.941  18.846  0.00  0.00    +0.000 C 
ATOM     16  C   UNL     1       1.997   7.855  19.931  0.00  0.00    +0.000 C 
ATOM     17  C   UNL     1       1.134   8.815  19.121  0.00  0.00    +0.000 C 
ATOM     18  C   UNL     1       1.877   9.001  17.796  0.00  0.00    +0.000 C 
ATOM     19  C   UNL     1       3.016   7.980  17.812  0.00  0.00    +0.000 C 
ENDBRANCH  14  15
ENDBRANCH   8  14
ENDBRANCH   1   9
BRANCH   6  20
ATOM     20  O   UNL     1       7.822   6.567  16.772  0.00  0.00    +0.000 OA
BRANCH  20  21
ATOM     21  C   UNL     1       7.796   7.271  18.016  0.00  0.00    +0.000 C 
BRANCH  21  22
ATOM     22  C   UNL     1       7.707   8.768  17.721  0.00  0.00    +0.000 C 
BRANCH  22  23
ATOM     23  C   UNL     1       8.965   9.516  18.154  0.00  0.00    +0.000 C 
BRANCH  23  24
ATOM     24  O   UNL     1       8.589  10.732  18.804  0.00  0.00    +0.000 OA
BRANCH  24  25
ATOM     25  N   UNL     1       9.175  10.746  20.079  0.00  0.00    +0.000 NA
ATOM     26  C   UNL     1       9.581  11.934  20.385  0.00  0.00    +0.000 C 
ATOM     27  N   UNL     1       9.506  13.034  19.596  0.00  0.00    +0.000 N 
ATOM     28  N   UNL     1      10.190  12.184  21.567  0.00  0.00    +0.000 N 
ATOM     29  H   UNL     1       8.920  12.853  18.786  0.00  0.00    +0.000 HD
ATOM     30  H   UNL     1       9.289  13.903  20.056  0.00  0.00    +0.000 HD
ATOM     31  H   UNL     1      10.115  11.397  22.201  0.00  0.00    +0.000 HD
ATOM     32  H   UNL     1       9.979  13.066  22.004  0.00  0.00    +0.000 HD
ENDBRANCH  24  25
ENDBRANCH  23  24
ENDBRANCH  22  23
ENDBRANCH  21  22
ENDBRANCH  20  21
ENDBRANCH   6  20
TORSDOF 11
ENDMDL
MODEL 7
REMARK VINA RESULT:      -7.1      4.017      7.344
REMARK  Name = 
REMARK  12 active torsions:
REMARK  status: ('A' for Active; 'I' for Inactive)
REMARK    1  A    between atoms: C_1  and  C_2
REMARK    2  A    between atoms: C_2  and  C_3
REMARK    3  A    between atoms: C_3  and  N_4
REMARK    4  A    between atoms: N_4  and  C_5
REMARK    5  A    between atoms: C_5  and  C_6
REMARK    6  A    between atoms: C_11  and  C_13
REMARK    7  A    between atoms: C_18  and  O_19
REMARK    8  A    between atoms: O_19  and  C_20
REMARK    9  A    between atoms: C_20  and  C_21
REMARK   10  A    between atoms: C_21  and  C_22
REMARK   11  A    between atoms: C_22  and  O_23
REMARK   12  A    between atoms: O_23  and  N_24
REMARK                            x       y       z     vdW  Elec       q    Type
REMARK                         _______ _______ _______ _____ _____    ______ ____
ROOT
ATOM      1  C   UNL     1       4.280   4.919  19.274  0.00  0.00    +0.000 A 
ATOM      2  C   UNL     1       3.675   3.756  18.800  0.00  0.00    +0.000 A 
ATOM      3  C   UNL     1       2.318   3.540  19.036  0.00  0.00    +0.000 A 
ATOM      4 CL   UNL     1       1.587   2.074  18.512  0.00  0.00    +0.000 Cl
ATOM      5  C   UNL     1       1.548   4.498  19.694  0.00  0.00    +0.000 A 
ATOM      6  C   UNL     1       2.124   5.697  20.109  0.00  0.00    +0.000 A 
ATOM      7  C   UNL     1       3.490   5.900  19.913  0.00  0.00    +0.000 A 
ENDROOT
BRANCH   1   9
ATOM      8  N   UNL     1       6.158   5.988  17.927  0.00  0.00    +0.000 N 
ATOM      9  C   UNL     1       5.717   5.243  19.042  0.00  0.00    +0.000 C 
ATOM     10  O   UNL     1       6.496   4.794  19.885  0.00  0.00    +0.000 OA
BRANCH   8  11
ATOM     11  C   UNL     1       7.615   6.217  17.844  0.00  0.00    +0.000 C 
BRANCH  11  13
ATOM     12  C   UNL     1       7.949   8.753  17.699  0.00  0.00    +0.000 C 
ATOM     13  C   UNL     1       8.190   7.483  18.490  0.00  0.00    +0.000 C 
ENDBRANCH  11  13
ENDBRANCH   8  11
BRANCH   8  14
ATOM     14  C   UNL     1       5.281   6.374  16.803  0.00  0.00    +0.000 C 
BRANCH  14  15
ATOM     15  C   UNL     1       5.488   5.666  15.464  0.00  0.00    +0.000 C 
ATOM     16  C   UNL     1       6.929   5.612  14.963  0.00  0.00    +0.000 C 
ATOM     17  C   UNL     1       6.824   4.636  13.798  0.00  0.00    +0.000 C 
ATOM     18  C   UNL     1       5.764   3.617  14.223  0.00  0.00    +0.000 C 
ATOM     19  C   UNL     1       5.151   4.169  15.511  0.00  0.00    +0.000 C 
ENDBRANCH  14  15
ENDBRANCH   8  14
ENDBRANCH   1   9
BRANCH   6  20
ATOM     20  O   UNL     1       1.262   6.570  20.715  0.00  0.00    +0.000 OA
BRANCH  20  21
ATOM     21  C   UNL     1       1.534   7.964  20.557  0.00  0.00    +0.000 C 
BRANCH  21  22
ATOM     22  C   UNL     1       0.789   8.728  21.652  0.00  0.00    +0.000 C 
BRANCH  22  23
ATOM     23  C   UNL     1      -0.230   9.709  21.078  0.00  0.00    +0.000 C 
BRANCH  23  24
ATOM     24  O   UNL     1       0.206  10.136  19.785  0.00  0.00    +0.000 OA
BRANCH  24  25
ATOM     25  N   UNL     1      -0.902  10.663  19.103  0.00  0.00    +0.000 NA
ATOM     26  C   UNL     1      -0.555  11.672  18.374  0.00  0.00    +0.000 C 
ATOM     27  N   UNL     1       0.689  12.204  18.282  0.00  0.00    +0.000 N 
ATOM     28  N   UNL     1      -1.463  12.347  17.633  0.00  0.00    +0.000 N 
ATOM     29  H   UNL     1       1.371  11.596  18.727  0.00  0.00    +0.000 HD
ATOM     30  H   UNL     1       0.976  12.522  17.371  0.00  0.00    +0.000 HD
ATOM     31  H   UNL     1      -2.352  11.863  17.596  0.00  0.00    +0.000 HD
ATOM     32  H   UNL     1      -1.155  12.677  16.733  0.00  0.00    +0.000 HD
ENDBRANCH  24  25
ENDBRANCH  23  24
ENDBRANCH  22  23
ENDBRANCH  21  22
ENDBRANCH  20  21
ENDBRANCH   6  20
TORSDOF 11
ENDMDL
MODEL 8
REMARK VINA RESULT:      -7.1      1.488      2.047
REMARK  Name = 
REMARK  12 active torsions:
REMARK  status: ('A' for Active; 'I' for Inactive)
REMARK    1  A    between atoms: C_1  and  C_2
REMARK    2  A    between atoms: C_2  and  C_3
REMARK    3  A    between atoms: C_3  and  N_4
REMARK    4  A    between atoms: N_4  and  C_5
REMARK    5  A    between atoms: C_5  and  C_6
REMARK    6  A    between atoms: C_11  and  C_13
REMARK    7  A    between atoms: C_18  and  O_19
REMARK    8  A    between atoms: O_19  and  C_20
REMARK    9  A    between atoms: C_20  and  C_21
REMARK   10  A    between atoms: C_21  and  C_22
REMARK   11  A    between atoms: C_22  and  O_23
REMARK   12  A    between atoms: O_23  and  N_24
REMARK                            x       y       z     vdW  Elec       q    Type
REMARK                         _______ _______ _______ _____ _____    ______ ____
ROOT
ATOM      1  C   UNL     1       5.559   4.320  18.013  0.00  0.00    +0.000 A 
ATOM      2  C   UNL     1       5.667   4.220  16.628  0.00  0.00    +0.000 A 
ATOM      3  C   UNL     1       6.499   5.100  15.936  0.00  0.00    +0.000 A 
ATOM      4 CL   UNL     1       6.580   5.021  14.220  0.00  0.00    +0.000 Cl
ATOM      5  C   UNL     1       7.263   6.044  16.621  0.00  0.00    +0.000 A 
ATOM      6  C   UNL     1       7.219   6.107  18.012  0.00  0.00    +0.000 A 
ATOM      7  C   UNL     1       6.357   5.257  18.704  0.00  0.00    +0.000 A 
ENDROOT
BRANCH   1   9
ATOM      8  N   UNL     1       3.307   3.468  18.844  0.00  0.00    +0.000 N 
ATOM      9  C   UNL     1       4.717   3.403  18.834  0.00  0.00    +0.000 C 
ATOM     10  O   UNL     1       5.344   2.596  19.522  0.00  0.00    +0.000 OA
BRANCH   8  11
ATOM     11  C   UNL     1       2.625   2.489  19.715  0.00  0.00    +0.000 C 
BRANCH  11  13
ATOM     12  C   UNL     1       1.349   3.015  21.873  0.00  0.00    +0.000 C 
ATOM     13  C   UNL     1       2.685   2.699  21.232  0.00  0.00    +0.000 C 
ENDBRANCH  11  13
ENDBRANCH   8  11
BRANCH   8  14
ATOM     14  C   UNL     1       2.534   4.541  18.185  0.00  0.00    +0.000 C 
BRANCH  14  15
ATOM     15  C   UNL     1       2.670   5.959  18.741  0.00  0.00    +0.000 C 
ATOM     16  C   UNL     1       2.093   7.068  17.867  0.00  0.00    +0.000 C 
ATOM     17  C   UNL     1       2.142   8.269  18.804  0.00  0.00    +0.000 C 
ATOM     18  C   UNL     1       1.859   7.702  20.197  0.00  0.00    +0.000 C 
ATOM     19  C   UNL     1       1.877   6.181  20.037  0.00  0.00    +0.000 C 
ENDBRANCH  14  15
ENDBRANCH   8  14
ENDBRANCH   1   9
BRANCH   6  20
ATOM     20  O   UNL     1       8.034   7.053  18.571  0.00  0.00    +0.000 OA
BRANCH  20  21
ATOM     21  C   UNL     1       8.069   8.334  17.937  0.00  0.00    +0.000 C 
BRANCH  21  22
ATOM     22  C   UNL     1       8.802   9.309  18.860  0.00  0.00    +0.000 C 
BRANCH  22  23
ATOM     23  C   UNL     1       9.091  10.642  18.175  0.00  0.00    +0.000 C 
BRANCH  23  24
ATOM     24  O   UNL     1       9.975  11.409  18.995  0.00  0.00    +0.000 OA
BRANCH  24  25
ATOM     25  N   UNL     1       9.272  12.528  19.468  0.00  0.00    +0.000 NA
ATOM     26  C   UNL     1       9.315  12.585  20.758  0.00  0.00    +0.000 C 
ATOM     27  N   UNL     1       9.914  11.689  21.580  0.00  0.00    +0.000 N 
ATOM     28  N   UNL     1       8.695  13.577  21.437  0.00  0.00    +0.000 N 
ATOM     29  H   UNL     1      10.490  11.043  21.046  0.00  0.00    +0.000 HD
ATOM     30  H   UNL     1      10.384  12.063  22.389  0.00  0.00    +0.000 HD
ATOM     31  H   UNL     1       8.375  14.313  20.818  0.00  0.00    +0.000 HD
ATOM     32  H   UNL     1       9.167  13.927  22.255  0.00  0.00    +0.000 HD
ENDBRANCH  24  25
ENDBRANCH  23  24
ENDBRANCH  22  23
ENDBRANCH  21  22
ENDBRANCH  20  21
ENDBRANCH   6  20
TORSDOF 11
ENDMDL
MODEL 9
REMARK VINA RESULT:      -7.1      6.350     10.286
REMARK  Name = 
REMARK  12 active torsions:
REMARK  status: ('A' for Active; 'I' for Inactive)
REMARK    1  A    between atoms: C_1  and  C_2
REMARK    2  A    between atoms: C_2  and  C_3
REMARK    3  A    between atoms: C_3  and  N_4
REMARK    4  A    between atoms: N_4  and  C_5
REMARK    5  A    between atoms: C_5  and  C_6
REMARK    6  A    between atoms: C_11  and  C_13
REMARK    7  A    between atoms: C_18  and  O_19
REMARK    8  A    between atoms: O_19  and  C_20
REMARK    9  A    between atoms: C_20  and  C_21
REMARK   10  A    between atoms: C_21  and  C_22
REMARK   11  A    between atoms: C_22  and  O_23
REMARK   12  A    between atoms: O_23  and  N_24
REMARK                            x       y       z     vdW  Elec       q    Type
REMARK                         _______ _______ _______ _____ _____    ______ ____
ROOT
ATOM      1  C   UNL     1       1.369   8.883  19.061  0.00  0.00    +0.000 A 
ATOM      2  C   UNL     1       1.167   8.762  20.434  0.00  0.00    +0.000 A 
ATOM      3  C   UNL     1       0.219   9.568  21.064  0.00  0.00    +0.000 A 
ATOM      4 CL   UNL     1       0.017   9.469  22.769  0.00  0.00    +0.000 Cl
ATOM      5  C   UNL     1      -0.566  10.453  20.327  0.00  0.00    +0.000 A 
ATOM      6  C   UNL     1      -0.424  10.532  18.943  0.00  0.00    +0.000 A 
ATOM      7  C   UNL     1       0.552   9.759  18.314  0.00  0.00    +0.000 A 
ENDROOT
BRANCH   1   9
ATOM      8  N   UNL     1       2.818   6.805  18.789  0.00  0.00    +0.000 N 
ATOM      9  C   UNL     1       2.341   8.042  18.303  0.00  0.00    +0.000 C 
ATOM     10  O   UNL     1       2.714   8.517  17.229  0.00  0.00    +0.000 OA
BRANCH   8  11
ATOM     11  C   UNL     1       3.779   6.101  17.916  0.00  0.00    +0.000 C 
BRANCH  11  13
ATOM     12  C   UNL     1       5.155   4.108  18.751  0.00  0.00    +0.000 C 
ATOM     13  C   UNL     1       5.093   5.606  18.531  0.00  0.00    +0.000 C 
ENDBRANCH  11  13
ENDBRANCH   8  11
BRANCH   8  14
ATOM     14  C   UNL     1       2.541   6.301  20.149  0.00  0.00    +0.000 C 
BRANCH  14  15
ATOM     15  C   UNL     1       1.631   5.079  20.282  0.00  0.00    +0.000 C 
ATOM     16  C   UNL     1       1.528   4.196  19.041  0.00  0.00    +0.000 C 
ATOM     17  C   UNL     1       0.800   2.972  19.583  0.00  0.00    +0.000 C 
ATOM     18  C   UNL     1       1.307   2.805  21.017  0.00  0.00    +0.000 C 
ATOM     19  C   UNL     1       2.134   4.057  21.312  0.00  0.00    +0.000 C 
ENDBRANCH  14  15
ENDBRANCH   8  14
ENDBRANCH   1   9
BRANCH   6  20
ATOM     20  O   UNL     1      -1.269  11.414  18.327  0.00  0.00    +0.000 OA
BRANCH  20  21
ATOM     21  C   UNL     1      -2.489  10.885  17.802  0.00  0.00    +0.000 C 
BRANCH  21  22
ATOM     22  C   UNL     1      -3.652  11.699  18.371  0.00  0.00    +0.000 C 
BRANCH  22  23
ATOM     23  C   UNL     1      -4.875  11.670  17.458  0.00  0.00    +0.000 C 
BRANCH  23  24
ATOM     24  O   UNL     1      -5.833  10.750  17.984  0.00  0.00    +0.000 OA
BRANCH  24  25
ATOM     25  N   UNL     1      -6.160  11.157  19.287  0.00  0.00    +0.000 NA
ATOM     26  C   UNL     1      -7.000  10.337  19.827  0.00  0.00    +0.000 C 
ATOM     27  N   UNL     1      -7.544   9.244  19.238  0.00  0.00    +0.000 N 
ATOM     28  N   UNL     1      -7.467  10.536  21.081  0.00  0.00    +0.000 N 
ATOM     29  H   UNL     1      -7.071   9.037  18.362  0.00  0.00    +0.000 HD
ATOM     30  H   UNL     1      -7.669   8.433  19.821  0.00  0.00    +0.000 HD
ATOM     31  H   UNL     1      -6.954  11.266  21.561  0.00  0.00    +0.000 HD
ATOM     32  H   UNL     1      -7.606   9.714  21.646  0.00  0.00    +0.000 HD
ENDBRANCH  24  25
ENDBRANCH  23  24
ENDBRANCH  22  23
ENDBRANCH  21  22
ENDBRANCH  20  21
ENDBRANCH   6  20
TORSDOF 11
ENDMDL
