MODEL 1
REMARK VINA RESULT:      -6.1      0.000      0.000
REMARK  Name = 
REMARK  15 active torsions:
REMARK  status: ('A' for Active; 'I' for Inactive)
REMARK    1  A    between atoms: C_1  and  C_2
REMARK    2  A    between atoms: N_4  and  C_5
REMARK    3  A    between atoms: C_6  and  N_7
REMARK    4  A    between atoms: C_8  and  C_9
REMARK    5  A    between atoms: C_9  and  C_10
REMARK    6  A    between atoms: N_16  and  S_17
REMARK    7  A    between atoms: S_17  and  C_18
REMARK    8  A    between atoms: C_22  and  C_23
REMARK    9  A    between atoms: C_23  and  O_25
REMARK   10  A    between atoms: C_27  and  C_28
REMARK   11  A    between atoms: C_28  and  O_29
REMARK   12  A    between atoms: C_28  and  C_30
REMARK   13  A    between atoms: C_30  and  O_31
REMARK   14  A    between atoms: C_30  and  C_32
REMARK   15  A    between atoms: C_32  and  O_33
REMARK                            x       y       z     vdW  Elec       q    Type
REMARK                         _______ _______ _______ _____ _____    ______ ____
ROOT
ATOM      1  C   UNL     1      -3.416  12.515  20.048  0.00  0.00    +0.000 C 
ATOM      2  C   UNL     1      -2.291  12.432  21.130  0.00  0.00    +0.000 C 
ATOM      3  C   UNL     1      -2.688  12.905  22.482  0.00  0.00    +0.000 C 
ATOM      4  C   UNL     1      -3.960  12.932  22.881  0.00  0.00    +0.000 C 
ATOM      5  O   UNL     1      -5.039  12.804  22.051  0.00  0.00    +0.000 OA
ATOM      6  C   UNL     1      -4.850  12.374  20.688  0.00  0.00    +0.000 C 
ENDROOT
BRANCH   1  10
ATOM      7  C   UNL     1      -2.248  10.511  16.870  0.00  0.00    +0.000 C 
ATOM      8  C   UNL     1      -2.210  11.626  17.905  0.00  0.00    +0.000 C 
ATOM      9  O   UNL     1      -1.334  12.483  17.911  0.00  0.00    +0.000 OA
ATOM     10  N   UNL     1      -3.224  11.589  18.851  0.00  0.00    +0.000 N 
ATOM     11  H   UNL     1      -3.906  10.855  18.744  0.00  0.00    +0.000 HD
ENDBRANCH   1  10
BRANCH   2  12
ATOM     12  N   UNL     1      -1.028  13.111  20.766  0.00  0.00    +0.000 N 
ATOM     13  C   UNL     1       0.278  12.733  21.110  0.00  0.00    +0.000 C 
ATOM     14  N   UNL     1       0.800  11.647  21.575  0.00  0.00    +0.000 NA
ATOM     15  H   UNL     1      -1.142  14.129  20.731  0.00  0.00    +0.000 HD
BRANCH  14  16
ATOM     16  S   UNL     1       0.131  10.257  21.991  0.00  0.00    +0.000 S 
ATOM     17  C   UNL     1       1.521   9.177  22.158  0.00  0.00    +0.000 C 
ATOM     18  O   UNL     1      -0.367  10.431  23.326  0.00  0.00    +0.000 OA
ATOM     19  O   UNL     1      -0.750   9.758  20.968  0.00  0.00    +0.000 OA
ENDBRANCH  14  16
BRANCH  13  20
ATOM     20  C   UNL     1       1.403  13.810  20.836  0.00  0.00    +0.000 C 
BRANCH  20  21
ATOM     21  C   UNL     1       0.872  15.147  20.350  0.00  0.00    +0.000 C 
ATOM     22  C   UNL     1       0.758  15.412  19.040  0.00  0.00    +0.000 C 
ATOM     23  C   UNL     1       0.078  16.609  18.469  0.00  0.00    +0.000 C 
ATOM     24  C   UNL     1      -0.483  17.637  19.446  0.00  0.00    +0.000 C 
ATOM     25  C   UNL     1      -0.282  17.399  20.941  0.00  0.00    +0.000 C 
ATOM     26  C   UNL     1       0.548  16.193  21.388  0.00  0.00    +0.000 C 
ENDBRANCH  20  21
ENDBRANCH  13  20
ENDBRANCH   2  12
BRANCH   4  27
ATOM     27  C   UNL     1      -4.224  12.921  24.361  0.00  0.00    +0.000 C 
ATOM     28  O   UNL     1      -4.649  11.980  25.007  0.00  0.00    +0.000 OA
BRANCH  27  29
ATOM     29  O   UNL     1      -3.976  14.143  24.889  0.00  0.00    +0.000 OA
ATOM     30  H   UNL     1      -3.064  14.182  25.242  0.00  0.00    +0.000 HD
ENDBRANCH  27  29
ENDBRANCH   4  27
BRANCH   6  31
ATOM     31  C   UNL     1      -5.979  13.080  19.866  0.00  0.00    +0.000 C 
BRANCH  31  32
ATOM     32  O   UNL     1      -5.416  13.600  18.646  0.00  0.00    +0.000 OA
ATOM     33  H   UNL     1      -6.075  14.124  18.161  0.00  0.00    +0.000 HD
ENDBRANCH  31  32
BRANCH  31  34
ATOM     34  C   UNL     1      -7.218  12.188  19.551  0.00  0.00    +0.000 C 
BRANCH  34  35
ATOM     35  O   UNL     1      -7.558  12.279  18.164  0.00  0.00    +0.000 OA
ATOM     36  H   UNL     1      -7.818  13.213  18.014  0.00  0.00    +0.000 HD
ENDBRANCH  34  35
BRANCH  34  37
ATOM     37  C   UNL     1      -6.983  10.697  19.858  0.00  0.00    +0.000 C 
BRANCH  37  38
ATOM     38  O   UNL     1      -7.600  10.376  21.104  0.00  0.00    +0.000 OA
ATOM     39  H   UNL     1      -7.332  11.064  21.743  0.00  0.00    +0.000 HD
ENDBRANCH  37  38
ENDBRANCH  34  37
ENDBRANCH  31  34
ENDBRANCH   6  31
TORSDOF 13
ENDMDL
MODEL 2
REMARK VINA RESULT:      -6.1      2.583      5.832
REMARK  Name = 
REMARK  15 active torsions:
REMARK  status: ('A' for Active; 'I' for Inactive)
REMARK    1  A    between atoms: C_1  and  C_2
REMARK    2  A    between atoms: N_4  and  C_5
REMARK    3  A    between atoms: C_6  and  N_7
REMARK    4  A    between atoms: C_8  and  C_9
REMARK    5  A    between atoms: C_9  and  C_10
REMARK    6  A    between atoms: N_16  and  S_17
REMARK    7  A    between atoms: S_17  and  C_18
REMARK    8  A    between atoms: C_22  and  C_23
REMARK    9  A    between atoms: C_23  and  O_25
REMARK   10  A    between atoms: C_27  and  C_28
REMARK   11  A    between atoms: C_28  and  O_29
REMARK   12  A    between atoms: C_28  and  C_30
REMARK   13  A    between atoms: C_30  and  O_31
REMARK   14  A    between atoms: C_30  and  C_32
REMARK   15  A    between atoms: C_32  and  O_33
REMARK                            x       y       z     vdW  Elec       q    Type
REMARK                         _______ _______ _______ _____ _____    ______ ____
ROOT
ATOM      1  C   UNL     1      -3.004  12.678  21.244  0.00  0.00    +0.000 C 
ATOM      2  C   UNL     1      -1.931  12.085  20.274  0.00  0.00    +0.000 C 
ATOM      3  C   UNL     1      -2.480  11.467  19.038  0.00  0.00    +0.000 C 
ATOM      4  C   UNL     1      -3.675  11.798  18.547  0.00  0.00    +0.000 C 
ATOM      5  O   UNL     1      -4.628  12.503  19.229  0.00  0.00    +0.000 OA
ATOM      6  C   UNL     1      -4.288  13.159  20.467  0.00  0.00    +0.000 C 
ENDROOT
BRANCH   1  10
ATOM      7  C   UNL     1      -1.227  14.829  24.018  0.00  0.00    +0.000 C 
ATOM      8  C   UNL     1      -1.637  13.555  23.293  0.00  0.00    +0.000 C 
ATOM      9  O   UNL     1      -1.234  12.449  23.636  0.00  0.00    +0.000 OA
ATOM     10  N   UNL     1      -2.480  13.739  22.207  0.00  0.00    +0.000 N 
ATOM     11  H   UNL     1      -2.768  14.687  22.023  0.00  0.00    +0.000 HD
ENDBRANCH   1  10
BRANCH   2  12
ATOM     12  N   UNL     1      -1.005  11.112  20.892  0.00  0.00    +0.000 N 
ATOM     13  C   UNL     1       0.395  11.087  20.804  0.00  0.00    +0.000 C 
ATOM     14  N   UNL     1       1.282  11.947  20.430  0.00  0.00    +0.000 NA
ATOM     15  H   UNL     1      -1.409  10.171  20.925  0.00  0.00    +0.000 HD
BRANCH  14  16
ATOM     16  S   UNL     1       1.127  13.432  19.862  0.00  0.00    +0.000 S 
ATOM     17  C   UNL     1       2.791  14.031  19.844  0.00  0.00    +0.000 C 
ATOM     18  O   UNL     1       0.765  13.302  18.479  0.00  0.00    +0.000 OA
ATOM     19  O   UNL     1       0.325  14.257  20.728  0.00  0.00    +0.000 OA
ENDBRANCH  14  16
BRANCH  13  20
ATOM     20  C   UNL     1       1.095   9.764  21.316  0.00  0.00    +0.000 C 
BRANCH  20  21
ATOM     21  C   UNL     1       1.470   8.796  20.207  0.00  0.00    +0.000 C 
ATOM     22  C   UNL     1       1.471   9.180  18.922  0.00  0.00    +0.000 C 
ATOM     23  C   UNL     1       2.002   8.368  17.791  0.00  0.00    +0.000 C 
ATOM     24  C   UNL     1       2.533   6.974  18.109  0.00  0.00    +0.000 C 
ATOM     25  C   UNL     1       2.455   6.482  19.553  0.00  0.00    +0.000 C 
ATOM     26  C   UNL     1       1.770   7.368  20.595  0.00  0.00    +0.000 C 
ENDBRANCH  20  21
ENDBRANCH  13  20
ENDBRANCH   2  12
BRANCH   4  27
ATOM     27  C   UNL     1      -3.922  11.538  17.088  0.00  0.00    +0.000 C 
ATOM     28  O   UNL     1      -4.996  11.265  16.580  0.00  0.00    +0.000 OA
BRANCH  27  29
ATOM     29  O   UNL     1      -2.757  11.590  16.399  0.00  0.00    +0.000 OA
ATOM     30  H   UNL     1      -2.337  10.707  16.376  0.00  0.00    +0.000 HD
ENDBRANCH  27  29
ENDBRANCH   4  27
BRANCH   6  31
ATOM     31  C   UNL     1      -5.594  13.128  21.329  0.00  0.00    +0.000 C 
BRANCH  31  32
ATOM     32  O   UNL     1      -5.371  12.302  22.488  0.00  0.00    +0.000 OA
ATOM     33  H   UNL     1      -6.079  12.432  23.142  0.00  0.00    +0.000 HD
ENDBRANCH  31  32
BRANCH  31  34
ATOM     34  C   UNL     1      -6.132  14.527  21.758  0.00  0.00    +0.000 C 
BRANCH  34  35
ATOM     35  O   UNL     1      -7.562  14.524  21.785  0.00  0.00    +0.000 OA
ATOM     36  H   UNL     1      -7.812  14.071  22.619  0.00  0.00    +0.000 HD
ENDBRANCH  34  35
BRANCH  34  37
ATOM     37  C   UNL     1      -5.657  14.952  23.161  0.00  0.00    +0.000 C 
BRANCH  37  38
ATOM     38  O   UNL     1      -6.549  14.412  24.137  0.00  0.00    +0.000 OA
ATOM     39  H   UNL     1      -6.430  14.933  24.954  0.00  0.00    +0.000 HD
ENDBRANCH  37  38
ENDBRANCH  34  37
ENDBRANCH  31  34
ENDBRANCH   6  31
TORSDOF 13
ENDMDL
MODEL 3
REMARK VINA RESULT:      -6.0      2.306      5.845
REMARK  Name = 
REMARK  15 active torsions:
REMARK  status: ('A' for Active; 'I' for Inactive)
REMARK    1  A    between atoms: C_1  and  C_2
REMARK    2  A    between atoms: N_4  and  C_5
REMARK    3  A    between atoms: C_6  and  N_7
REMARK    4  A    between atoms: C_8  and  C_9
REMARK    5  A    between atoms: C_9  and  C_10
REMARK    6  A    between atoms: N_16  and  S_17
REMARK    7  A    between atoms: S_17  and  C_18
REMARK    8  A    between atoms: C_22  and  C_23
REMARK    9  A    between atoms: C_23  and  O_25
REMARK   10  A    between atoms: C_27  and  C_28
REMARK   11  A    between atoms: C_28  and  O_29
REMARK   12  A    between atoms: C_28  and  C_30
REMARK   13  A    between atoms: C_30  and  O_31
REMARK   14  A    between atoms: C_30  and  C_32
REMARK   15  A    between atoms: C_32  and  O_33
REMARK                            x       y       z     vdW  Elec       q    Type
REMARK                         _______ _______ _______ _____ _____    ______ ____
ROOT
ATOM      1  C   UNL     1      -3.454  12.299  19.923  0.00  0.00    +0.000 C 
ATOM      2  C   UNL     1      -2.114  11.806  19.287  0.00  0.00    +0.000 C 
ATOM      3  C   UNL     1      -2.263  11.083  17.997  0.00  0.00    +0.000 C 
ATOM      4  C   UNL     1      -3.325  11.250  17.207  0.00  0.00    +0.000 C 
ATOM      5  O   UNL     1      -4.490  11.858  17.586  0.00  0.00    +0.000 OA
ATOM      6  C   UNL     1      -4.545  12.594  18.825  0.00  0.00    +0.000 C 
ENDROOT
BRANCH   1  10
ATOM      7  C   UNL     1      -3.129  14.704  23.020  0.00  0.00    +0.000 C 
ATOM      8  C   UNL     1      -3.404  13.393  22.298  0.00  0.00    +0.000 C 
ATOM      9  O   UNL     1      -3.673  12.359  22.898  0.00  0.00    +0.000 OA
ATOM     10  N   UNL     1      -3.308  13.449  20.915  0.00  0.00    +0.000 N 
ATOM     11  H   UNL     1      -3.102  14.353  20.520  0.00  0.00    +0.000 HD
ENDBRANCH   1  10
BRANCH   2  12
ATOM     12  N   UNL     1      -1.273  10.975  20.176  0.00  0.00    +0.000 N 
ATOM     13  C   UNL     1       0.056  11.205  20.559  0.00  0.00    +0.000 C 
ATOM     14  N   UNL     1       0.836  12.233  20.505  0.00  0.00    +0.000 NA
ATOM     15  H   UNL     1      -1.480   9.977  20.068  0.00  0.00    +0.000 HD
BRANCH  14  16
ATOM     16  S   UNL     1       0.596  13.701  19.924  0.00  0.00    +0.000 S 
ATOM     17  C   UNL     1       2.065  14.564  20.393  0.00  0.00    +0.000 C 
ATOM     18  O   UNL     1       0.672  13.588  18.494  0.00  0.00    +0.000 OA
ATOM     19  O   UNL     1      -0.550  14.335  20.521  0.00  0.00    +0.000 OA
ENDBRANCH  14  16
BRANCH  13  20
ATOM     20  C   UNL     1       0.788   9.997  21.271  0.00  0.00    +0.000 C 
BRANCH  20  21
ATOM     21  C   UNL     1       1.278   8.923  20.315  0.00  0.00    +0.000 C 
ATOM     22  C   UNL     1       1.516   9.200  19.025  0.00  0.00    +0.000 C 
ATOM     23  C   UNL     1       2.173   8.271  18.062  0.00  0.00    +0.000 C 
ATOM     24  C   UNL     1       2.553   6.883  18.565  0.00  0.00    +0.000 C 
ATOM     25  C   UNL     1       2.205   6.516  20.007  0.00  0.00    +0.000 C 
ATOM     26  C   UNL     1       1.415   7.519  20.850  0.00  0.00    +0.000 C 
ENDBRANCH  20  21
ENDBRANCH  13  20
ENDBRANCH   2  12
BRANCH   4  27
ATOM     27  C   UNL     1      -3.167  10.910  15.751  0.00  0.00    +0.000 C 
ATOM     28  O   UNL     1      -3.880  11.298  14.843  0.00  0.00    +0.000 OA
BRANCH  27  29
ATOM     29  O   UNL     1      -2.137  10.047  15.581  0.00  0.00    +0.000 OA
ATOM     30  H   UNL     1      -1.503  10.401  14.925  0.00  0.00    +0.000 HD
ENDBRANCH  27  29
ENDBRANCH   4  27
BRANCH   6  31
ATOM     31  C   UNL     1      -6.015  12.435  19.339  0.00  0.00    +0.000 C 
BRANCH  31  32
ATOM     32  O   UNL     1      -6.888  12.240  18.210  0.00  0.00    +0.000 OA
ATOM     33  H   UNL     1      -7.809  12.441  18.450  0.00  0.00    +0.000 HD
ENDBRANCH  31  32
BRANCH  31  34
ATOM     34  C   UNL     1      -6.226  11.301  20.387  0.00  0.00    +0.000 C 
BRANCH  34  35
ATOM     35  O   UNL     1      -6.447  11.858  21.687  0.00  0.00    +0.000 OA
ATOM     36  H   UNL     1      -5.624  12.341  21.913  0.00  0.00    +0.000 HD
ENDBRANCH  34  35
BRANCH  34  37
ATOM     37  C   UNL     1      -7.438  10.404  20.072  0.00  0.00    +0.000 C 
BRANCH  37  38
ATOM     38  O   UNL     1      -7.418   9.272  20.942  0.00  0.00    +0.000 OA
ATOM     39  H   UNL     1      -7.338   9.613  21.854  0.00  0.00    +0.000 HD
ENDBRANCH  37  38
ENDBRANCH  34  37
ENDBRANCH  31  34
ENDBRANCH   6  31
TORSDOF 13
ENDMDL
MODEL 4
REMARK VINA RESULT:      -5.9      2.474      6.051
REMARK  Name = 
REMARK  15 active torsions:
REMARK  status: ('A' for Active; 'I' for Inactive)
REMARK    1  A    between atoms: C_1  and  C_2
REMARK    2  A    between atoms: N_4  and  C_5
REMARK    3  A    between atoms: C_6  and  N_7
REMARK    4  A    between atoms: C_8  and  C_9
REMARK    5  A    between atoms: C_9  and  C_10
REMARK    6  A    between atoms: N_16  and  S_17
REMARK    7  A    between atoms: S_17  and  C_18
REMARK    8  A    between atoms: C_22  and  C_23
REMARK    9  A    between atoms: C_23  and  O_25
REMARK   10  A    between atoms: C_27  and  C_28
REMARK   11  A    between atoms: C_28  and  O_29
REMARK   12  A    between atoms: C_28  and  C_30
REMARK   13  A    between atoms: C_30  and  O_31
REMARK   14  A    between atoms: C_30  and  C_32
REMARK   15  A    between atoms: C_32  and  O_33
REMARK                            x       y       z     vdW  Elec       q    Type
REMARK                         _______ _______ _______ _____ _____    ______ ____
ROOT
ATOM      1  C   UNL     1      -2.894  11.824  20.233  0.00  0.00    +0.000 C 
ATOM      2  C   UNL     1      -1.625  11.232  19.538  0.00  0.00    +0.000 C 
ATOM      3  C   UNL     1      -1.877  10.584  18.224  0.00  0.00    +0.000 C 
ATOM      4  C   UNL     1      -2.937  10.886  17.473  0.00  0.00    +0.000 C 
ATOM      5  O   UNL     1      -4.027  11.587  17.911  0.00  0.00    +0.000 OA
ATOM      6  C   UNL     1      -3.979  12.270  19.180  0.00  0.00    +0.000 C 
ENDROOT
BRANCH   1  10
ATOM      7  C   UNL     1      -2.606  14.186  23.366  0.00  0.00    +0.000 C 
ATOM      8  C   UNL     1      -3.150  13.030  22.539  0.00  0.00    +0.000 C 
ATOM      9  O   UNL     1      -3.990  12.252  22.975  0.00  0.00    +0.000 OA
ATOM     10  N   UNL     1      -2.611  12.910  21.266  0.00  0.00    +0.000 N 
ATOM     11  H   UNL     1      -1.942  13.615  20.998  0.00  0.00    +0.000 HD
ENDBRANCH   1  10
BRANCH   2  12
ATOM     12  N   UNL     1      -0.848  10.285  20.366  0.00  0.00    +0.000 N 
ATOM     13  C   UNL     1       0.464  10.438  20.839  0.00  0.00    +0.000 C 
ATOM     14  N   UNL     1       1.266  11.446  20.940  0.00  0.00    +0.000 NA
ATOM     15  H   UNL     1      -1.067   9.311  20.137  0.00  0.00    +0.000 HD
BRANCH  14  16
ATOM     16  S   UNL     1       1.084  12.975  20.517  0.00  0.00    +0.000 S 
ATOM     17  C   UNL     1       2.721  13.629  20.661  0.00  0.00    +0.000 C 
ATOM     18  O   UNL     1       0.806  12.976  19.109  0.00  0.00    +0.000 OA
ATOM     19  O   UNL     1       0.201  13.678  21.411  0.00  0.00    +0.000 OA
ENDBRANCH  14  16
BRANCH  13  20
ATOM     20  C   UNL     1       1.136   9.140  21.444  0.00  0.00    +0.000 C 
BRANCH  20  21
ATOM     21  C   UNL     1       1.665   8.174  20.398  0.00  0.00    +0.000 C 
ATOM     22  C   UNL     1       1.895   6.887  20.697  0.00  0.00    +0.000 C 
ATOM     23  C   UNL     1       2.231   5.829  19.702  0.00  0.00    +0.000 C 
ATOM     24  C   UNL     1       2.377   6.250  18.244  0.00  0.00    +0.000 C 
ATOM     25  C   UNL     1       2.210   7.728  17.897  0.00  0.00    +0.000 C 
ATOM     26  C   UNL     1       1.994   8.729  19.033  0.00  0.00    +0.000 C 
ENDBRANCH  20  21
ENDBRANCH  13  20
ENDBRANCH   2  12
BRANCH   4  27
ATOM     27  C   UNL     1      -2.851  10.596  16.001  0.00  0.00    +0.000 C 
ATOM     28  O   UNL     1      -2.756  11.423  15.111  0.00  0.00    +0.000 OA
BRANCH  27  29
ATOM     29  O   UNL     1      -2.953   9.264  15.780  0.00  0.00    +0.000 OA
ATOM     30  H   UNL     1      -2.169   8.940  15.292  0.00  0.00    +0.000 HD
ENDBRANCH  27  29
ENDBRANCH   4  27
BRANCH   6  31
ATOM     31  C   UNL     1      -5.444  12.232  19.731  0.00  0.00    +0.000 C 
BRANCH  31  32
ATOM     32  O   UNL     1      -5.875  13.579  20.008  0.00  0.00    +0.000 OA
ATOM     33  H   UNL     1      -5.141  14.205  19.888  0.00  0.00    +0.000 HD
ENDBRANCH  31  32
BRANCH  31  34
ATOM     34  C   UNL     1      -6.474  11.514  18.807  0.00  0.00    +0.000 C 
BRANCH  34  35
ATOM     35  O   UNL     1      -7.427  10.791  19.591  0.00  0.00    +0.000 OA
ATOM     36  H   UNL     1      -7.012   9.922  19.781  0.00  0.00    +0.000 HD
ENDBRANCH  34  35
BRANCH  34  37
ATOM     37  C   UNL     1      -7.272  12.489  17.920  0.00  0.00    +0.000 C 
BRANCH  37  38
ATOM     38  O   UNL     1      -6.656  12.557  16.633  0.00  0.00    +0.000 OA
ATOM     39  H   UNL     1      -6.274  13.451  16.545  0.00  0.00    +0.000 HD
ENDBRANCH  37  38
ENDBRANCH  34  37
ENDBRANCH  31  34
ENDBRANCH   6  31
TORSDOF 13
ENDMDL
MODEL 5
REMARK VINA RESULT:      -5.9      0.581      1.083
REMARK  Name = 
REMARK  15 active torsions:
REMARK  status: ('A' for Active; 'I' for Inactive)
REMARK    1  A    between atoms: C_1  and  C_2
REMARK    2  A    between atoms: N_4  and  C_5
REMARK    3  A    between atoms: C_6  and  N_7
REMARK    4  A    between atoms: C_8  and  C_9
REMARK    5  A    between atoms: C_9  and  C_10
REMARK    6  A    between atoms: N_16  and  S_17
REMARK    7  A    between atoms: S_17  and  C_18
REMARK    8  A    between atoms: C_22  and  C_23
REMARK    9  A    between atoms: C_23  and  O_25
REMARK   10  A    between atoms: C_27  and  C_28
REMARK   11  A    between atoms: C_28  and  O_29
REMARK   12  A    between atoms: C_28  and  C_30
REMARK   13  A    between atoms: C_30  and  O_31
REMARK   14  A    between atoms: C_30  and  C_32
REMARK   15  A    between atoms: C_32  and  O_33
REMARK                            x       y       z     vdW  Elec       q    Type
REMARK                         _______ _______ _______ _____ _____    ______ ____
ROOT
ATOM      1  C   UNL     1      -3.383  12.516  20.193  0.00  0.00    +0.000 C 
ATOM      2  C   UNL     1      -2.276  12.476  21.297  0.00  0.00    +0.000 C 
ATOM      3  C   UNL     1      -2.720  12.929  22.642  0.00  0.00    +0.000 C 
ATOM      4  C   UNL     1      -4.000  12.903  23.016  0.00  0.00    +0.000 C 
ATOM      5  O   UNL     1      -5.056  12.732  22.163  0.00  0.00    +0.000 OA
ATOM      6  C   UNL     1      -4.821  12.314  20.804  0.00  0.00    +0.000 C 
ENDROOT
BRANCH   1  10
ATOM      7  C   UNL     1      -2.064  10.565  17.041  0.00  0.00    +0.000 C 
ATOM      8  C   UNL     1      -2.090  11.676  18.081  0.00  0.00    +0.000 C 
ATOM      9  O   UNL     1      -1.242  12.560  18.114  0.00  0.00    +0.000 OA
ATOM     10  N   UNL     1      -3.128  11.602  18.999  0.00  0.00    +0.000 N 
ATOM     11  H   UNL     1      -3.783  10.847  18.870  0.00  0.00    +0.000 HD
ENDBRANCH   1  10
BRANCH   2  12
ATOM     12  N   UNL     1      -1.036  13.209  20.961  0.00  0.00    +0.000 N 
ATOM     13  C   UNL     1       0.285  12.826  21.235  0.00  0.00    +0.000 C 
ATOM     14  N   UNL     1       0.838  11.714  21.588  0.00  0.00    +0.000 NA
ATOM     15  H   UNL     1      -1.168  14.223  21.018  0.00  0.00    +0.000 HD
BRANCH  14  16
ATOM     16  S   UNL     1       0.204  10.281  21.898  0.00  0.00    +0.000 S 
ATOM     17  C   UNL     1       1.618   9.220  21.952  0.00  0.00    +0.000 C 
ATOM     18  O   UNL     1      -0.272  10.333  23.252  0.00  0.00    +0.000 OA
ATOM     19  O   UNL     1      -0.686   9.849  20.853  0.00  0.00    +0.000 OA
ENDBRANCH  14  16
BRANCH  13  20
ATOM     20  C   UNL     1       1.384  13.944  21.026  0.00  0.00    +0.000 C 
BRANCH  20  21
ATOM     21  C   UNL     1       0.850  15.229  20.418  0.00  0.00    +0.000 C 
ATOM     22  C   UNL     1       0.758  15.380  19.088  0.00  0.00    +0.000 C 
ATOM     23  C   UNL     1       0.077  16.517  18.405  0.00  0.00    +0.000 C 
ATOM     24  C   UNL     1      -0.511  17.617  19.281  0.00  0.00    +0.000 C 
ATOM     25  C   UNL     1      -0.335  17.510  20.794  0.00  0.00    +0.000 C 
ATOM     26  C   UNL     1       0.497  16.356  21.357  0.00  0.00    +0.000 C 
ENDBRANCH  20  21
ENDBRANCH  13  20
ENDBRANCH   2  12
BRANCH   4  27
ATOM     27  C   UNL     1      -4.293  12.877  24.489  0.00  0.00    +0.000 C 
ATOM     28  O   UNL     1      -4.829  11.968  25.098  0.00  0.00    +0.000 OA
BRANCH  27  29
ATOM     29  O   UNL     1      -3.927  14.049  25.060  0.00  0.00    +0.000 OA
ATOM     30  H   UNL     1      -3.680  13.908  25.996  0.00  0.00    +0.000 HD
ENDBRANCH  27  29
ENDBRANCH   4  27
BRANCH   6  31
ATOM     31  C   UNL     1      -5.962  12.975  19.960  0.00  0.00    +0.000 C 
BRANCH  31  32
ATOM     32  O   UNL     1      -5.406  14.052  19.182  0.00  0.00    +0.000 OA
ATOM     33  H   UNL     1      -4.469  13.884  18.985  0.00  0.00    +0.000 HD
ENDBRANCH  31  32
BRANCH  31  34
ATOM     34  C   UNL     1      -6.751  11.995  19.039  0.00  0.00    +0.000 C 
BRANCH  34  35
ATOM     35  O   UNL     1      -7.809  11.367  19.769  0.00  0.00    +0.000 OA
ATOM     36  H   UNL     1      -7.890  10.463  19.397  0.00  0.00    +0.000 HD
ENDBRANCH  34  35
BRANCH  34  37
ATOM     37  C   UNL     1      -7.395  12.693  17.826  0.00  0.00    +0.000 C 
BRANCH  37  38
ATOM     38  O   UNL     1      -6.565  12.496  16.681  0.00  0.00    +0.000 OA
ATOM     39  H   UNL     1      -6.101  11.646  16.806  0.00  0.00    +0.000 HD
ENDBRANCH  37  38
ENDBRANCH  34  37
ENDBRANCH  31  34
ENDBRANCH   6  31
TORSDOF 13
ENDMDL
MODEL 6
REMARK VINA RESULT:      -5.9      2.803      6.307
REMARK  Name = 
REMARK  15 active torsions:
REMARK  status: ('A' for Active; 'I' for Inactive)
REMARK    1  A    between atoms: C_1  and  C_2
REMARK    2  A    between atoms: N_4  and  C_5
REMARK    3  A    between atoms: C_6  and  N_7
REMARK    4  A    between atoms: C_8  and  C_9
REMARK    5  A    between atoms: C_9  and  C_10
REMARK    6  A    between atoms: N_16  and  S_17
REMARK    7  A    between atoms: S_17  and  C_18
REMARK    8  A    between atoms: C_22  and  C_23
REMARK    9  A    between atoms: C_23  and  O_25
REMARK   10  A    between atoms: C_27  and  C_28
REMARK   11  A    between atoms: C_28  and  O_29
REMARK   12  A    between atoms: C_28  and  C_30
REMARK   13  A    between atoms: C_30  and  O_31
REMARK   14  A    between atoms: C_30  and  C_32
REMARK   15  A    between atoms: C_32  and  O_33
REMARK                            x       y       z     vdW  Elec       q    Type
REMARK                         _______ _______ _______ _____ _____    ______ ____
ROOT
ATOM      1  C   UNL     1      -0.782  12.572  21.091  0.00  0.00    +0.000 C 
ATOM      2  C   UNL     1      -0.647  12.537  19.534  0.00  0.00    +0.000 C 
ATOM      3  C   UNL     1      -0.679  13.869  18.875  0.00  0.00    +0.000 C 
ATOM      4  C   UNL     1      -0.360  14.991  19.521  0.00  0.00    +0.000 C 
ATOM      5  O   UNL     1      -0.240  15.100  20.879  0.00  0.00    +0.000 OA
ATOM      6  C   UNL     1      -0.211  13.912  21.695  0.00  0.00    +0.000 C 
ENDROOT
BRANCH   1  10
ATOM      7  C   UNL     1      -0.071   9.408  23.319  0.00  0.00    +0.000 C 
ATOM      8  C   UNL     1      -0.818  10.656  22.870  0.00  0.00    +0.000 C 
ATOM      9  O   UNL     1      -1.863  11.018  23.398  0.00  0.00    +0.000 OA
ATOM     10  N   UNL     1      -0.242  11.339  21.809  0.00  0.00    +0.000 N 
ATOM     11  H   UNL     1       0.628  10.969  21.461  0.00  0.00    +0.000 HD
ENDBRANCH   1  10
BRANCH   2  12
ATOM     12  N   UNL     1      -1.626  11.669  18.845  0.00  0.00    +0.000 N 
ATOM     13  C   UNL     1      -1.365  10.514  18.092  0.00  0.00    +0.000 C 
ATOM     14  N   UNL     1      -0.339   9.739  17.971  0.00  0.00    +0.000 NA
ATOM     15  H   UNL     1      -2.414  12.207  18.472  0.00  0.00    +0.000 HD
BRANCH  14  16
ATOM     16  S   UNL     1       1.112   9.811  18.635  0.00  0.00    +0.000 S 
ATOM     17  C   UNL     1       2.023   8.588  17.741  0.00  0.00    +0.000 C 
ATOM     18  O   UNL     1       1.680  11.066  18.233  0.00  0.00    +0.000 OA
ATOM     19  O   UNL     1       1.081   9.465  20.033  0.00  0.00    +0.000 OA
ENDBRANCH  14  16
BRANCH  13  20
ATOM     20  C   UNL     1      -2.572   9.966  17.229  0.00  0.00    +0.000 C 
BRANCH  20  21
ATOM     21  C   UNL     1      -3.902  10.632  17.535  0.00  0.00    +0.000 C 
ATOM     22  C   UNL     1      -4.285  11.743  16.888  0.00  0.00    +0.000 C 
ATOM     23  C   UNL     1      -5.641  12.357  16.980  0.00  0.00    +0.000 C 
ATOM     24  C   UNL     1      -6.649  11.707  17.921  0.00  0.00    +0.000 C 
ATOM     25  C   UNL     1      -6.202  10.496  18.737  0.00  0.00    +0.000 C 
ATOM     26  C   UNL     1      -4.743  10.045  18.642  0.00  0.00    +0.000 C 
ENDBRANCH  20  21
ENDBRANCH  13  20
ENDBRANCH   2  12
BRANCH   4  27
ATOM     27  C   UNL     1       0.073  16.169  18.694  0.00  0.00    +0.000 C 
ATOM     28  O   UNL     1      -0.655  16.893  18.040  0.00  0.00    +0.000 OA
BRANCH  27  29
ATOM     29  O   UNL     1       1.422  16.292  18.726  0.00  0.00    +0.000 OA
ATOM     30  H   UNL     1       1.844  15.500  18.337  0.00  0.00    +0.000 HD
ENDBRANCH  27  29
ENDBRANCH   4  27
BRANCH   6  31
ATOM     31  C   UNL     1      -0.872  14.322  23.054  0.00  0.00    +0.000 C 
BRANCH  31  32
ATOM     32  O   UNL     1      -0.217  15.503  23.555  0.00  0.00    +0.000 OA
ATOM     33  H   UNL     1      -0.848  16.239  23.629  0.00  0.00    +0.000 HD
ENDBRANCH  31  32
BRANCH  31  34
ATOM     34  C   UNL     1      -2.414  14.543  22.994  0.00  0.00    +0.000 C 
BRANCH  34  35
ATOM     35  O   UNL     1      -3.066  13.781  24.015  0.00  0.00    +0.000 OA
ATOM     36  H   UNL     1      -3.982  14.129  24.063  0.00  0.00    +0.000 HD
ENDBRANCH  34  35
BRANCH  34  37
ATOM     37  C   UNL     1      -2.822  16.014  23.203  0.00  0.00    +0.000 C 
BRANCH  37  38
ATOM     38  O   UNL     1      -2.375  16.783  22.086  0.00  0.00    +0.000 OA
ATOM     39  H   UNL     1      -3.167  17.179  21.675  0.00  0.00    +0.000 HD
ENDBRANCH  37  38
ENDBRANCH  34  37
ENDBRANCH  31  34
ENDBRANCH   6  31
TORSDOF 13
ENDMDL
MODEL 7
REMARK VINA RESULT:      -5.8      2.596      6.129
REMARK  Name = 
REMARK  15 active torsions:
REMARK  status: ('A' for Active; 'I' for Inactive)
REMARK    1  A    between atoms: C_1  and  C_2
REMARK    2  A    between atoms: N_4  and  C_5
REMARK    3  A    between atoms: C_6  and  N_7
REMARK    4  A    between atoms: C_8  and  C_9
REMARK    5  A    between atoms: C_9  and  C_10
REMARK    6  A    between atoms: N_16  and  S_17
REMARK    7  A    between atoms: S_17  and  C_18
REMARK    8  A    between atoms: C_22  and  C_23
REMARK    9  A    between atoms: C_23  and  O_25
REMARK   10  A    between atoms: C_27  and  C_28
REMARK   11  A    between atoms: C_28  and  O_29
REMARK   12  A    between atoms: C_28  and  C_30
REMARK   13  A    between atoms: C_30  and  O_31
REMARK   14  A    between atoms: C_30  and  C_32
REMARK   15  A    between atoms: C_32  and  O_33
REMARK                            x       y       z     vdW  Elec       q    Type
REMARK                         _______ _______ _______ _____ _____    ______ ____
ROOT
ATOM      1  C   UNL     1      -0.890  12.555  21.020  0.00  0.00    +0.000 C 
ATOM      2  C   UNL     1      -0.684  12.532  19.470  0.00  0.00    +0.000 C 
ATOM      3  C   UNL     1      -0.743  13.864  18.812  0.00  0.00    +0.000 C 
ATOM      4  C   UNL     1      -0.501  14.996  19.474  0.00  0.00    +0.000 C 
ATOM      5  O   UNL     1      -0.447  15.105  20.837  0.00  0.00    +0.000 OA
ATOM      6  C   UNL     1      -0.405  13.915  21.651  0.00  0.00    +0.000 C 
ENDROOT
BRANCH   1  10
ATOM      7  C   UNL     1      -0.124   9.452  23.315  0.00  0.00    +0.000 C 
ATOM      8  C   UNL     1      -0.884  10.686  22.848  0.00  0.00    +0.000 C 
ATOM      9  O   UNL     1      -1.920  11.058  23.387  0.00  0.00    +0.000 OA
ATOM     10  N   UNL     1      -0.331  11.343  21.758  0.00  0.00    +0.000 N 
ATOM     11  H   UNL     1       0.533  10.967  21.403  0.00  0.00    +0.000 HD
ENDBRANCH   1  10
BRANCH   2  12
ATOM     12  N   UNL     1      -1.594  11.625  18.736  0.00  0.00    +0.000 N 
ATOM     13  C   UNL     1      -1.251  10.483  17.997  0.00  0.00    +0.000 C 
ATOM     14  N   UNL     1      -0.191   9.749  17.927  0.00  0.00    +0.000 NA
ATOM     15  H   UNL     1      -2.384  12.132  18.325  0.00  0.00    +0.000 HD
BRANCH  14  16
ATOM     16  S   UNL     1       1.222   9.878  18.660  0.00  0.00    +0.000 S 
ATOM     17  C   UNL     1       2.224   8.693  17.811  0.00  0.00    +0.000 C 
ATOM     18  O   UNL     1       1.759  11.155  18.283  0.00  0.00    +0.000 OA
ATOM     19  O   UNL     1       1.138   9.531  20.054  0.00  0.00    +0.000 OA
ENDBRANCH  14  16
BRANCH  13  20
ATOM     20  C   UNL     1      -2.393   9.888  17.079  0.00  0.00    +0.000 C 
BRANCH  20  21
ATOM     21  C   UNL     1      -3.774  10.449  17.368  0.00  0.00    +0.000 C 
ATOM     22  C   UNL     1      -4.557   9.909  18.314  0.00  0.00    +0.000 C 
ATOM     23  C   UNL     1      -5.838  10.500  18.798  0.00  0.00    +0.000 C 
ATOM     24  C   UNL     1      -6.321  11.784  18.133  0.00  0.00    +0.000 C 
ATOM     25  C   UNL     1      -5.489  12.364  16.991  0.00  0.00    +0.000 C 
ATOM     26  C   UNL     1      -4.263  11.588  16.507  0.00  0.00    +0.000 C 
ENDBRANCH  20  21
ENDBRANCH  13  20
ENDBRANCH   2  12
BRANCH   4  27
ATOM     27  C   UNL     1      -0.081  16.194  18.671  0.00  0.00    +0.000 C 
ATOM     28  O   UNL     1       1.062  16.491  18.369  0.00  0.00    +0.000 OA
BRANCH  27  29
ATOM     29  O   UNL     1      -1.159  16.954  18.365  0.00  0.00    +0.000 OA
ATOM     30  H   UNL     1      -1.874  16.397  17.997  0.00  0.00    +0.000 HD
ENDBRANCH  27  29
ENDBRANCH   4  27
BRANCH   6  31
ATOM     31  C   UNL     1      -1.142  14.292  22.979  0.00  0.00    +0.000 C 
BRANCH  31  32
ATOM     32  O   UNL     1      -0.269  15.109  23.784  0.00  0.00    +0.000 OA
ATOM     33  H   UNL     1      -0.779  15.783  24.265  0.00  0.00    +0.000 HD
ENDBRANCH  31  32
BRANCH  31  34
ATOM     34  C   UNL     1      -2.519  14.997  22.789  0.00  0.00    +0.000 C 
BRANCH  34  35
ATOM     35  O   UNL     1      -3.196  14.467  21.645  0.00  0.00    +0.000 OA
ATOM     36  H   UNL     1      -3.803  15.176  21.343  0.00  0.00    +0.000 HD
ENDBRANCH  34  35
BRANCH  34  37
ATOM     37  C   UNL     1      -3.462  14.816  23.993  0.00  0.00    +0.000 C 
BRANCH  37  38
ATOM     38  O   UNL     1      -3.576  13.423  24.288  0.00  0.00    +0.000 OA
ATOM     39  H   UNL     1      -2.899  13.216  24.960  0.00  0.00    +0.000 HD
ENDBRANCH  37  38
ENDBRANCH  34  37
ENDBRANCH  31  34
ENDBRANCH   6  31
TORSDOF 13
ENDMDL
MODEL 8
REMARK VINA RESULT:      -5.8      2.592      7.022
REMARK  Name = 
REMARK  15 active torsions:
REMARK  status: ('A' for Active; 'I' for Inactive)
REMARK    1  A    between atoms: C_1  and  C_2
REMARK    2  A    between atoms: N_4  and  C_5
REMARK    3  A    between atoms: C_6  and  N_7
REMARK    4  A    between atoms: C_8  and  C_9
REMARK    5  A    between atoms: C_9  and  C_10
REMARK    6  A    between atoms: N_16  and  S_17
REMARK    7  A    between atoms: S_17  and  C_18
REMARK    8  A    between atoms: C_22  and  C_23
REMARK    9  A    between atoms: C_23  and  O_25
REMARK   10  A    between atoms: C_27  and  C_28
REMARK   11  A    between atoms: C_28  and  O_29
REMARK   12  A    between atoms: C_28  and  C_30
REMARK   13  A    between atoms: C_30  and  O_31
REMARK   14  A    between atoms: C_30  and  C_32
REMARK   15  A    between atoms: C_32  and  O_33
REMARK                            x       y       z     vdW  Elec       q    Type
REMARK                         _______ _______ _______ _____ _____    ______ ____
ROOT
ATOM      1  C   UNL     1      -0.664  13.932  20.259  0.00  0.00    +0.000 C 
ATOM      2  C   UNL     1      -1.660  12.780  20.614  0.00  0.00    +0.000 C 
ATOM      3  C   UNL     1      -1.029  11.451  20.823  0.00  0.00    +0.000 C 
ATOM      4  C   UNL     1       0.254  11.318  21.167  0.00  0.00    +0.000 C 
ATOM      5  O   UNL     1       1.185  12.317  21.099  0.00  0.00    +0.000 OA
ATOM      6  C   UNL     1       0.763  13.678  20.879  0.00  0.00    +0.000 C 
ENDROOT
BRANCH   1  10
ATOM      7  C   UNL     1      -1.816  17.694  20.266  0.00  0.00    +0.000 C 
ATOM      8  C   UNL     1      -1.146  16.443  19.714  0.00  0.00    +0.000 C 
ATOM      9  O   UNL     1      -0.633  16.413  18.602  0.00  0.00    +0.000 OA
ATOM     10  N   UNL     1      -1.179  15.337  20.551  0.00  0.00    +0.000 N 
ATOM     11  H   UNL     1      -1.608  15.475  21.453  0.00  0.00    +0.000 HD
ENDBRANCH   1  10
BRANCH   2  12
ATOM     12  N   UNL     1      -2.773  12.605  19.656  0.00  0.00    +0.000 N 
ATOM     13  C   UNL     1      -4.142  12.499  19.945  0.00  0.00    +0.000 C 
ATOM     14  N   UNL     1      -4.858  12.758  20.987  0.00  0.00    +0.000 NA
ATOM     15  H   UNL     1      -2.498  12.026  18.857  0.00  0.00    +0.000 HD
BRANCH  14  16
ATOM     16  S   UNL     1      -4.445  13.291  22.435  0.00  0.00    +0.000 S 
ATOM     17  C   UNL     1      -6.003  13.642  23.194  0.00  0.00    +0.000 C 
ATOM     18  O   UNL     1      -3.930  12.159  23.152  0.00  0.00    +0.000 OA
ATOM     19  O   UNL     1      -3.661  14.496  22.361  0.00  0.00    +0.000 OA
ENDBRANCH  14  16
BRANCH  13  20
ATOM     20  C   UNL     1      -5.063  12.020  18.751  0.00  0.00    +0.000 C 
BRANCH  20  21
ATOM     21  C   UNL     1      -4.320  11.265  17.663  0.00  0.00    +0.000 C 
ATOM     22  C   UNL     1      -4.492  11.570  16.368  0.00  0.00    +0.000 C 
ATOM     23  C   UNL     1      -3.674  11.022  15.248  0.00  0.00    +0.000 C 
ATOM     24  C   UNL     1      -2.600   9.997  15.593  0.00  0.00    +0.000 C 
ATOM     25  C   UNL     1      -2.451   9.568  17.051  0.00  0.00    +0.000 C 
ATOM     26  C   UNL     1      -3.440  10.114  18.083  0.00  0.00    +0.000 C 
ENDBRANCH  20  21
ENDBRANCH  13  20
ENDBRANCH   2  12
BRANCH   4  27
ATOM     27  C   UNL     1       0.663  10.039  21.842  0.00  0.00    +0.000 C 
ATOM     28  O   UNL     1       1.115   9.050  21.292  0.00  0.00    +0.000 OA
BRANCH  27  29
ATOM     29  O   UNL     1       0.404  10.108  23.170  0.00  0.00    +0.000 OA
ATOM     30  H   UNL     1      -0.051   9.295  23.469  0.00  0.00    +0.000 HD
ENDBRANCH  27  29
ENDBRANCH   4  27
BRANCH   6  31
ATOM     31  C   UNL     1       1.927  14.352  20.078  0.00  0.00    +0.000 C 
BRANCH  31  32
ATOM     32  O   UNL     1       2.886  14.890  21.009  0.00  0.00    +0.000 OA
ATOM     33  H   UNL     1       3.265  15.718  20.669  0.00  0.00    +0.000 HD
ENDBRANCH  31  32
BRANCH  31  34
ATOM     34  C   UNL     1       2.637  13.424  19.046  0.00  0.00    +0.000 C 
BRANCH  34  35
ATOM     35  O   UNL     1       1.682  12.869  18.136  0.00  0.00    +0.000 OA
ATOM     36  H   UNL     1       2.090  12.046  17.792  0.00  0.00    +0.000 HD
ENDBRANCH  34  35
BRANCH  34  37
ATOM     37  C   UNL     1       3.690  14.160  18.196  0.00  0.00    +0.000 C 
BRANCH  37  38
ATOM     38  O   UNL     1       3.394  15.557  18.197  0.00  0.00    +0.000 OA
ATOM     39  H   UNL     1       4.207  16.023  17.921  0.00  0.00    +0.000 HD
ENDBRANCH  37  38
ENDBRANCH  34  37
ENDBRANCH  31  34
ENDBRANCH   6  31
TORSDOF 13
ENDMDL
MODEL 9
REMARK VINA RESULT:      -5.8      2.480      5.843
REMARK  Name = 
REMARK  15 active torsions:
REMARK  status: ('A' for Active; 'I' for Inactive)
REMARK    1  A    between atoms: C_1  and  C_2
REMARK    2  A    between atoms: N_4  and  C_5
REMARK    3  A    between atoms: C_6  and  N_7
REMARK    4  A    between atoms: C_8  and  C_9
REMARK    5  A    between atoms: C_9  and  C_10
REMARK    6  A    between atoms: N_16  and  S_17
REMARK    7  A    between atoms: S_17  and  C_18
REMARK    8  A    between atoms: C_22  and  C_23
REMARK    9  A    between atoms: C_23  and  O_25
REMARK   10  A    between atoms: C_27  and  C_28
REMARK   11  A    between atoms: C_28  and  O_29
REMARK   12  A    between atoms: C_28  and  C_30
REMARK   13  A    between atoms: C_30  and  O_31
REMARK   14  A    between atoms: C_30  and  C_32
REMARK   15  A    between atoms: C_32  and  O_33
REMARK                            x       y       z     vdW  Elec       q    Type
REMARK                         _______ _______ _______ _____ _____    ______ ____
ROOT
ATOM      1  C   UNL     1      -3.179  12.338  20.856  0.00  0.00    +0.000 C 
ATOM      2  C   UNL     1      -1.969  11.771  20.043  0.00  0.00    +0.000 C 
ATOM      3  C   UNL     1      -2.322  11.199  18.717  0.00  0.00    +0.000 C 
ATOM      4  C   UNL     1      -3.426  11.555  18.059  0.00  0.00    +0.000 C 
ATOM      5  O   UNL     1      -4.472  12.243  18.609  0.00  0.00    +0.000 OA
ATOM      6  C   UNL     1      -4.326  12.854  19.907  0.00  0.00    +0.000 C 
ENDROOT
BRANCH   1  10
ATOM      7  C   UNL     1      -2.004  14.353  24.025  0.00  0.00    +0.000 C 
ATOM      8  C   UNL     1      -2.373  13.115  23.219  0.00  0.00    +0.000 C 
ATOM      9  O   UNL     1      -2.274  11.983  23.677  0.00  0.00    +0.000 OA
ATOM     10  N   UNL     1      -2.808  13.361  21.925  0.00  0.00    +0.000 N 
ATOM     11  H   UNL     1      -2.873  14.330  21.654  0.00  0.00    +0.000 HD
ENDBRANCH   1  10
BRANCH   2  12
ATOM     12  N   UNL     1      -1.152  10.770  20.763  0.00  0.00    +0.000 N 
ATOM     13  C   UNL     1       0.234  10.792  20.976  0.00  0.00    +0.000 C 
ATOM     14  N   UNL     1       1.140  11.706  20.875  0.00  0.00    +0.000 NA
ATOM     15  H   UNL     1      -1.510   9.820  20.628  0.00  0.00    +0.000 HD
BRANCH  14  16
ATOM     16  S   UNL     1       1.041  13.232  20.414  0.00  0.00    +0.000 S 
ATOM     17  C   UNL     1       2.706  13.807  20.567  0.00  0.00    +0.000 C 
ATOM     18  O   UNL     1       0.783  13.213  19.002  0.00  0.00    +0.000 OA
ATOM     19  O   UNL     1       0.183  14.000  21.278  0.00  0.00    +0.000 OA
ENDBRANCH  14  16
BRANCH  13  20
ATOM     20  C   UNL     1       0.870   9.447  21.514  0.00  0.00    +0.000 C 
BRANCH  20  21
ATOM     21  C   UNL     1       1.473   8.571  20.429  0.00  0.00    +0.000 C 
ATOM     22  C   UNL     1       1.921   7.337  20.704  0.00  0.00    +0.000 C 
ATOM     23  C   UNL     1       2.350   6.340  19.682  0.00  0.00    +0.000 C 
ATOM     24  C   UNL     1       2.330   6.772  18.220  0.00  0.00    +0.000 C 
ATOM     25  C   UNL     1       1.911   8.205  17.895  0.00  0.00    +0.000 C 
ATOM     26  C   UNL     1       1.617   9.165  19.050  0.00  0.00    +0.000 C 
ENDBRANCH  20  21
ENDBRANCH  13  20
ENDBRANCH   2  12
BRANCH   4  27
ATOM     27  C   UNL     1      -3.445  11.347  16.571  0.00  0.00    +0.000 C 
ATOM     28  O   UNL     1      -4.381  10.921  15.918  0.00  0.00    +0.000 OA
BRANCH  27  29
ATOM     29  O   UNL     1      -2.236  11.648  16.040  0.00  0.00    +0.000 OA
ATOM     30  H   UNL     1      -2.037  12.597  16.165  0.00  0.00    +0.000 HD
ENDBRANCH  27  29
ENDBRANCH   4  27
BRANCH   6  31
ATOM     31  C   UNL     1      -5.750  12.803  20.555  0.00  0.00    +0.000 C 
BRANCH  31  32
ATOM     32  O   UNL     1      -6.026  11.453  20.974  0.00  0.00    +0.000 OA
ATOM     33  H   UNL     1      -5.291  10.863  20.735  0.00  0.00    +0.000 HD
ENDBRANCH  31  32
BRANCH  31  34
ATOM     34  C   UNL     1      -5.968  13.791  21.741  0.00  0.00    +0.000 C 
BRANCH  34  35
ATOM     35  O   UNL     1      -6.925  14.794  21.385  0.00  0.00    +0.000 OA
ATOM     36  H   UNL     1      -7.005  14.751  20.408  0.00  0.00    +0.000 HD
ENDBRANCH  34  35
BRANCH  34  37
ATOM     37  C   UNL     1      -6.495  13.101  23.014  0.00  0.00    +0.000 C 
BRANCH  37  38
ATOM     38  O   UNL     1      -5.429  12.370  23.621  0.00  0.00    +0.000 OA
ATOM     39  H   UNL     1      -4.596  12.713  23.245  0.00  0.00    +0.000 HD
ENDBRANCH  37  38
ENDBRANCH  34  37
ENDBRANCH  31  34
ENDBRANCH   6  31
TORSDOF 13
ENDMDL
