MODEL 1
REMARK VINA RESULT:      -7.6      0.000      0.000
REMARK  Name = 
REMARK  4 active torsions:
REMARK  status: ('A' for Active; 'I' for Inactive)
REMARK    1  A    between atoms: C_2  and  O_4
REMARK    2  A    between atoms: O_4  and  N_5
REMARK    3  A    between atoms: N_9  and  C_10
REMARK    4  A    between atoms: C_10  and  C_11
REMARK                            x       y       z     vdW  Elec       q    Type
REMARK                         _______ _______ _______ _____ _____    ______ ____
ROOT
ATOM      1  N   UNL     1       7.564   4.812  15.309  0.00  0.00    +0.000 NA
ATOM      2  C   UNL     1       6.808   4.636  16.352  0.00  0.00    +0.000 C 
ATOM      3  C   UNL     1       7.460   4.649  17.720  0.00  0.00    +0.000 C 
ATOM      4  C   UNL     1       6.609   5.442  18.709  0.00  0.00    +0.000 C 
ATOM      5  N   UNL     1       5.174   5.111  18.696  0.00  0.00    +0.000 NA
ATOM      6  C   UNL     1       4.643   5.252  17.328  0.00  0.00    +0.000 C 
ATOM      7  C   UNL     1       5.326   4.336  16.317  0.00  0.00    +0.000 C 
ENDROOT
BRANCH   1   8
ATOM      8  O   UNL     1       6.811   4.716  14.112  0.00  0.00    +0.000 OA
BRANCH   8  10
ATOM      9  N   UNL     1       8.568   5.871  13.173  0.00  0.00    +0.000 N 
ATOM     10  C   UNL     1       7.569   4.970  12.991  0.00  0.00    +0.000 C 
ATOM     11  O   UNL     1       7.366   4.423  11.911  0.00  0.00    +0.000 OA
ATOM     12  H   UNL     1       9.209   6.081  12.427  0.00  0.00    +0.000 HD
ATOM     13  H   UNL     1       8.684   6.232  14.111  0.00  0.00    +0.000 HD
ENDBRANCH   8  10
ENDBRANCH   1   8
BRANCH   5  14
ATOM     14  C   UNL     1       4.860   3.783  19.256  0.00  0.00    +0.000 C 
BRANCH  14  15
ATOM     15  C   UNL     1       3.390   3.538  19.509  0.00  0.00    +0.000 A 
ATOM     16  C   UNL     1       2.672   4.334  20.412  0.00  0.00    +0.000 A 
ATOM     17  C   UNL     1       1.309   4.118  20.613  0.00  0.00    +0.000 A 
ATOM     18  C   UNL     1       0.649   3.108  19.913  0.00  0.00    +0.000 A 
ATOM     19  C   UNL     1       1.352   2.310  19.014  0.00  0.00    +0.000 A 
ATOM     20  C   UNL     1       2.716   2.523  18.813  0.00  0.00    +0.000 A 
ENDBRANCH  14  15
ENDBRANCH   5  14
TORSDOF 4
ENDMDL
MODEL 2
REMARK VINA RESULT:      -7.6      0.789      1.383
REMARK  Name = 
REMARK  4 active torsions:
REMARK  status: ('A' for Active; 'I' for Inactive)
REMARK    1  A    between atoms: C_2  and  O_4
REMARK    2  A    between atoms: O_4  and  N_5
REMARK    3  A    between atoms: N_9  and  C_10
REMARK    4  A    between atoms: C_10  and  C_11
REMARK                            x       y       z     vdW  Elec       q    Type
REMARK                         _______ _______ _______ _____ _____    ______ ____
ROOT
ATOM      1  N   UNL     1       7.618   5.190  15.456  0.00  0.00    +0.000 NA
ATOM      2  C   UNL     1       6.833   4.917  16.456  0.00  0.00    +0.000 C 
ATOM      3  C   UNL     1       7.446   4.790  17.836  0.00  0.00    +0.000 C 
ATOM      4  C   UNL     1       6.571   5.487  18.875  0.00  0.00    +0.000 C 
ATOM      5  N   UNL     1       5.136   5.169  18.790  0.00  0.00    +0.000 NA
ATOM      6  C   UNL     1       4.644   5.448  17.428  0.00  0.00    +0.000 C 
ATOM      7  C   UNL     1       5.351   4.632  16.351  0.00  0.00    +0.000 C 
ENDROOT
BRANCH   1   8
ATOM      8  O   UNL     1       6.898   5.217  14.235  0.00  0.00    +0.000 OA
BRANCH   8  10
ATOM      9  N   UNL     1       7.320   4.474  12.097  0.00  0.00    +0.000 N 
ATOM     10  C   UNL     1       7.726   5.248  13.136  0.00  0.00    +0.000 C 
ATOM     11  O   UNL     1       8.749   5.925  13.090  0.00  0.00    +0.000 OA
ATOM     12  H   UNL     1       7.830   4.473  11.231  0.00  0.00    +0.000 HD
ATOM     13  H   UNL     1       6.439   3.989  12.214  0.00  0.00    +0.000 HD
ENDBRANCH   8  10
ENDBRANCH   1   8
BRANCH   5  14
ATOM     14  C   UNL     1       4.802   3.795  19.208  0.00  0.00    +0.000 C 
BRANCH  14  15
ATOM     15  C   UNL     1       3.326   3.542  19.417  0.00  0.00    +0.000 A 
ATOM     16  C   UNL     1       2.646   2.583  18.654  0.00  0.00    +0.000 A 
ATOM     17  C   UNL     1       1.291   2.335  18.878  0.00  0.00    +0.000 A 
ATOM     18  C   UNL     1       0.605   3.040  19.867  0.00  0.00    +0.000 A 
ATOM     19  C   UNL     1       1.270   3.996  20.630  0.00  0.00    +0.000 A 
ATOM     20  C   UNL     1       2.624   4.246  20.407  0.00  0.00    +0.000 A 
ENDBRANCH  14  15
ENDBRANCH   5  14
TORSDOF 4
ENDMDL
MODEL 3
REMARK VINA RESULT:      -7.4      1.294      1.310
REMARK  Name = 
REMARK  4 active torsions:
REMARK  status: ('A' for Active; 'I' for Inactive)
REMARK    1  A    between atoms: C_2  and  O_4
REMARK    2  A    between atoms: O_4  and  N_5
REMARK    3  A    between atoms: N_9  and  C_10
REMARK    4  A    between atoms: C_10  and  C_11
REMARK                            x       y       z     vdW  Elec       q    Type
REMARK                         _______ _______ _______ _____ _____    ______ ____
ROOT
ATOM      1  N   UNL     1       6.850   4.285  14.657  0.00  0.00    +0.000 NA
ATOM      2  C   UNL     1       6.315   4.345  15.841  0.00  0.00    +0.000 C 
ATOM      3  C   UNL     1       7.222   4.616  17.024  0.00  0.00    +0.000 C 
ATOM      4  C   UNL     1       6.571   5.616  17.977  0.00  0.00    +0.000 C 
ATOM      5  N   UNL     1       5.165   5.329  18.311  0.00  0.00    +0.000 NA
ATOM      6  C   UNL     1       4.376   5.205  17.072  0.00  0.00    +0.000 C 
ATOM      7  C   UNL     1       4.859   4.085  16.156  0.00  0.00    +0.000 C 
ENDROOT
BRANCH   1   8
ATOM      8  O   UNL     1       5.879   3.970  13.675  0.00  0.00    +0.000 OA
BRANCH   8  10
ATOM      9  N   UNL     1       6.010   2.399  11.996  0.00  0.00    +0.000 N 
ATOM     10  C   UNL     1       6.444   3.591  12.478  0.00  0.00    +0.000 C 
ATOM     11  O   UNL     1       7.271   4.278  11.884  0.00  0.00    +0.000 OA
ATOM     12  H   UNL     1       6.325   2.063  11.101  0.00  0.00    +0.000 HD
ATOM     13  H   UNL     1       5.293   1.930  12.534  0.00  0.00    +0.000 HD
ENDBRANCH   8  10
ENDBRANCH   1   8
BRANCH   5  14
ATOM     14  C   UNL     1       4.985   4.152  19.180  0.00  0.00    +0.000 C 
BRANCH  14  15
ATOM     15  C   UNL     1       3.558   3.900  19.610  0.00  0.00    +0.000 A 
ATOM     16  C   UNL     1       2.810   4.900  20.247  0.00  0.00    +0.000 A 
ATOM     17  C   UNL     1       1.484   4.665  20.610  0.00  0.00    +0.000 A 
ATOM     18  C   UNL     1       0.891   3.433  20.339  0.00  0.00    +0.000 A 
ATOM     19  C   UNL     1       1.624   2.431  19.708  0.00  0.00    +0.000 A 
ATOM     20  C   UNL     1       2.950   2.663  19.345  0.00  0.00    +0.000 A 
ENDBRANCH  14  15
ENDBRANCH   5  14
TORSDOF 4
ENDMDL
MODEL 4
REMARK VINA RESULT:      -7.2      1.388      1.972
REMARK  Name = 
REMARK  4 active torsions:
REMARK  status: ('A' for Active; 'I' for Inactive)
REMARK    1  A    between atoms: C_2  and  O_4
REMARK    2  A    between atoms: O_4  and  N_5
REMARK    3  A    between atoms: N_9  and  C_10
REMARK    4  A    between atoms: C_10  and  C_11
REMARK                            x       y       z     vdW  Elec       q    Type
REMARK                         _______ _______ _______ _____ _____    ______ ____
ROOT
ATOM      1  N   UNL     1       7.153   4.619  15.867  0.00  0.00    +0.000 NA
ATOM      2  C   UNL     1       6.062   5.011  16.455  0.00  0.00    +0.000 C 
ATOM      3  C   UNL     1       5.468   4.124  17.531  0.00  0.00    +0.000 C 
ATOM      4  C   UNL     1       5.002   4.963  18.719  0.00  0.00    +0.000 C 
ATOM      5  N   UNL     1       4.203   6.149  18.364  0.00  0.00    +0.000 NA
ATOM      6  C   UNL     1       4.947   6.981  17.402  0.00  0.00    +0.000 C 
ATOM      7  C   UNL     1       5.277   6.255  16.101  0.00  0.00    +0.000 C 
ENDROOT
BRANCH   1   8
ATOM      8  O   UNL     1       7.542   5.530  14.854  0.00  0.00    +0.000 OA
BRANCH   8  10
ATOM      9  N   UNL     1       6.713   3.848  13.517  0.00  0.00    +0.000 N 
ATOM     10  C   UNL     1       7.449   4.986  13.593  0.00  0.00    +0.000 C 
ATOM     11  O   UNL     1       7.981   5.490  12.608  0.00  0.00    +0.000 OA
ATOM     12  H   UNL     1       6.543   3.407  12.629  0.00  0.00    +0.000 HD
ATOM     13  H   UNL     1       6.276   3.537  14.375  0.00  0.00    +0.000 HD
ENDBRANCH   8  10
ENDBRANCH   1   8
BRANCH   5  14
ATOM     14  C   UNL     1       2.853   5.832  17.864  0.00  0.00    +0.000 C 
BRANCH  14  15
ATOM     15  C   UNL     1       2.116   4.781  18.664  0.00  0.00    +0.000 A 
ATOM     16  C   UNL     1       1.667   3.600  18.058  0.00  0.00    +0.000 A 
ATOM     17  C   UNL     1       1.016   2.623  18.814  0.00  0.00    +0.000 A 
ATOM     18  C   UNL     1       0.812   2.816  20.179  0.00  0.00    +0.000 A 
ATOM     19  C   UNL     1       1.253   3.986  20.792  0.00  0.00    +0.000 A 
ATOM     20  C   UNL     1       1.902   4.964  20.038  0.00  0.00    +0.000 A 
ENDBRANCH  14  15
ENDBRANCH   5  14
TORSDOF 4
ENDMDL
MODEL 5
REMARK VINA RESULT:      -7.2      1.302      1.580
REMARK  Name = 
REMARK  4 active torsions:
REMARK  status: ('A' for Active; 'I' for Inactive)
REMARK    1  A    between atoms: C_2  and  O_4
REMARK    2  A    between atoms: O_4  and  N_5
REMARK    3  A    between atoms: N_9  and  C_10
REMARK    4  A    between atoms: C_10  and  C_11
REMARK                            x       y       z     vdW  Elec       q    Type
REMARK                         _______ _______ _______ _____ _____    ______ ____
ROOT
ATOM      1  N   UNL     1       7.165   4.834  16.175  0.00  0.00    +0.000 NA
ATOM      2  C   UNL     1       6.022   5.169  16.696  0.00  0.00    +0.000 C 
ATOM      3  C   UNL     1       5.457   4.303  17.803  0.00  0.00    +0.000 C 
ATOM      4  C   UNL     1       4.875   5.170  18.917  0.00  0.00    +0.000 C 
ATOM      5  N   UNL     1       3.998   6.261  18.457  0.00  0.00    +0.000 NA
ATOM      6  C   UNL     1       4.712   7.093  17.472  0.00  0.00    +0.000 C 
ATOM      7  C   UNL     1       5.155   6.319  16.234  0.00  0.00    +0.000 C 
ENDROOT
BRANCH   1   8
ATOM      8  O   UNL     1       7.521   5.712  15.120  0.00  0.00    +0.000 OA
BRANCH   8  10
ATOM      9  N   UNL     1       8.306   5.643  12.957  0.00  0.00    +0.000 N 
ATOM     10  C   UNL     1       7.484   5.098  13.889  0.00  0.00    +0.000 C 
ATOM     11  O   UNL     1       6.770   4.128  13.649  0.00  0.00    +0.000 OA
ATOM     12  H   UNL     1       8.389   5.230  12.043  0.00  0.00    +0.000 HD
ATOM     13  H   UNL     1       8.889   6.411  13.264  0.00  0.00    +0.000 HD
ENDBRANCH   8  10
ENDBRANCH   1   8
BRANCH   5  14
ATOM     14  C   UNL     1       2.700   5.803  17.929  0.00  0.00    +0.000 C 
BRANCH  14  15
ATOM     15  C   UNL     1       2.054   4.692  18.725  0.00  0.00    +0.000 A 
ATOM     16  C   UNL     1       1.846   4.821  20.104  0.00  0.00    +0.000 A 
ATOM     17  C   UNL     1       1.219   3.802  20.822  0.00  0.00    +0.000 A 
ATOM     18  C   UNL     1       0.791   2.647  20.168  0.00  0.00    +0.000 A 
ATOM     19  C   UNL     1       0.993   2.506  18.798  0.00  0.00    +0.000 A 
ATOM     20  C   UNL     1       1.621   3.523  18.079  0.00  0.00    +0.000 A 
ENDBRANCH  14  15
ENDBRANCH   5  14
TORSDOF 4
ENDMDL
MODEL 6
REMARK VINA RESULT:      -7.1      1.223      1.841
REMARK  Name = 
REMARK  4 active torsions:
REMARK  status: ('A' for Active; 'I' for Inactive)
REMARK    1  A    between atoms: C_2  and  O_4
REMARK    2  A    between atoms: O_4  and  N_5
REMARK    3  A    between atoms: N_9  and  C_10
REMARK    4  A    between atoms: C_10  and  C_11
REMARK                            x       y       z     vdW  Elec       q    Type
REMARK                         _______ _______ _______ _____ _____    ______ ____
ROOT
ATOM      1  N   UNL     1       6.503   4.551  14.735  0.00  0.00    +0.000 NA
ATOM      2  C   UNL     1       5.673   4.919  15.666  0.00  0.00    +0.000 C 
ATOM      3  C   UNL     1       5.119   3.857  16.594  0.00  0.00    +0.000 C 
ATOM      4  C   UNL     1       5.109   4.360  18.036  0.00  0.00    +0.000 C 
ATOM      5  N   UNL     1       4.550   5.711  18.216  0.00  0.00    +0.000 NA
ATOM      6  C   UNL     1       5.258   6.663  17.340  0.00  0.00    +0.000 C 
ATOM      7  C   UNL     1       5.142   6.322  15.858  0.00  0.00    +0.000 C 
ENDROOT
BRANCH   1   8
ATOM      8  O   UNL     1       6.880   5.650  13.924  0.00  0.00    +0.000 OA
BRANCH   8  10
ATOM      9  N   UNL     1       9.011   5.900  13.090  0.00  0.00    +0.000 N 
ATOM     10  C   UNL     1       7.800   5.303  12.960  0.00  0.00    +0.000 C 
ATOM     11  O   UNL     1       7.551   4.510  12.056  0.00  0.00    +0.000 OA
ATOM     12  H   UNL     1       9.765   5.668  12.465  0.00  0.00    +0.000 HD
ATOM     13  H   UNL     1       9.133   6.502  13.894  0.00  0.00    +0.000 HD
ENDBRANCH   8  10
ENDBRANCH   1   8
BRANCH   5  14
ATOM     14  C   UNL     1       3.091   5.786  18.019  0.00  0.00    +0.000 C 
BRANCH  14  15
ATOM     15  C   UNL     1       2.294   4.794  18.835  0.00  0.00    +0.000 A 
ATOM     16  C   UNL     1       1.585   3.757  18.215  0.00  0.00    +0.000 A 
ATOM     17  C   UNL     1       0.879   2.829  18.981  0.00  0.00    +0.000 A 
ATOM     18  C   UNL     1       0.877   2.926  20.371  0.00  0.00    +0.000 A 
ATOM     19  C   UNL     1       1.577   3.954  20.999  0.00  0.00    +0.000 A 
ATOM     20  C   UNL     1       2.282   4.883  20.235  0.00  0.00    +0.000 A 
ENDBRANCH  14  15
ENDBRANCH   5  14
TORSDOF 4
ENDMDL
MODEL 7
REMARK VINA RESULT:      -7.1      1.176      1.618
REMARK  Name = 
REMARK  4 active torsions:
REMARK  status: ('A' for Active; 'I' for Inactive)
REMARK    1  A    between atoms: C_2  and  O_4
REMARK    2  A    between atoms: O_4  and  N_5
REMARK    3  A    between atoms: N_9  and  C_10
REMARK    4  A    between atoms: C_10  and  C_11
REMARK                            x       y       z     vdW  Elec       q    Type
REMARK                         _______ _______ _______ _____ _____    ______ ____
ROOT
ATOM      1  N   UNL     1       6.704   4.231  14.616  0.00  0.00    +0.000 NA
ATOM      2  C   UNL     1       6.216   4.313  15.819  0.00  0.00    +0.000 C 
ATOM      3  C   UNL     1       7.174   4.550  16.968  0.00  0.00    +0.000 C 
ATOM      4  C   UNL     1       6.598   5.576  17.941  0.00  0.00    +0.000 C 
ATOM      5  N   UNL     1       5.195   5.344  18.326  0.00  0.00    +0.000 NA
ATOM      6  C   UNL     1       4.357   5.249  17.117  0.00  0.00    +0.000 C 
ATOM      7  C   UNL     1       4.763   4.110  16.187  0.00  0.00    +0.000 C 
ENDROOT
BRANCH   1   8
ATOM      8  O   UNL     1       5.686   3.953  13.671  0.00  0.00    +0.000 OA
BRANCH   8  10
ATOM      9  N   UNL     1       7.255   4.209  12.005  0.00  0.00    +0.000 N 
ATOM     10  C   UNL     1       6.191   3.507  12.470  0.00  0.00    +0.000 C 
ATOM     11  O   UNL     1       5.723   2.546  11.866  0.00  0.00    +0.000 OA
ATOM     12  H   UNL     1       7.726   3.926  11.163  0.00  0.00    +0.000 HD
ATOM     13  H   UNL     1       7.596   4.955  12.598  0.00  0.00    +0.000 HD
ENDBRANCH   8  10
ENDBRANCH   1   8
BRANCH   5  14
ATOM     14  C   UNL     1       5.001   4.176  19.204  0.00  0.00    +0.000 C 
BRANCH  14  15
ATOM     15  C   UNL     1       3.563   3.910  19.590  0.00  0.00    +0.000 A 
ATOM     16  C   UNL     1       2.962   2.674  19.320  0.00  0.00    +0.000 A 
ATOM     17  C   UNL     1       1.644   2.430  19.709  0.00  0.00    +0.000 A 
ATOM     18  C   UNL     1       0.918   3.416  20.375  0.00  0.00    +0.000 A 
ATOM     19  C   UNL     1       1.504   4.649  20.648  0.00  0.00    +0.000 A 
ATOM     20  C   UNL     1       2.820   4.895  20.258  0.00  0.00    +0.000 A 
ENDBRANCH  14  15
ENDBRANCH   5  14
TORSDOF 4
ENDMDL
MODEL 8
REMARK VINA RESULT:      -6.9      1.378      1.570
REMARK  Name = 
REMARK  4 active torsions:
REMARK  status: ('A' for Active; 'I' for Inactive)
REMARK    1  A    between atoms: C_2  and  O_4
REMARK    2  A    between atoms: O_4  and  N_5
REMARK    3  A    between atoms: N_9  and  C_10
REMARK    4  A    between atoms: C_10  and  C_11
REMARK                            x       y       z     vdW  Elec       q    Type
REMARK                         _______ _______ _______ _____ _____    ______ ____
ROOT
ATOM      1  N   UNL     1       7.311   5.847  15.523  0.00  0.00    +0.000 NA
ATOM      2  C   UNL     1       6.408   5.716  16.450  0.00  0.00    +0.000 C 
ATOM      3  C   UNL     1       6.049   6.932  17.279  0.00  0.00    +0.000 C 
ATOM      4  C   UNL     1       4.537   7.016  17.477  0.00  0.00    +0.000 C 
ATOM      5  N   UNL     1       3.896   5.756  17.891  0.00  0.00    +0.000 NA
ATOM      6  C   UNL     1       4.234   4.687  16.934  0.00  0.00    +0.000 C 
ATOM      7  C   UNL     1       5.733   4.418  16.833  0.00  0.00    +0.000 C 
ENDROOT
BRANCH   1   8
ATOM      8  O   UNL     1       7.568   4.610  14.883  0.00  0.00    +0.000 OA
BRANCH   8  10
ATOM      9  N   UNL     1       7.959   5.593  12.838  0.00  0.00    +0.000 N 
ATOM     10  C   UNL     1       7.285   4.644  13.536  0.00  0.00    +0.000 C 
ATOM     11  O   UNL     1       6.491   3.876  13.002  0.00  0.00    +0.000 OA
ATOM     12  H   UNL     1       7.859   5.660  11.839  0.00  0.00    +0.000 HD
ATOM     13  H   UNL     1       8.626   6.147  13.359  0.00  0.00    +0.000 HD
ENDBRANCH   8  10
ENDBRANCH   1   8
BRANCH   5  14
ATOM     14  C   UNL     1       4.207   5.353  19.275  0.00  0.00    +0.000 C 
BRANCH  14  15
ATOM     15  C   UNL     1       3.152   4.492  19.932  0.00  0.00    +0.000 A 
ATOM     16  C   UNL     1       1.797   4.843  19.873  0.00  0.00    +0.000 A 
ATOM     17  C   UNL     1       0.830   4.023  20.456  0.00  0.00    +0.000 A 
ATOM     18  C   UNL     1       1.207   2.844  21.098  0.00  0.00    +0.000 A 
ATOM     19  C   UNL     1       2.551   2.485  21.164  0.00  0.00    +0.000 A 
ATOM     20  C   UNL     1       3.519   3.304  20.584  0.00  0.00    +0.000 A 
ENDBRANCH  14  15
ENDBRANCH   5  14
TORSDOF 4
ENDMDL
MODEL 9
REMARK VINA RESULT:      -6.8      2.688      3.682
REMARK  Name = 
REMARK  4 active torsions:
REMARK  status: ('A' for Active; 'I' for Inactive)
REMARK    1  A    between atoms: C_2  and  O_4
REMARK    2  A    between atoms: O_4  and  N_5
REMARK    3  A    between atoms: N_9  and  C_10
REMARK    4  A    between atoms: C_10  and  C_11
REMARK                            x       y       z     vdW  Elec       q    Type
REMARK                         _______ _______ _______ _____ _____    ______ ____
ROOT
ATOM      1  N   UNL     1       7.670   6.824  16.946  0.00  0.00    +0.000 NA
ATOM      2  C   UNL     1       6.591   6.102  17.033  0.00  0.00    +0.000 C 
ATOM      3  C   UNL     1       6.003   5.535  15.757  0.00  0.00    +0.000 C 
ATOM      4  C   UNL     1       5.563   4.088  15.969  0.00  0.00    +0.000 C 
ATOM      5  N   UNL     1       4.772   3.854  17.189  0.00  0.00    +0.000 NA
ATOM      6  C   UNL     1       5.512   4.347  18.365  0.00  0.00    +0.000 C 
ATOM      7  C   UNL     1       5.816   5.841  18.305  0.00  0.00    +0.000 C 
ENDROOT
BRANCH   1   8
ATOM      8  O   UNL     1       8.055   7.321  18.216  0.00  0.00    +0.000 OA
BRANCH   8  10
ATOM      9  N   UNL     1       9.082   9.158  19.149  0.00  0.00    +0.000 N 
ATOM     10  C   UNL     1       8.211   8.688  18.221  0.00  0.00    +0.000 C 
ATOM     11  O   UNL     1       7.616   9.430  17.444  0.00  0.00    +0.000 OA
ATOM     12  H   UNL     1       9.303  10.138  19.195  0.00  0.00    +0.000 HD
ATOM     13  H   UNL     1       9.557   8.464  19.713  0.00  0.00    +0.000 HD
ENDBRANCH   8  10
ENDBRANCH   1   8
BRANCH   5  14
ATOM     14  C   UNL     1       3.411   4.419  17.138  0.00  0.00    +0.000 C 
BRANCH  14  15
ATOM     15  C   UNL     1       2.492   3.950  18.243  0.00  0.00    +0.000 A 
ATOM     16  C   UNL     1       2.004   2.637  18.264  0.00  0.00    +0.000 A 
ATOM     17  C   UNL     1       1.182   2.206  19.306  0.00  0.00    +0.000 A 
ATOM     18  C   UNL     1       0.845   3.081  20.338  0.00  0.00    +0.000 A 
ATOM     19  C   UNL     1       1.324   4.389  20.328  0.00  0.00    +0.000 A 
ATOM     20  C   UNL     1       2.144   4.821  19.286  0.00  0.00    +0.000 A 
ENDBRANCH  14  15
ENDBRANCH   5  14
TORSDOF 4
ENDMDL
