MODEL 1
REMARK VINA RESULT:      -8.2      0.000      0.000
REMARK  Name = 
REMARK  7 active torsions:
REMARK  status: ('A' for Active; 'I' for Inactive)
REMARK    1  A    between atoms: C_1  and  C_2
REMARK    2  A    between atoms: C_5  and  C_6
REMARK    3  A    between atoms: C_6  and  C_8
REMARK    4  A    between atoms: C_8  and  C_9
REMARK    5  A    between atoms: C_9  and  N_10
REMARK    6  A    between atoms: N_10  and  C_11
REMARK    7  A    between atoms: C_14  and  C_15
REMARK                            x       y       z     vdW  Elec       q    Type
REMARK                         _______ _______ _______ _____ _____    ______ ____
ROOT
ATOM      1  C   UNL     1       6.693   6.765  17.162  0.00  0.00    +0.000 A 
ATOM      2  C   UNL     1       5.361   7.163  17.344  0.00  0.00    +0.000 A 
ATOM      3  C   UNL     1       4.320   6.227  17.447  0.00  0.00    +0.000 A 
ATOM      4  C   UNL     1       4.592   4.863  17.326  0.00  0.00    +0.000 A 
ATOM      5  C   UNL     1       5.898   4.477  17.008  0.00  0.00    +0.000 A 
ATOM      6  C   UNL     1       6.945   5.404  16.992  0.00  0.00    +0.000 A 
ENDROOT
BRANCH   4   7
ATOM      7  C   UNL     1       3.481   3.870  17.489  0.00  0.00    +0.000 C 
ATOM      8  O   UNL     1       2.969   3.413  16.478  0.00  0.00    +0.000 OA
ATOM      9  N   UNL     1       3.061   3.512  18.777  0.00  0.00    +0.000 N 
ATOM     10  C   UNL     1       2.116   2.396  18.938  0.00  0.00    +0.000 C 
ATOM     11  C   UNL     1       0.874   2.832  19.709  0.00  0.00    +0.000 C 
ATOM     12  C   UNL     1       1.237   3.512  21.030  0.00  0.00    +0.000 C 
ATOM     13  C   UNL     1       2.217   4.648  20.802  0.00  0.00    +0.000 C 
ATOM     14  C   UNL     1       3.426   4.168  20.027  0.00  0.00    +0.000 C 
ENDBRANCH   4   7
BRANCH   1  15
ATOM     15  N   UNL     1       7.752   7.663  17.067  0.00  0.00    +0.000 N 
ATOM     16  H   UNL     1       8.519   7.368  16.473  0.00  0.00    +0.000 HD
BRANCH  15  17
ATOM     17  C   UNL     1       8.098   8.463  18.239  0.00  0.00    +0.000 C 
BRANCH  17  18
ATOM     18  C   UNL     1       8.639   9.827  17.819  0.00  0.00    +0.000 C 
BRANCH  18  19
ATOM     19  C   UNL     1       9.339  10.504  18.982  0.00  0.00    +0.000 C 
ATOM     20  O   UNL     1       9.315  10.040  20.118  0.00  0.00    +0.000 OA
BRANCH  19  25
ATOM     21  C   UNL     1      12.332  15.403  18.107  0.00  0.00    +0.000 C 
ATOM     22  C   UNL     1      11.555  14.141  18.336  0.00  0.00    +0.000 A 
ATOM     23  C   UNL     1      11.851  13.297  19.410  0.00  0.00    +0.000 A 
ATOM     24  C   UNL     1      11.122  12.121  19.604  0.00  0.00    +0.000 A 
ATOM     25  C   UNL     1      10.087  11.771  18.726  0.00  0.00    +0.000 A 
ATOM     26  C   UNL     1       9.786  12.618  17.655  0.00  0.00    +0.000 A 
ATOM     27  C   UNL     1      10.518  13.792  17.461  0.00  0.00    +0.000 A 
ENDBRANCH  19  25
ENDBRANCH  18  19
ENDBRANCH  17  18
ENDBRANCH  15  17
ENDBRANCH   1  15
TORSDOF 6
ENDMDL
MODEL 2
REMARK VINA RESULT:      -8.1      5.153      8.144
REMARK  Name = 
REMARK  7 active torsions:
REMARK  status: ('A' for Active; 'I' for Inactive)
REMARK    1  A    between atoms: C_1  and  C_2
REMARK    2  A    between atoms: C_5  and  C_6
REMARK    3  A    between atoms: C_6  and  C_8
REMARK    4  A    between atoms: C_8  and  C_9
REMARK    5  A    between atoms: C_9  and  N_10
REMARK    6  A    between atoms: N_10  and  C_11
REMARK    7  A    between atoms: C_14  and  C_15
REMARK                            x       y       z     vdW  Elec       q    Type
REMARK                         _______ _______ _______ _____ _____    ______ ____
ROOT
ATOM      1  C   UNL     1       2.082   7.210  20.003  0.00  0.00    +0.000 A 
ATOM      2  C   UNL     1       1.273   7.695  21.040  0.00  0.00    +0.000 A 
ATOM      3  C   UNL     1       0.510   8.864  20.892  0.00  0.00    +0.000 A 
ATOM      4  C   UNL     1       0.577   9.598  19.706  0.00  0.00    +0.000 A 
ATOM      5  C   UNL     1       1.488   9.187  18.728  0.00  0.00    +0.000 A 
ATOM      6  C   UNL     1       2.179   7.977  18.843  0.00  0.00    +0.000 A 
ENDROOT
BRANCH   4   7
ATOM      7  C   UNL     1      -0.281  10.816  19.541  0.00  0.00    +0.000 C 
ATOM      8  O   UNL     1      -0.164  11.714  20.360  0.00  0.00    +0.000 OA
ATOM      9  N   UNL     1      -1.186  10.880  18.473  0.00  0.00    +0.000 N 
ATOM     10  C   UNL     1      -1.877  12.149  18.196  0.00  0.00    +0.000 C 
ATOM     11  C   UNL     1      -3.392  11.963  18.196  0.00  0.00    +0.000 C 
ATOM     12  C   UNL     1      -3.823  10.825  17.271  0.00  0.00    +0.000 C 
ATOM     13  C   UNL     1      -3.074   9.547  17.599  0.00  0.00    +0.000 C 
ATOM     14  C   UNL     1      -1.578   9.785  17.595  0.00  0.00    +0.000 C 
ENDBRANCH   4   7
BRANCH   1  15
ATOM     15  N   UNL     1       2.842   6.048  20.109  0.00  0.00    +0.000 N 
ATOM     16  H   UNL     1       3.821   6.148  19.864  0.00  0.00    +0.000 HD
BRANCH  15  17
ATOM     17  C   UNL     1       2.213   4.769  19.795  0.00  0.00    +0.000 C 
BRANCH  17  18
ATOM     18  C   UNL     1       2.291   4.484  18.298  0.00  0.00    +0.000 C 
BRANCH  18  19
ATOM     19  C   UNL     1       3.681   4.010  17.918  0.00  0.00    +0.000 C 
ATOM     20  O   UNL     1       3.931   2.828  17.701  0.00  0.00    +0.000 OA
BRANCH  19  25
ATOM     21  C   UNL     1       8.002   7.872  17.544  0.00  0.00    +0.000 C 
ATOM     22  C   UNL     1       6.884   6.878  17.644  0.00  0.00    +0.000 A 
ATOM     23  C   UNL     1       6.958   5.796  18.525  0.00  0.00    +0.000 A 
ATOM     24  C   UNL     1       5.910   4.874  18.600  0.00  0.00    +0.000 A 
ATOM     25  C   UNL     1       4.772   5.021  17.795  0.00  0.00    +0.000 A 
ATOM     26  C   UNL     1       4.694   6.108  16.918  0.00  0.00    +0.000 A 
ATOM     27  C   UNL     1       5.745   7.027  16.842  0.00  0.00    +0.000 A 
ENDBRANCH  19  25
ENDBRANCH  18  19
ENDBRANCH  17  18
ENDBRANCH  15  17
ENDBRANCH   1  15
TORSDOF 6
ENDMDL
MODEL 3
REMARK VINA RESULT:      -8.0      1.745      2.037
REMARK  Name = 
REMARK  7 active torsions:
REMARK  status: ('A' for Active; 'I' for Inactive)
REMARK    1  A    between atoms: C_1  and  C_2
REMARK    2  A    between atoms: C_5  and  C_6
REMARK    3  A    between atoms: C_6  and  C_8
REMARK    4  A    between atoms: C_8  and  C_9
REMARK    5  A    between atoms: C_9  and  N_10
REMARK    6  A    between atoms: N_10  and  C_11
REMARK    7  A    between atoms: C_14  and  C_15
REMARK                            x       y       z     vdW  Elec       q    Type
REMARK                         _______ _______ _______ _____ _____    ______ ____
ROOT
ATOM      1  C   UNL     1       7.260   7.050  17.473  0.00  0.00    +0.000 A 
ATOM      2  C   UNL     1       5.957   7.216  16.983  0.00  0.00    +0.000 A 
ATOM      3  C   UNL     1       4.991   6.205  17.106  0.00  0.00    +0.000 A 
ATOM      4  C   UNL     1       5.328   4.983  17.690  0.00  0.00    +0.000 A 
ATOM      5  C   UNL     1       6.661   4.772  18.053  0.00  0.00    +0.000 A 
ATOM      6  C   UNL     1       7.598   5.808  18.009  0.00  0.00    +0.000 A 
ENDROOT
BRANCH   4   7
ATOM      7  C   UNL     1       4.274   3.930  17.863  0.00  0.00    +0.000 C 
ATOM      8  O   UNL     1       4.118   3.123  16.960  0.00  0.00    +0.000 OA
ATOM      9  N   UNL     1       3.503   3.913  19.033  0.00  0.00    +0.000 N 
ATOM     10  C   UNL     1       2.616   2.768  19.289  0.00  0.00    +0.000 C 
ATOM     11  C   UNL     1       1.176   3.225  19.510  0.00  0.00    +0.000 C 
ATOM     12  C   UNL     1       1.085   4.312  20.580  0.00  0.00    +0.000 C 
ATOM     13  C   UNL     1       2.025   5.461  20.267  0.00  0.00    +0.000 C 
ATOM     14  C   UNL     1       3.436   4.957  20.049  0.00  0.00    +0.000 C 
ENDBRANCH   4   7
BRANCH   1  15
ATOM     15  N   UNL     1       8.241   8.034  17.379  0.00  0.00    +0.000 N 
ATOM     16  H   UNL     1       9.196   7.698  17.420  0.00  0.00    +0.000 HD
BRANCH  15  17
ATOM     17  C   UNL     1       7.979   9.342  17.973  0.00  0.00    +0.000 C 
BRANCH  17  18
ATOM     18  C   UNL     1       9.042   9.683  19.014  0.00  0.00    +0.000 C 
BRANCH  18  19
ATOM     19  C   UNL     1       9.670  11.030  18.712  0.00  0.00    +0.000 C 
ATOM     20  O   UNL     1      10.169  11.287  17.620  0.00  0.00    +0.000 OA
BRANCH  19  25
ATOM     21  C   UNL     1       9.601  14.998  22.952  0.00  0.00    +0.000 C 
ATOM     22  C   UNL     1       9.614  13.975  21.856  0.00  0.00    +0.000 A 
ATOM     23  C   UNL     1       9.125  12.683  22.068  0.00  0.00    +0.000 A 
ATOM     24  C   UNL     1       9.152  11.740  21.037  0.00  0.00    +0.000 A 
ATOM     25  C   UNL     1       9.669  12.075  19.779  0.00  0.00    +0.000 A 
ATOM     26  C   UNL     1      10.152  13.370  19.562  0.00  0.00    +0.000 A 
ATOM     27  C   UNL     1      10.127  14.310  20.596  0.00  0.00    +0.000 A 
ENDBRANCH  19  25
ENDBRANCH  18  19
ENDBRANCH  17  18
ENDBRANCH  15  17
ENDBRANCH   1  15
TORSDOF 6
ENDMDL
MODEL 4
REMARK VINA RESULT:      -8.0      1.739      2.268
REMARK  Name = 
REMARK  7 active torsions:
REMARK  status: ('A' for Active; 'I' for Inactive)
REMARK    1  A    between atoms: C_1  and  C_2
REMARK    2  A    between atoms: C_5  and  C_6
REMARK    3  A    between atoms: C_6  and  C_8
REMARK    4  A    between atoms: C_8  and  C_9
REMARK    5  A    between atoms: C_9  and  N_10
REMARK    6  A    between atoms: N_10  and  C_11
REMARK    7  A    between atoms: C_14  and  C_15
REMARK                            x       y       z     vdW  Elec       q    Type
REMARK                         _______ _______ _______ _____ _____    ______ ____
ROOT
ATOM      1  C   UNL     1       6.944   6.980  17.335  0.00  0.00    +0.000 A 
ATOM      2  C   UNL     1       7.225   5.990  18.287  0.00  0.00    +0.000 A 
ATOM      3  C   UNL     1       6.344   4.923  18.522  0.00  0.00    +0.000 A 
ATOM      4  C   UNL     1       5.134   4.851  17.830  0.00  0.00    +0.000 A 
ATOM      5  C   UNL     1       4.795   5.910  16.983  0.00  0.00    +0.000 A 
ATOM      6  C   UNL     1       5.710   6.924  16.686  0.00  0.00    +0.000 A 
ENDROOT
BRANCH   4   7
ATOM      7  C   UNL     1       4.224   3.679  18.052  0.00  0.00    +0.000 C 
ATOM      8  O   UNL     1       4.208   2.799  17.205  0.00  0.00    +0.000 OA
ATOM      9  N   UNL     1       3.424   3.637  19.201  0.00  0.00    +0.000 N 
ATOM     10  C   UNL     1       2.688   2.403  19.516  0.00  0.00    +0.000 C 
ATOM     11  C   UNL     1       1.194   2.675  19.668  0.00  0.00    +0.000 C 
ATOM     12  C   UNL     1       0.922   3.810  20.656  0.00  0.00    +0.000 C 
ATOM     13  C   UNL     1       1.711   5.051  20.285  0.00  0.00    +0.000 C 
ATOM     14  C   UNL     1       3.184   4.728  20.138  0.00  0.00    +0.000 C 
ENDBRANCH   4   7
BRANCH   1  15
ATOM     15  N   UNL     1       7.799   8.046  17.066  0.00  0.00    +0.000 N 
ATOM     16  H   UNL     1       8.410   7.919  16.267  0.00  0.00    +0.000 HD
BRANCH  15  17
ATOM     17  C   UNL     1       8.331   8.816  18.187  0.00  0.00    +0.000 C 
BRANCH  17  18
ATOM     18  C   UNL     1       8.143  10.311  17.949  0.00  0.00    +0.000 C 
BRANCH  18  19
ATOM     19  C   UNL     1       9.404  11.071  18.311  0.00  0.00    +0.000 C 
ATOM     20  O   UNL     1      10.439  10.967  17.660  0.00  0.00    +0.000 OA
BRANCH  19  25
ATOM     21  C   UNL     1       9.265  14.731  22.818  0.00  0.00    +0.000 C 
ATOM     22  C   UNL     1       9.307  13.787  21.654  0.00  0.00    +0.000 A 
ATOM     23  C   UNL     1       9.117  14.245  20.347  0.00  0.00    +0.000 A 
ATOM     24  C   UNL     1       9.151  13.350  19.274  0.00  0.00    +0.000 A 
ATOM     25  C   UNL     1       9.374  11.983  19.493  0.00  0.00    +0.000 A 
ATOM     26  C   UNL     1       9.571  11.525  20.800  0.00  0.00    +0.000 A 
ATOM     27  C   UNL     1       9.533  12.422  21.872  0.00  0.00    +0.000 A 
ENDBRANCH  19  25
ENDBRANCH  18  19
ENDBRANCH  17  18
ENDBRANCH  15  17
ENDBRANCH   1  15
TORSDOF 6
ENDMDL
MODEL 5
REMARK VINA RESULT:      -8.0      2.025      2.534
REMARK  Name = 
REMARK  7 active torsions:
REMARK  status: ('A' for Active; 'I' for Inactive)
REMARK    1  A    between atoms: C_1  and  C_2
REMARK    2  A    between atoms: C_5  and  C_6
REMARK    3  A    between atoms: C_6  and  C_8
REMARK    4  A    between atoms: C_8  and  C_9
REMARK    5  A    between atoms: C_9  and  N_10
REMARK    6  A    between atoms: N_10  and  C_11
REMARK    7  A    between atoms: C_14  and  C_15
REMARK                            x       y       z     vdW  Elec       q    Type
REMARK                         _______ _______ _______ _____ _____    ______ ____
ROOT
ATOM      1  C   UNL     1       7.721   7.148  18.347  0.00  0.00    +0.000 A 
ATOM      2  C   UNL     1       6.743   7.374  17.369  0.00  0.00    +0.000 A 
ATOM      3  C   UNL     1       5.769   6.410  17.065  0.00  0.00    +0.000 A 
ATOM      4  C   UNL     1       5.783   5.174  17.714  0.00  0.00    +0.000 A 
ATOM      5  C   UNL     1       6.839   4.901  18.589  0.00  0.00    +0.000 A 
ATOM      6  C   UNL     1       7.755   5.892  18.953  0.00  0.00    +0.000 A 
ENDROOT
BRANCH   4   7
ATOM      7  C   UNL     1       4.707   4.172  17.419  0.00  0.00    +0.000 C 
ATOM      8  O   UNL     1       4.677   3.676  16.303  0.00  0.00    +0.000 OA
ATOM      9  N   UNL     1       3.775   3.850  18.414  0.00  0.00    +0.000 N 
ATOM     10  C   UNL     1       2.850   2.727  18.193  0.00  0.00    +0.000 C 
ATOM     11  C   UNL     1       1.398   3.172  18.342  0.00  0.00    +0.000 C 
ATOM     12  C   UNL     1       1.161   3.898  19.666  0.00  0.00    +0.000 C 
ATOM     13  C   UNL     1       2.146   5.038  19.842  0.00  0.00    +0.000 C 
ATOM     14  C   UNL     1       3.570   4.550  19.677  0.00  0.00    +0.000 C 
ENDBRANCH   4   7
BRANCH   1  15
ATOM     15  N   UNL     1       8.695   8.085  18.684  0.00  0.00    +0.000 N 
ATOM     16  H   UNL     1       9.154   7.931  19.575  0.00  0.00    +0.000 HD
BRANCH  15  17
ATOM     17  C   UNL     1       8.503   9.473  18.274  0.00  0.00    +0.000 C 
BRANCH  17  18
ATOM     18  C   UNL     1       9.400  10.402  19.087  0.00  0.00    +0.000 C 
BRANCH  18  19
ATOM     19  C   UNL     1       9.757  11.637  18.281  0.00  0.00    +0.000 C 
ATOM     20  O   UNL     1      10.710  11.658  17.508  0.00  0.00    +0.000 OA
BRANCH  19  25
ATOM     21  C   UNL     1       6.391  16.347  18.744  0.00  0.00    +0.000 C 
ATOM     22  C   UNL     1       7.264  15.134  18.621  0.00  0.00    +0.000 A 
ATOM     23  C   UNL     1       7.075  14.211  17.590  0.00  0.00    +0.000 A 
ATOM     24  C   UNL     1       7.892  13.081  17.495  0.00  0.00    +0.000 A 
ATOM     25  C   UNL     1       8.911  12.858  18.431  0.00  0.00    +0.000 A 
ATOM     26  C   UNL     1       9.106  13.785  19.461  0.00  0.00    +0.000 A 
ATOM     27  C   UNL     1       8.284  14.912  19.555  0.00  0.00    +0.000 A 
ENDBRANCH  19  25
ENDBRANCH  18  19
ENDBRANCH  17  18
ENDBRANCH  15  17
ENDBRANCH   1  15
TORSDOF 6
ENDMDL
MODEL 6
REMARK VINA RESULT:      -8.0      5.764      8.466
REMARK  Name = 
REMARK  7 active torsions:
REMARK  status: ('A' for Active; 'I' for Inactive)
REMARK    1  A    between atoms: C_1  and  C_2
REMARK    2  A    between atoms: C_5  and  C_6
REMARK    3  A    between atoms: C_6  and  C_8
REMARK    4  A    between atoms: C_8  and  C_9
REMARK    5  A    between atoms: C_9  and  N_10
REMARK    6  A    between atoms: N_10  and  C_11
REMARK    7  A    between atoms: C_14  and  C_15
REMARK                            x       y       z     vdW  Elec       q    Type
REMARK                         _______ _______ _______ _____ _____    ______ ____
ROOT
ATOM      1  C   UNL     1       2.455   7.054  19.625  0.00  0.00    +0.000 A 
ATOM      2  C   UNL     1       2.393   7.786  18.432  0.00  0.00    +0.000 A 
ATOM      3  C   UNL     1       1.633   8.962  18.329  0.00  0.00    +0.000 A 
ATOM      4  C   UNL     1       0.882   9.407  19.419  0.00  0.00    +0.000 A 
ATOM      5  C   UNL     1       0.838   8.602  20.561  0.00  0.00    +0.000 A 
ATOM      6  C   UNL     1       1.662   7.480  20.691  0.00  0.00    +0.000 A 
ENDROOT
BRANCH   4   7
ATOM      7  C   UNL     1       0.115  10.691  19.314  0.00  0.00    +0.000 C 
ATOM      8  O   UNL     1       0.399  11.592  20.089  0.00  0.00    +0.000 OA
ATOM      9  N   UNL     1      -0.897  10.812  18.353  0.00  0.00    +0.000 N 
ATOM     10  C   UNL     1      -1.506  12.131  18.117  0.00  0.00    +0.000 C 
ATOM     11  C   UNL     1      -3.021  12.077  18.291  0.00  0.00    +0.000 C 
ATOM     12  C   UNL     1      -3.648  10.962  17.453  0.00  0.00    +0.000 C 
ATOM     13  C   UNL     1      -2.977   9.631  17.733  0.00  0.00    +0.000 C 
ATOM     14  C   UNL     1      -1.476   9.738  17.555  0.00  0.00    +0.000 C 
ENDBRANCH   4   7
BRANCH   1  15
ATOM     15  N   UNL     1       3.207   5.890  19.768  0.00  0.00    +0.000 N 
ATOM     16  H   UNL     1       4.173   5.960  19.471  0.00  0.00    +0.000 HD
BRANCH  15  17
ATOM     17  C   UNL     1       2.548   4.603  19.568  0.00  0.00    +0.000 C 
BRANCH  17  18
ATOM     18  C   UNL     1       3.089   3.911  18.319  0.00  0.00    +0.000 C 
BRANCH  18  19
ATOM     19  C   UNL     1       4.605   3.871  18.347  0.00  0.00    +0.000 C 
ATOM     20  O   UNL     1       5.232   3.587  19.363  0.00  0.00    +0.000 OA
BRANCH  19  25
ATOM     21  C   UNL     1       7.618   5.120  13.541  0.00  0.00    +0.000 C 
ATOM     22  C   UNL     1       6.837   4.803  14.782  0.00  0.00    +0.000 A 
ATOM     23  C   UNL     1       7.362   5.064  16.050  0.00  0.00    +0.000 A 
ATOM     24  C   UNL     1       6.625   4.754  17.197  0.00  0.00    +0.000 A 
ATOM     25  C   UNL     1       5.351   4.179  17.090  0.00  0.00    +0.000 A 
ATOM     26  C   UNL     1       4.822   3.924  15.821  0.00  0.00    +0.000 A 
ATOM     27  C   UNL     1       5.563   4.231  14.676  0.00  0.00    +0.000 A 
ENDBRANCH  19  25
ENDBRANCH  18  19
ENDBRANCH  17  18
ENDBRANCH  15  17
ENDBRANCH   1  15
TORSDOF 6
ENDMDL
MODEL 7
REMARK VINA RESULT:      -7.9      2.929     10.806
REMARK  Name = 
REMARK  7 active torsions:
REMARK  status: ('A' for Active; 'I' for Inactive)
REMARK    1  A    between atoms: C_1  and  C_2
REMARK    2  A    between atoms: C_5  and  C_6
REMARK    3  A    between atoms: C_6  and  C_8
REMARK    4  A    between atoms: C_8  and  C_9
REMARK    5  A    between atoms: C_9  and  N_10
REMARK    6  A    between atoms: N_10  and  C_11
REMARK    7  A    between atoms: C_14  and  C_15
REMARK                            x       y       z     vdW  Elec       q    Type
REMARK                         _______ _______ _______ _____ _____    ______ ____
ROOT
ATOM      1  C   UNL     1       9.355  10.291  19.073  0.00  0.00    +0.000 A 
ATOM      2  C   UNL     1       9.668  10.938  17.870  0.00  0.00    +0.000 A 
ATOM      3  C   UNL     1      10.098  12.274  17.843  0.00  0.00    +0.000 A 
ATOM      4  C   UNL     1      10.184  13.005  19.030  0.00  0.00    +0.000 A 
ATOM      5  C   UNL     1       9.741  12.399  20.210  0.00  0.00    +0.000 A 
ATOM      6  C   UNL     1       9.396  11.045  20.246  0.00  0.00    +0.000 A 
ENDROOT
BRANCH   4   7
ATOM      7  C   UNL     1      10.694  14.414  18.996  0.00  0.00    +0.000 C 
ATOM      8  O   UNL     1      11.858  14.609  19.313  0.00  0.00    +0.000 OA
ATOM      9  N   UNL     1       9.830  15.450  18.618  0.00  0.00    +0.000 N 
ATOM     10  C   UNL     1      10.381  16.795  18.391  0.00  0.00    +0.000 C 
ATOM     11  C   UNL     1       9.674  17.834  19.258  0.00  0.00    +0.000 C 
ATOM     12  C   UNL     1       8.156  17.767  19.098  0.00  0.00    +0.000 C 
ATOM     13  C   UNL     1       7.647  16.358  19.336  0.00  0.00    +0.000 C 
ATOM     14  C   UNL     1       8.383  15.365  18.461  0.00  0.00    +0.000 C 
ENDBRANCH   4   7
BRANCH   1  15
ATOM     15  N   UNL     1       8.936   8.964  19.139  0.00  0.00    +0.000 N 
ATOM     16  H   UNL     1       9.606   8.319  19.542  0.00  0.00    +0.000 HD
BRANCH  15  17
ATOM     17  C   UNL     1       8.081   8.446  18.075  0.00  0.00    +0.000 C 
BRANCH  17  18
ATOM     18  C   UNL     1       7.781   6.966  18.299  0.00  0.00    +0.000 C 
BRANCH  18  19
ATOM     19  C   UNL     1       7.068   6.379  17.096  0.00  0.00    +0.000 C 
ATOM     20  O   UNL     1       7.596   6.320  15.990  0.00  0.00    +0.000 OA
BRANCH  19  25
ATOM     21  C   UNL     1       1.733   4.181  17.754  0.00  0.00    +0.000 C 
ATOM     22  C   UNL     1       3.109   4.750  17.578  0.00  0.00    +0.000 A 
ATOM     23  C   UNL     1       4.186   3.935  17.216  0.00  0.00    +0.000 A 
ATOM     24  C   UNL     1       5.464   4.480  17.065  0.00  0.00    +0.000 A 
ATOM     25  C   UNL     1       5.684   5.848  17.275  0.00  0.00    +0.000 A 
ATOM     26  C   UNL     1       4.606   6.666  17.631  0.00  0.00    +0.000 A 
ATOM     27  C   UNL     1       3.330   6.118  17.785  0.00  0.00    +0.000 A 
ENDBRANCH  19  25
ENDBRANCH  18  19
ENDBRANCH  17  18
ENDBRANCH  15  17
ENDBRANCH   1  15
TORSDOF 6
ENDMDL
MODEL 8
REMARK VINA RESULT:      -7.9      4.465      7.525
REMARK  Name = 
REMARK  7 active torsions:
REMARK  status: ('A' for Active; 'I' for Inactive)
REMARK    1  A    between atoms: C_1  and  C_2
REMARK    2  A    between atoms: C_5  and  C_6
REMARK    3  A    between atoms: C_6  and  C_8
REMARK    4  A    between atoms: C_8  and  C_9
REMARK    5  A    between atoms: C_9  and  N_10
REMARK    6  A    between atoms: N_10  and  C_11
REMARK    7  A    between atoms: C_14  and  C_15
REMARK                            x       y       z     vdW  Elec       q    Type
REMARK                         _______ _______ _______ _____ _____    ______ ____
ROOT
ATOM      1  C   UNL     1       2.196   5.817  19.409  0.00  0.00    +0.000 A 
ATOM      2  C   UNL     1       1.629   6.090  20.661  0.00  0.00    +0.000 A 
ATOM      3  C   UNL     1       1.233   7.387  21.023  0.00  0.00    +0.000 A 
ATOM      4  C   UNL     1       1.437   8.451  20.143  0.00  0.00    +0.000 A 
ATOM      5  C   UNL     1       2.126   8.199  18.952  0.00  0.00    +0.000 A 
ATOM      6  C   UNL     1       2.441   6.895  18.559  0.00  0.00    +0.000 A 
ENDROOT
BRANCH   4   7
ATOM      7  C   UNL     1       0.962   9.823  20.518  0.00  0.00    +0.000 C 
ATOM      8  O   UNL     1       1.201  10.222  21.648  0.00  0.00    +0.000 OA
ATOM      9  N   UNL     1       0.258  10.589  19.579  0.00  0.00    +0.000 N 
ATOM     10  C   UNL     1      -0.029  12.001  19.877  0.00  0.00    +0.000 C 
ATOM     11  C   UNL     1      -1.524  12.290  19.787  0.00  0.00    +0.000 C 
ATOM     12  C   UNL     1      -2.112  11.821  18.456  0.00  0.00    +0.000 C 
ATOM     13  C   UNL     1      -1.779  10.364  18.199  0.00  0.00    +0.000 C 
ATOM     14  C   UNL     1      -0.287  10.126  18.309  0.00  0.00    +0.000 C 
ENDBRANCH   4   7
BRANCH   1  15
ATOM     15  N   UNL     1       2.591   4.542  19.011  0.00  0.00    +0.000 N 
ATOM     16  H   UNL     1       1.972   4.083  18.353  0.00  0.00    +0.000 HD
BRANCH  15  17
ATOM     17  C   UNL     1       3.274   3.687  19.978  0.00  0.00    +0.000 C 
BRANCH  17  18
ATOM     18  C   UNL     1       4.657   3.294  19.465  0.00  0.00    +0.000 C 
BRANCH  18  19
ATOM     19  C   UNL     1       4.904   3.887  18.091  0.00  0.00    +0.000 C 
ATOM     20  O   UNL     1       4.417   3.402  17.074  0.00  0.00    +0.000 OA
BRANCH  19  25
ATOM     21  C   UNL     1       8.318   8.574  17.771  0.00  0.00    +0.000 C 
ATOM     22  C   UNL     1       7.434   7.366  17.858  0.00  0.00    +0.000 A 
ATOM     23  C   UNL     1       7.722   6.323  18.741  0.00  0.00    +0.000 A 
ATOM     24  C   UNL     1       6.891   5.201  18.803  0.00  0.00    +0.000 A 
ATOM     25  C   UNL     1       5.759   5.106  17.982  0.00  0.00    +0.000 A 
ATOM     26  C   UNL     1       5.465   6.153  17.102  0.00  0.00    +0.000 A 
ATOM     27  C   UNL     1       6.300   7.273  17.039  0.00  0.00    +0.000 A 
ENDBRANCH  19  25
ENDBRANCH  18  19
ENDBRANCH  17  18
ENDBRANCH  15  17
ENDBRANCH   1  15
TORSDOF 6
ENDMDL
MODEL 9
REMARK VINA RESULT:      -7.9      5.652      8.336
REMARK  Name = 
REMARK  7 active torsions:
REMARK  status: ('A' for Active; 'I' for Inactive)
REMARK    1  A    between atoms: C_1  and  C_2
REMARK    2  A    between atoms: C_5  and  C_6
REMARK    3  A    between atoms: C_6  and  C_8
REMARK    4  A    between atoms: C_8  and  C_9
REMARK    5  A    between atoms: C_9  and  N_10
REMARK    6  A    between atoms: N_10  and  C_11
REMARK    7  A    between atoms: C_14  and  C_15
REMARK                            x       y       z     vdW  Elec       q    Type
REMARK                         _______ _______ _______ _____ _____    ______ ____
ROOT
ATOM      1  C   UNL     1       2.625   6.925  18.832  0.00  0.00    +0.000 A 
ATOM      2  C   UNL     1       2.068   7.215  20.085  0.00  0.00    +0.000 A 
ATOM      3  C   UNL     1       1.335   8.390  20.311  0.00  0.00    +0.000 A 
ATOM      4  C   UNL     1       1.181   9.326  19.286  0.00  0.00    +0.000 A 
ATOM      5  C   UNL     1       1.852   9.099  18.080  0.00  0.00    +0.000 A 
ATOM      6  C   UNL     1       2.507   7.889  17.831  0.00  0.00    +0.000 A 
ENDROOT
BRANCH   4   7
ATOM      7  C   UNL     1       0.353  10.553  19.523  0.00  0.00    +0.000 C 
ATOM      8  O   UNL     1       0.619  11.244  20.494  0.00  0.00    +0.000 OA
ATOM      9  N   UNL     1      -0.693  10.858  18.642  0.00  0.00    +0.000 N 
ATOM     10  C   UNL     1      -1.370  12.159  18.758  0.00  0.00    +0.000 C 
ATOM     11  C   UNL     1      -2.875  11.983  18.941  0.00  0.00    +0.000 C 
ATOM     12  C   UNL     1      -3.476  11.083  17.861  0.00  0.00    +0.000 C 
ATOM     13  C   UNL     1      -2.735   9.762  17.784  0.00  0.00    +0.000 C 
ATOM     14  C   UNL     1      -1.247   9.989  17.611  0.00  0.00    +0.000 C 
ENDBRANCH   4   7
BRANCH   1  15
ATOM     15  N   UNL     1       3.347   5.764  18.567  0.00  0.00    +0.000 N 
ATOM     16  H   UNL     1       2.813   5.006  18.159  0.00  0.00    +0.000 HD
BRANCH  15  17
ATOM     17  C   UNL     1       4.431   5.394  19.472  0.00  0.00    +0.000 C 
BRANCH  17  18
ATOM     18  C   UNL     1       5.649   4.918  18.685  0.00  0.00    +0.000 C 
BRANCH  18  19
ATOM     19  C   UNL     1       5.905   5.827  17.499  0.00  0.00    +0.000 C 
ATOM     20  O   UNL     1       6.003   7.045  17.618  0.00  0.00    +0.000 OA
BRANCH  19  25
ATOM     21  C   UNL     1       6.341   3.380  12.250  0.00  0.00    +0.000 C 
ATOM     22  C   UNL     1       6.231   4.007  13.607  0.00  0.00    +0.000 A 
ATOM     23  C   UNL     1       5.068   3.875  14.371  0.00  0.00    +0.000 A 
ATOM     24  C   UNL     1       4.979   4.472  15.631  0.00  0.00    +0.000 A 
ATOM     25  C   UNL     1       6.052   5.212  16.146  0.00  0.00    +0.000 A 
ATOM     26  C   UNL     1       7.219   5.340  15.386  0.00  0.00    +0.000 A 
ATOM     27  C   UNL     1       7.305   4.745  14.124  0.00  0.00    +0.000 A 
ENDBRANCH  19  25
ENDBRANCH  18  19
ENDBRANCH  17  18
ENDBRANCH  15  17
ENDBRANCH   1  15
TORSDOF 6
ENDMDL
