MODEL 1
REMARK VINA RESULT:      -6.9      0.000      0.000
REMARK  Name = 
REMARK  9 active torsions:
REMARK  status: ('A' for Active; 'I' for Inactive)
REMARK    1  A    between atoms: C_1  and  C_2
REMARK    2  A    between atoms: C_2  and  C_3
REMARK    3  A    between atoms: C_3  and  N_4
REMARK    4  A    between atoms: N_4  and  C_5
REMARK    5  A    between atoms: N_4  and  C_10
REMARK    6  A    between atoms: C_5  and  C_6
REMARK    7  A    between atoms: C_6  and  C_7
REMARK    8  A    between atoms: C_7  and  C_8
REMARK    9  A    between atoms: C_14  and  O_15
REMARK                            x       y       z     vdW  Elec       q    Type
REMARK                         _______ _______ _______ _____ _____    ______ ____
ROOT
ATOM      1  C   UNL     1       4.895   4.277  17.349  0.00  0.00    +0.000 C 
ATOM      2  C   UNL     1       3.703   3.924  16.433  0.00  0.00    +0.000 C 
ATOM      3  C   UNL     1       2.734   2.944  17.095  0.00  0.00    +0.000 C 
ATOM      4  C   UNL     1       2.310   3.342  18.482  0.00  0.00    +0.000 A 
ATOM      5  C   UNL     1       1.168   2.797  19.091  0.00  0.00    +0.000 A 
ATOM      6  C   UNL     1       0.796   3.157  20.384  0.00  0.00    +0.000 A 
ATOM      7  C   UNL     1       1.567   4.061  21.104  0.00  0.00    +0.000 A 
ATOM      8  C   UNL     1       2.710   4.604  20.524  0.00  0.00    +0.000 A 
ATOM      9  C   UNL     1       3.094   4.247  19.219  0.00  0.00    +0.000 A 
ATOM     10  C   UNL     1       4.317   4.922  18.637  0.00  0.00    +0.000 C 
ENDROOT
BRANCH   5  11
ATOM     11  O   UNL     1       0.345   1.896  18.476  0.00  0.00    +0.000 OA
ATOM     12  H   UNL     1      -0.080   2.306  17.709  0.00  0.00    +0.000 HD
ENDBRANCH   5  11
BRANCH   1  13
ATOM     13  N   UNL     1       5.932   5.143  16.679  0.00  0.00    +0.000 NA
BRANCH  13  14
ATOM     14  C   UNL     1       5.762   5.157  15.205  0.00  0.00    +0.000 C 
BRANCH  14  16
ATOM     15  C   UNL     1       5.835   3.670  13.130  0.00  0.00    +0.000 C 
ATOM     16  C   UNL     1       6.590   4.185  14.345  0.00  0.00    +0.000 C 
ENDBRANCH  14  16
ENDBRANCH  13  14
BRANCH  13  17
ATOM     17  C   UNL     1       6.025   6.495  17.280  0.00  0.00    +0.000 C 
BRANCH  17  18
ATOM     18  C   UNL     1       7.387   7.206  17.148  0.00  0.00    +0.000 C 
BRANCH  18  19
ATOM     19  C   UNL     1       8.142   7.308  18.478  0.00  0.00    +0.000 C 
BRANCH  19  20
ATOM     20  C   UNL     1       7.856   6.148  19.329  0.00  0.00    +0.000 C 
ATOM     21  N   UNL     1       7.676   5.229  20.026  0.00  0.00    +0.000 NA
ENDBRANCH  19  20
ENDBRANCH  18  19
ENDBRANCH  17  18
ENDBRANCH  13  17
ENDBRANCH   1  13
TORSDOF 8
ENDMDL
MODEL 2
REMARK VINA RESULT:      -6.9      1.145      1.263
REMARK  Name = 
REMARK  9 active torsions:
REMARK  status: ('A' for Active; 'I' for Inactive)
REMARK    1  A    between atoms: C_1  and  C_2
REMARK    2  A    between atoms: C_2  and  C_3
REMARK    3  A    between atoms: C_3  and  N_4
REMARK    4  A    between atoms: N_4  and  C_5
REMARK    5  A    between atoms: N_4  and  C_10
REMARK    6  A    between atoms: C_5  and  C_6
REMARK    7  A    between atoms: C_6  and  C_7
REMARK    8  A    between atoms: C_7  and  C_8
REMARK    9  A    between atoms: C_14  and  O_15
REMARK                            x       y       z     vdW  Elec       q    Type
REMARK                         _______ _______ _______ _____ _____    ______ ____
ROOT
ATOM      1  C   UNL     1       4.386   3.753  17.181  0.00  0.00    +0.000 C 
ATOM      2  C   UNL     1       3.065   4.542  17.046  0.00  0.00    +0.000 C 
ATOM      3  C   UNL     1       1.886   3.810  17.688  0.00  0.00    +0.000 C 
ATOM      4  C   UNL     1       2.146   3.338  19.091  0.00  0.00    +0.000 A 
ATOM      5  C   UNL     1       1.099   2.996  19.963  0.00  0.00    +0.000 A 
ATOM      6  C   UNL     1       1.352   2.540  21.255  0.00  0.00    +0.000 A 
ATOM      7  C   UNL     1       2.660   2.401  21.700  0.00  0.00    +0.000 A 
ATOM      8  C   UNL     1       3.714   2.722  20.848  0.00  0.00    +0.000 A 
ATOM      9  C   UNL     1       3.469   3.184  19.543  0.00  0.00    +0.000 A 
ATOM     10  C   UNL     1       4.664   3.566  18.696  0.00  0.00    +0.000 C 
ENDROOT
BRANCH   5  11
ATOM     11  O   UNL     1      -0.222   3.088  19.625  0.00  0.00    +0.000 OA
ATOM     12  H   UNL     1      -0.696   2.300  19.927  0.00  0.00    +0.000 HD
ENDBRANCH   5  11
BRANCH   1  13
ATOM     13  N   UNL     1       5.542   4.388  16.451  0.00  0.00    +0.000 NA
BRANCH  13  14
ATOM     14  C   UNL     1       5.901   3.625  15.229  0.00  0.00    +0.000 C 
BRANCH  14  16
ATOM     15  C   UNL     1       6.303   3.632  12.707  0.00  0.00    +0.000 C 
ATOM     16  C   UNL     1       6.486   4.377  14.019  0.00  0.00    +0.000 C 
ENDBRANCH  14  16
ENDBRANCH  13  14
BRANCH  13  17
ATOM     17  C   UNL     1       5.343   5.836  16.211  0.00  0.00    +0.000 C 
BRANCH  17  18
ATOM     18  C   UNL     1       6.036   6.793  17.203  0.00  0.00    +0.000 C 
BRANCH  18  19
ATOM     19  C   UNL     1       7.457   6.352  17.569  0.00  0.00    +0.000 C 
BRANCH  19  20
ATOM     20  C   UNL     1       7.514   5.874  18.954  0.00  0.00    +0.000 C 
ATOM     21  N   UNL     1       7.557   5.444  20.038  0.00  0.00    +0.000 NA
ENDBRANCH  19  20
ENDBRANCH  18  19
ENDBRANCH  17  18
ENDBRANCH  13  17
ENDBRANCH   1  13
TORSDOF 8
ENDMDL
MODEL 3
REMARK VINA RESULT:      -6.8      1.731      3.880
REMARK  Name = 
REMARK  9 active torsions:
REMARK  status: ('A' for Active; 'I' for Inactive)
REMARK    1  A    between atoms: C_1  and  C_2
REMARK    2  A    between atoms: C_2  and  C_3
REMARK    3  A    between atoms: C_3  and  N_4
REMARK    4  A    between atoms: N_4  and  C_5
REMARK    5  A    between atoms: N_4  and  C_10
REMARK    6  A    between atoms: C_5  and  C_6
REMARK    7  A    between atoms: C_6  and  C_7
REMARK    8  A    between atoms: C_7  and  C_8
REMARK    9  A    between atoms: C_14  and  O_15
REMARK                            x       y       z     vdW  Elec       q    Type
REMARK                         _______ _______ _______ _____ _____    ______ ____
ROOT
ATOM      1  C   UNL     1       4.489   5.232  16.688  0.00  0.00    +0.000 C 
ATOM      2  C   UNL     1       4.473   6.020  18.016  0.00  0.00    +0.000 C 
ATOM      3  C   UNL     1       3.107   5.970  18.701  0.00  0.00    +0.000 C 
ATOM      4  C   UNL     1       2.535   4.586  18.833  0.00  0.00    +0.000 A 
ATOM      5  C   UNL     1       1.506   4.294  19.743  0.00  0.00    +0.000 A 
ATOM      6  C   UNL     1       0.970   3.012  19.843  0.00  0.00    +0.000 A 
ATOM      7  C   UNL     1       1.442   1.994  19.024  0.00  0.00    +0.000 A 
ATOM      8  C   UNL     1       2.454   2.264  18.106  0.00  0.00    +0.000 A 
ATOM      9  C   UNL     1       3.002   3.555  17.998  0.00  0.00    +0.000 A 
ATOM     10  C   UNL     1       4.136   3.757  17.017  0.00  0.00    +0.000 C 
ENDROOT
BRANCH   5  11
ATOM     11  O   UNL     1       0.964   5.220  20.589  0.00  0.00    +0.000 OA
ATOM     12  H   UNL     1       1.587   5.420  21.303  0.00  0.00    +0.000 HD
ENDBRANCH   5  11
BRANCH   1  13
ATOM     13  N   UNL     1       5.784   5.364  15.927  0.00  0.00    +0.000 NA
BRANCH  13  14
ATOM     14  C   UNL     1       6.869   5.900  16.786  0.00  0.00    +0.000 C 
BRANCH  14  16
ATOM     15  C   UNL     1       7.914   5.616  19.099  0.00  0.00    +0.000 C 
ATOM     16  C   UNL     1       7.583   4.955  17.771  0.00  0.00    +0.000 C 
ENDBRANCH  14  16
ENDBRANCH  13  14
BRANCH  13  17
ATOM     17  C   UNL     1       6.154   4.125  15.205  0.00  0.00    +0.000 C 
BRANCH  17  18
ATOM     18  C   UNL     1       5.619   3.990  13.764  0.00  0.00    +0.000 C 
BRANCH  18  19
ATOM     19  C   UNL     1       6.732   3.951  12.711  0.00  0.00    +0.000 C 
BRANCH  19  20
ATOM     20  C   UNL     1       7.727   4.997  12.967  0.00  0.00    +0.000 C 
ATOM     21  N   UNL     1       8.489   5.863  13.146  0.00  0.00    +0.000 NA
ENDBRANCH  19  20
ENDBRANCH  18  19
ENDBRANCH  17  18
ENDBRANCH  13  17
ENDBRANCH   1  13
TORSDOF 8
ENDMDL
MODEL 4
REMARK VINA RESULT:      -6.8      1.304      1.441
REMARK  Name = 
REMARK  9 active torsions:
REMARK  status: ('A' for Active; 'I' for Inactive)
REMARK    1  A    between atoms: C_1  and  C_2
REMARK    2  A    between atoms: C_2  and  C_3
REMARK    3  A    between atoms: C_3  and  N_4
REMARK    4  A    between atoms: N_4  and  C_5
REMARK    5  A    between atoms: N_4  and  C_10
REMARK    6  A    between atoms: C_5  and  C_6
REMARK    7  A    between atoms: C_6  and  C_7
REMARK    8  A    between atoms: C_7  and  C_8
REMARK    9  A    between atoms: C_14  and  O_15
REMARK                            x       y       z     vdW  Elec       q    Type
REMARK                         _______ _______ _______ _____ _____    ______ ____
ROOT
ATOM      1  C   UNL     1       5.096   4.362  17.622  0.00  0.00    +0.000 C 
ATOM      2  C   UNL     1       3.965   4.052  16.617  0.00  0.00    +0.000 C 
ATOM      3  C   UNL     1       2.957   3.045  17.172  0.00  0.00    +0.000 C 
ATOM      4  C   UNL     1       2.446   3.382  18.546  0.00  0.00    +0.000 A 
ATOM      5  C   UNL     1       1.267   2.813  19.057  0.00  0.00    +0.000 A 
ATOM      6  C   UNL     1       0.814   3.116  20.338  0.00  0.00    +0.000 A 
ATOM      7  C   UNL     1       1.536   3.986  21.145  0.00  0.00    +0.000 A 
ATOM      8  C   UNL     1       2.713   4.552  20.663  0.00  0.00    +0.000 A 
ATOM      9  C   UNL     1       3.180   4.253  19.371  0.00  0.00    +0.000 A 
ATOM     10  C   UNL     1       4.437   4.950  18.898  0.00  0.00    +0.000 C 
ENDROOT
BRANCH   5  11
ATOM     11  O   UNL     1       0.485   1.941  18.352  0.00  0.00    +0.000 OA
ATOM     12  H   UNL     1       1.011   1.177  18.073  0.00  0.00    +0.000 HD
ENDBRANCH   5  11
BRANCH   1  13
ATOM     13  N   UNL     1       6.172   5.255  17.058  0.00  0.00    +0.000 NA
BRANCH  13  14
ATOM     14  C   UNL     1       6.058   5.383  15.584  0.00  0.00    +0.000 C 
BRANCH  14  16
ATOM     15  C   UNL     1       6.174   3.884  13.520  0.00  0.00    +0.000 C 
ATOM     16  C   UNL     1       6.937   4.497  14.683  0.00  0.00    +0.000 C 
ENDBRANCH  14  16
ENDBRANCH  13  14
BRANCH  13  17
ATOM     17  C   UNL     1       6.266   6.555  17.763  0.00  0.00    +0.000 C 
BRANCH  17  18
ATOM     18  C   UNL     1       7.689   7.101  17.997  0.00  0.00    +0.000 C 
BRANCH  18  19
ATOM     19  C   UNL     1       7.847   8.567  17.575  0.00  0.00    +0.000 C 
BRANCH  19  20
ATOM     20  C   UNL     1       8.651   9.306  18.553  0.00  0.00    +0.000 C 
ATOM     21  N   UNL     1       9.330   9.897  19.297  0.00  0.00    +0.000 NA
ENDBRANCH  19  20
ENDBRANCH  18  19
ENDBRANCH  17  18
ENDBRANCH  13  17
ENDBRANCH   1  13
TORSDOF 8
ENDMDL
MODEL 5
REMARK VINA RESULT:      -6.8      1.428      3.635
REMARK  Name = 
REMARK  9 active torsions:
REMARK  status: ('A' for Active; 'I' for Inactive)
REMARK    1  A    between atoms: C_1  and  C_2
REMARK    2  A    between atoms: C_2  and  C_3
REMARK    3  A    between atoms: C_3  and  N_4
REMARK    4  A    between atoms: N_4  and  C_5
REMARK    5  A    between atoms: N_4  and  C_10
REMARK    6  A    between atoms: C_5  and  C_6
REMARK    7  A    between atoms: C_6  and  C_7
REMARK    8  A    between atoms: C_7  and  C_8
REMARK    9  A    between atoms: C_14  and  O_15
REMARK                            x       y       z     vdW  Elec       q    Type
REMARK                         _______ _______ _______ _____ _____    ______ ____
ROOT
ATOM      1  C   UNL     1       5.263   4.140  17.749  0.00  0.00    +0.000 C 
ATOM      2  C   UNL     1       4.283   3.472  16.760  0.00  0.00    +0.000 C 
ATOM      3  C   UNL     1       3.218   2.639  17.475  0.00  0.00    +0.000 C 
ATOM      4  C   UNL     1       2.522   3.362  18.594  0.00  0.00    +0.000 A 
ATOM      5  C   UNL     1       1.290   2.921  19.107  0.00  0.00    +0.000 A 
ATOM      6  C   UNL     1       0.664   3.587  20.158  0.00  0.00    +0.000 A 
ATOM      7  C   UNL     1       1.262   4.702  20.731  0.00  0.00    +0.000 A 
ATOM      8  C   UNL     1       2.488   5.149  20.246  0.00  0.00    +0.000 A 
ATOM      9  C   UNL     1       3.129   4.485  19.186  0.00  0.00    +0.000 A 
ATOM     10  C   UNL     1       4.431   5.064  18.678  0.00  0.00    +0.000 C 
ENDROOT
BRANCH   5  11
ATOM     11  O   UNL     1       0.620   1.833  18.623  0.00  0.00    +0.000 OA
ATOM     12  H   UNL     1       1.216   1.072  18.575  0.00  0.00    +0.000 HD
ENDBRANCH   5  11
BRANCH   1  13
ATOM     13  N   UNL     1       6.398   4.866  17.071  0.00  0.00    +0.000 NA
BRANCH  13  14
ATOM     14  C   UNL     1       7.541   5.075  17.994  0.00  0.00    +0.000 C 
BRANCH  14  16
ATOM     15  C   UNL     1       7.632   7.585  17.534  0.00  0.00    +0.000 C 
ATOM     16  C   UNL     1       7.798   6.481  18.566  0.00  0.00    +0.000 C 
ENDBRANCH  14  16
ENDBRANCH  13  14
BRANCH  13  17
ATOM     17  C   UNL     1       6.781   4.252  15.778  0.00  0.00    +0.000 C 
BRANCH  17  18
ATOM     18  C   UNL     1       6.395   5.039  14.509  0.00  0.00    +0.000 C 
BRANCH  18  19
ATOM     19  C   UNL     1       7.111   4.536  13.250  0.00  0.00    +0.000 C 
BRANCH  19  20
ATOM     20  C   UNL     1       6.284   3.558  12.537  0.00  0.00    +0.000 C 
ATOM     21  N   UNL     1       5.669   2.760  11.947  0.00  0.00    +0.000 NA
ENDBRANCH  19  20
ENDBRANCH  18  19
ENDBRANCH  17  18
ENDBRANCH  13  17
ENDBRANCH   1  13
TORSDOF 8
ENDMDL
MODEL 6
REMARK VINA RESULT:      -6.7      1.948      4.333
REMARK  Name = 
REMARK  9 active torsions:
REMARK  status: ('A' for Active; 'I' for Inactive)
REMARK    1  A    between atoms: C_1  and  C_2
REMARK    2  A    between atoms: C_2  and  C_3
REMARK    3  A    between atoms: C_3  and  N_4
REMARK    4  A    between atoms: N_4  and  C_5
REMARK    5  A    between atoms: N_4  and  C_10
REMARK    6  A    between atoms: C_5  and  C_6
REMARK    7  A    between atoms: C_6  and  C_7
REMARK    8  A    between atoms: C_7  and  C_8
REMARK    9  A    between atoms: C_14  and  O_15
REMARK                            x       y       z     vdW  Elec       q    Type
REMARK                         _______ _______ _______ _____ _____    ______ ____
ROOT
ATOM      1  C   UNL     1       4.536   5.253  16.774  0.00  0.00    +0.000 C 
ATOM      2  C   UNL     1       4.572   5.930  18.161  0.00  0.00    +0.000 C 
ATOM      3  C   UNL     1       3.202   5.932  18.840  0.00  0.00    +0.000 C 
ATOM      4  C   UNL     1       2.524   4.590  18.860  0.00  0.00    +0.000 A 
ATOM      5  C   UNL     1       1.469   4.307  19.743  0.00  0.00    +0.000 A 
ATOM      6  C   UNL     1       0.834   3.067  19.739  0.00  0.00    +0.000 A 
ATOM      7  C   UNL     1       1.231   2.085  18.840  0.00  0.00    +0.000 A 
ATOM      8  C   UNL     1       2.267   2.349  17.947  0.00  0.00    +0.000 A 
ATOM      9  C   UNL     1       2.914   3.597  17.944  0.00  0.00    +0.000 A 
ATOM     10  C   UNL     1       4.067   3.789  16.982  0.00  0.00    +0.000 C 
ENDROOT
BRANCH   5  11
ATOM     11  O   UNL     1       0.996   5.202  20.662  0.00  0.00    +0.000 OA
ATOM     12  H   UNL     1       1.716   5.771  20.969  0.00  0.00    +0.000 HD
ENDBRANCH   5  11
BRANCH   1  13
ATOM     13  N   UNL     1       5.842   5.345  16.026  0.00  0.00    +0.000 NA
BRANCH  13  14
ATOM     14  C   UNL     1       6.912   5.934  16.868  0.00  0.00    +0.000 C 
BRANCH  14  16
ATOM     15  C   UNL     1       7.961   5.706  19.186  0.00  0.00    +0.000 C 
ATOM     16  C   UNL     1       7.676   5.031  17.854  0.00  0.00    +0.000 C 
ENDBRANCH  14  16
ENDBRANCH  13  14
BRANCH  13  17
ATOM     17  C   UNL     1       6.226   4.067  15.384  0.00  0.00    +0.000 C 
BRANCH  17  18
ATOM     18  C   UNL     1       6.527   4.127  13.872  0.00  0.00    +0.000 C 
BRANCH  18  19
ATOM     19  C   UNL     1       5.292   3.866  13.003  0.00  0.00    +0.000 C 
BRANCH  19  20
ATOM     20  C   UNL     1       5.533   2.757  12.075  0.00  0.00    +0.000 C 
ATOM     21  N   UNL     1       5.696   1.898  11.301  0.00  0.00    +0.000 NA
ENDBRANCH  19  20
ENDBRANCH  18  19
ENDBRANCH  17  18
ENDBRANCH  13  17
ENDBRANCH   1  13
TORSDOF 8
ENDMDL
MODEL 7
REMARK VINA RESULT:      -6.7      1.843      4.137
REMARK  Name = 
REMARK  9 active torsions:
REMARK  status: ('A' for Active; 'I' for Inactive)
REMARK    1  A    between atoms: C_1  and  C_2
REMARK    2  A    between atoms: C_2  and  C_3
REMARK    3  A    between atoms: C_3  and  N_4
REMARK    4  A    between atoms: N_4  and  C_5
REMARK    5  A    between atoms: N_4  and  C_10
REMARK    6  A    between atoms: C_5  and  C_6
REMARK    7  A    between atoms: C_6  and  C_7
REMARK    8  A    between atoms: C_7  and  C_8
REMARK    9  A    between atoms: C_14  and  O_15
REMARK                            x       y       z     vdW  Elec       q    Type
REMARK                         _______ _______ _______ _____ _____    ______ ____
ROOT
ATOM      1  C   UNL     1       4.760   5.374  17.618  0.00  0.00    +0.000 C 
ATOM      2  C   UNL     1       5.554   4.348  18.456  0.00  0.00    +0.000 C 
ATOM      3  C   UNL     1       4.826   3.965  19.745  0.00  0.00    +0.000 C 
ATOM      4  C   UNL     1       3.389   3.572  19.544  0.00  0.00    +0.000 A 
ATOM      5  C   UNL     1       2.679   2.843  20.513  0.00  0.00    +0.000 A 
ATOM      6  C   UNL     1       1.342   2.501  20.327  0.00  0.00    +0.000 A 
ATOM      7  C   UNL     1       0.678   2.893  19.171  0.00  0.00    +0.000 A 
ATOM      8  C   UNL     1       1.359   3.627  18.203  0.00  0.00    +0.000 A 
ATOM      9  C   UNL     1       2.709   3.976  18.382  0.00  0.00    +0.000 A 
ATOM     10  C   UNL     1       3.396   4.726  17.261  0.00  0.00    +0.000 C 
ENDROOT
BRANCH   5  11
ATOM     11  O   UNL     1       3.233   2.414  21.687  0.00  0.00    +0.000 OA
ATOM     12  H   UNL     1       4.181   2.258  21.568  0.00  0.00    +0.000 HD
ENDBRANCH   5  11
BRANCH   1  13
ATOM     13  N   UNL     1       5.507   5.865  16.404  0.00  0.00    +0.000 NA
BRANCH  13  14
ATOM     14  C   UNL     1       6.963   5.978  16.668  0.00  0.00    +0.000 C 
BRANCH  14  16
ATOM     15  C   UNL     1       8.144   6.967  18.705  0.00  0.00    +0.000 C 
ATOM     16  C   UNL     1       7.505   7.246  17.354  0.00  0.00    +0.000 C 
ENDBRANCH  14  16
ENDBRANCH  13  14
BRANCH  13  17
ATOM     17  C   UNL     1       5.183   5.095  15.181  0.00  0.00    +0.000 C 
BRANCH  17  18
ATOM     18  C   UNL     1       6.159   3.959  14.812  0.00  0.00    +0.000 C 
BRANCH  18  19
ATOM     19  C   UNL     1       6.674   4.054  13.371  0.00  0.00    +0.000 C 
BRANCH  19  20
ATOM     20  C   UNL     1       5.767   3.366  12.447  0.00  0.00    +0.000 C 
ATOM     21  N   UNL     1       5.069   2.842  11.672  0.00  0.00    +0.000 NA
ENDBRANCH  19  20
ENDBRANCH  18  19
ENDBRANCH  17  18
ENDBRANCH  13  17
ENDBRANCH   1  13
TORSDOF 8
ENDMDL
MODEL 8
REMARK VINA RESULT:      -6.6      3.762      6.598
REMARK  Name = 
REMARK  9 active torsions:
REMARK  status: ('A' for Active; 'I' for Inactive)
REMARK    1  A    between atoms: C_1  and  C_2
REMARK    2  A    between atoms: C_2  and  C_3
REMARK    3  A    between atoms: C_3  and  N_4
REMARK    4  A    between atoms: N_4  and  C_5
REMARK    5  A    between atoms: N_4  and  C_10
REMARK    6  A    between atoms: C_5  and  C_6
REMARK    7  A    between atoms: C_6  and  C_7
REMARK    8  A    between atoms: C_7  and  C_8
REMARK    9  A    between atoms: C_14  and  O_15
REMARK                            x       y       z     vdW  Elec       q    Type
REMARK                         _______ _______ _______ _____ _____    ______ ____
ROOT
ATOM      1  C   UNL     1       3.229   5.142  18.825  0.00  0.00    +0.000 C 
ATOM      2  C   UNL     1       4.514   5.349  19.655  0.00  0.00    +0.000 C 
ATOM      3  C   UNL     1       5.707   4.588  19.075  0.00  0.00    +0.000 C 
ATOM      4  C   UNL     1       5.918   4.806  17.603  0.00  0.00    +0.000 A 
ATOM      5  C   UNL     1       7.142   4.513  16.979  0.00  0.00    +0.000 A 
ATOM      6  C   UNL     1       7.320   4.699  15.610  0.00  0.00    +0.000 A 
ATOM      7  C   UNL     1       6.272   5.170  14.830  0.00  0.00    +0.000 A 
ATOM      8  C   UNL     1       5.046   5.456  15.425  0.00  0.00    +0.000 A 
ATOM      9  C   UNL     1       4.856   5.271  16.806  0.00  0.00    +0.000 A 
ATOM     10  C   UNL     1       3.514   5.656  17.389  0.00  0.00    +0.000 C 
ENDROOT
BRANCH   5  11
ATOM     11  O   UNL     1       8.234   4.039  17.650  0.00  0.00    +0.000 OA
ATOM     12  H   UNL     1       8.681   4.765  18.108  0.00  0.00    +0.000 HD
ENDBRANCH   5  11
BRANCH   1  13
ATOM     13  N   UNL     1       2.008   5.778  19.439  0.00  0.00    +0.000 NA
BRANCH  13  14
ATOM     14  C   UNL     1       1.527   5.012  20.616  0.00  0.00    +0.000 C 
BRANCH  14  16
ATOM     15  C   UNL     1       1.642   2.624  21.513  0.00  0.00    +0.000 C 
ATOM     16  C   UNL     1       1.098   3.544  20.433  0.00  0.00    +0.000 C 
ENDBRANCH  14  16
ENDBRANCH  13  14
BRANCH  13  17
ATOM     17  C   UNL     1       2.187   7.225  19.704  0.00  0.00    +0.000 C 
BRANCH  17  18
ATOM     18  C   UNL     1       1.581   7.756  21.019  0.00  0.00    +0.000 C 
BRANCH  18  19
ATOM     19  C   UNL     1       0.714   9.005  20.820  0.00  0.00    +0.000 C 
BRANCH  19  20
ATOM     20  C   UNL     1       0.121   9.435  22.090  0.00  0.00    +0.000 C 
ATOM     21  N   UNL     1      -0.385   9.806  23.074  0.00  0.00    +0.000 NA
ENDBRANCH  19  20
ENDBRANCH  18  19
ENDBRANCH  17  18
ENDBRANCH  13  17
ENDBRANCH   1  13
TORSDOF 8
ENDMDL
MODEL 9
REMARK VINA RESULT:      -6.6      3.994      5.740
REMARK  Name = 
REMARK  9 active torsions:
REMARK  status: ('A' for Active; 'I' for Inactive)
REMARK    1  A    between atoms: C_1  and  C_2
REMARK    2  A    between atoms: C_2  and  C_3
REMARK    3  A    between atoms: C_3  and  N_4
REMARK    4  A    between atoms: N_4  and  C_5
REMARK    5  A    between atoms: N_4  and  C_10
REMARK    6  A    between atoms: C_5  and  C_6
REMARK    7  A    between atoms: C_6  and  C_7
REMARK    8  A    between atoms: C_7  and  C_8
REMARK    9  A    between atoms: C_14  and  O_15
REMARK                            x       y       z     vdW  Elec       q    Type
REMARK                         _______ _______ _______ _____ _____    ______ ____
ROOT
ATOM      1  C   UNL     1       2.836   6.055  18.552  0.00  0.00    +0.000 C 
ATOM      2  C   UNL     1       3.345   7.280  17.760  0.00  0.00    +0.000 C 
ATOM      3  C   UNL     1       2.293   8.385  17.666  0.00  0.00    +0.000 C 
ATOM      4  C   UNL     1       1.671   8.756  18.984  0.00  0.00    +0.000 A 
ATOM      5  C   UNL     1       0.987   9.969  19.165  0.00  0.00    +0.000 A 
ATOM      6  C   UNL     1       0.398  10.293  20.385  0.00  0.00    +0.000 A 
ATOM      7  C   UNL     1       0.466   9.403  21.449  0.00  0.00    +0.000 A 
ATOM      8  C   UNL     1       1.129   8.189  21.288  0.00  0.00    +0.000 A 
ATOM      9  C   UNL     1       1.728   7.853  20.061  0.00  0.00    +0.000 A 
ATOM     10  C   UNL     1       2.477   6.541  19.981  0.00  0.00    +0.000 C 
ENDROOT
BRANCH   5  11
ATOM     11  O   UNL     1       0.854  10.911  18.184  0.00  0.00    +0.000 OA
ATOM     12  H   UNL     1       0.799  10.482  17.318  0.00  0.00    +0.000 HD
ENDBRANCH   5  11
BRANCH   1  13
ATOM     13  N   UNL     1       3.804   4.899  18.556  0.00  0.00    +0.000 NA
BRANCH  13  14
ATOM     14  C   UNL     1       5.092   5.267  19.194  0.00  0.00    +0.000 C 
BRANCH  14  16
ATOM     15  C   UNL     1       7.594   5.774  19.113  0.00  0.00    +0.000 C 
ATOM     16  C   UNL     1       6.356   5.382  18.322  0.00  0.00    +0.000 C 
ENDBRANCH  14  16
ENDBRANCH  13  14
BRANCH  13  17
ATOM     17  C   UNL     1       3.208   3.654  19.095  0.00  0.00    +0.000 C 
BRANCH  17  18
ATOM     18  C   UNL     1       1.789   3.308  18.599  0.00  0.00    +0.000 C 
BRANCH  18  19
ATOM     19  C   UNL     1       0.774   3.158  19.739  0.00  0.00    +0.000 C 
BRANCH  19  20
ATOM     20  C   UNL     1       1.455   2.899  21.011  0.00  0.00    +0.000 C 
ATOM     21  N   UNL     1       1.961   2.721  22.048  0.00  0.00    +0.000 NA
ENDBRANCH  19  20
ENDBRANCH  18  19
ENDBRANCH  17  18
ENDBRANCH  13  17
ENDBRANCH   1  13
TORSDOF 8
ENDMDL
