MODEL 1
REMARK VINA RESULT:      -6.1      0.000      0.000
REMARK  Name = 
REMARK  7 active torsions:
REMARK  status: ('A' for Active; 'I' for Inactive)
REMARK    1  A    between atoms: C_1  and  C_2
REMARK    2  A    between atoms: C_5  and  N_6
REMARK    3  A    between atoms: C_9  and  N_10
REMARK    4  A    between atoms: N_13  and  C_14
REMARK    5  A    between atoms: C_15  and  C_16
REMARK    6  A    between atoms: C_16  and  C_17
REMARK    7  A    between atoms: C_17  and  O_18
REMARK                            x       y       z     vdW  Elec       q    Type
REMARK                         _______ _______ _______ _____ _____    ______ ____
ROOT
ATOM      1  N   UNL     1       0.701  10.223  20.614  0.00  0.00    +0.000 N 
ATOM      2  C   UNL     1       0.531  11.542  20.004  0.00  0.00    +0.000 C 
ATOM      3  C   UNL     1       0.524  12.576  21.134  0.00  0.00    +0.000 C 
ATOM      4  C   UNL     1      -0.606  12.345  22.171  0.00  0.00    +0.000 C 
ATOM      5  C   UNL     1      -0.508  10.863  22.638  0.00  0.00    +0.000 C 
ATOM      6  C   UNL     1      -0.421   9.852  21.489  0.00  0.00    +0.000 C 
ENDROOT
BRANCH   1  11
ATOM      7  C   UNL     1       3.229   5.917  17.770  0.00  0.00    +0.000 C 
ATOM      8  C   UNL     1       2.554   7.041  18.505  0.00  0.00    +0.000 A 
ATOM      9  C   UNL     1       2.258   6.936  19.862  0.00  0.00    +0.000 A 
ATOM     10  C   UNL     1       1.626   7.993  20.531  0.00  0.00    +0.000 A 
ATOM     11  C   UNL     1       1.276   9.186  19.877  0.00  0.00    +0.000 A 
ATOM     12  C   UNL     1       1.589   9.275  18.517  0.00  0.00    +0.000 A 
ATOM     13  C   UNL     1       2.214   8.217  17.834  0.00  0.00    +0.000 A 
ENDBRANCH   1  11
BRANCH   4  14
ATOM     14  N   UNL     1      -1.985  12.676  21.725  0.00  0.00    +0.000 NA
ATOM     15  C   UNL     1      -2.248  14.099  21.441  0.00  0.00    +0.000 C 
ATOM     16  C   UNL     1      -2.354  14.992  22.694  0.00  0.00    +0.000 C 
ATOM     17  N   UNL     1      -3.488  14.580  23.541  0.00  0.00    +0.000 NA
ATOM     18  C   UNL     1      -3.633  15.490  24.678  0.00  0.00    +0.000 C 
ATOM     19  C   UNL     1      -3.332  13.152  23.937  0.00  0.00    +0.000 C 
ATOM     20  C   UNL     1      -3.025  12.228  22.695  0.00  0.00    +0.000 C 
BRANCH  19  21
ATOM     21  C   UNL     1      -4.599  12.640  24.674  0.00  0.00    +0.000 C 
BRANCH  21  22
ATOM     22  C   UNL     1      -5.899  12.914  23.920  0.00  0.00    +0.000 C 
BRANCH  22  23
ATOM     23  O   UNL     1      -6.728  11.756  23.930  0.00  0.00    +0.000 OA
ATOM     24  H   UNL     1      -6.286  11.066  23.408  0.00  0.00    +0.000 HD
ENDBRANCH  22  23
ENDBRANCH  21  22
ENDBRANCH  19  21
ENDBRANCH   4  14
TORSDOF 5
ENDMDL
MODEL 2
REMARK VINA RESULT:      -6.1      1.122      1.722
REMARK  Name = 
REMARK  7 active torsions:
REMARK  status: ('A' for Active; 'I' for Inactive)
REMARK    1  A    between atoms: C_1  and  C_2
REMARK    2  A    between atoms: C_5  and  N_6
REMARK    3  A    between atoms: C_9  and  N_10
REMARK    4  A    between atoms: N_13  and  C_14
REMARK    5  A    between atoms: C_15  and  C_16
REMARK    6  A    between atoms: C_16  and  C_17
REMARK    7  A    between atoms: C_17  and  O_18
REMARK                            x       y       z     vdW  Elec       q    Type
REMARK                         _______ _______ _______ _____ _____    ______ ____
ROOT
ATOM      1  N   UNL     1       1.124   9.049  20.663  0.00  0.00    +0.000 N 
ATOM      2  C   UNL     1       0.858  10.253  19.874  0.00  0.00    +0.000 C 
ATOM      3  C   UNL     1       0.921  11.452  20.823  0.00  0.00    +0.000 C 
ATOM      4  C   UNL     1      -0.103  11.369  21.985  0.00  0.00    +0.000 C 
ATOM      5  C   UNL     1       0.083   9.982  22.667  0.00  0.00    +0.000 C 
ATOM      6  C   UNL     1       0.097   8.803  21.687  0.00  0.00    +0.000 C 
ENDROOT
BRANCH   1  11
ATOM      7  C   UNL     1       3.226   4.462  17.916  0.00  0.00    +0.000 C 
ATOM      8  C   UNL     1       2.688   5.660  18.646  0.00  0.00    +0.000 A 
ATOM      9  C   UNL     1       2.691   6.921  18.054  0.00  0.00    +0.000 A 
ATOM     10  C   UNL     1       2.188   8.029  18.749  0.00  0.00    +0.000 A 
ATOM     11  C   UNL     1       1.662   7.918  20.047  0.00  0.00    +0.000 A 
ATOM     12  C   UNL     1       1.660   6.643  20.621  0.00  0.00    +0.000 A 
ATOM     13  C   UNL     1       2.171   5.526  19.935  0.00  0.00    +0.000 A 
ENDBRANCH   1  11
BRANCH   4  14
ATOM     14  N   UNL     1      -1.526  11.602  21.625  0.00  0.00    +0.000 NA
ATOM     15  C   UNL     1      -1.777  12.674  20.643  0.00  0.00    +0.000 C 
ATOM     16  C   UNL     1      -1.601  14.103  21.197  0.00  0.00    +0.000 C 
ATOM     17  N   UNL     1      -2.568  14.373  22.277  0.00  0.00    +0.000 NA
ATOM     18  C   UNL     1      -2.451  15.759  22.731  0.00  0.00    +0.000 C 
ATOM     19  C   UNL     1      -2.400  13.373  23.368  0.00  0.00    +0.000 C 
ATOM     20  C   UNL     1      -2.379  11.895  22.813  0.00  0.00    +0.000 C 
BRANCH  19  21
ATOM     21  C   UNL     1      -3.523  13.519  24.430  0.00  0.00    +0.000 C 
BRANCH  21  22
ATOM     22  C   UNL     1      -4.856  12.908  24.002  0.00  0.00    +0.000 C 
BRANCH  22  23
ATOM     23  O   UNL     1      -5.171  11.788  24.823  0.00  0.00    +0.000 OA
ATOM     24  H   UNL     1      -5.850  12.065  25.460  0.00  0.00    +0.000 HD
ENDBRANCH  22  23
ENDBRANCH  21  22
ENDBRANCH  19  21
ENDBRANCH   4  14
TORSDOF 5
ENDMDL
MODEL 3
REMARK VINA RESULT:      -6.1      2.700      4.954
REMARK  Name = 
REMARK  7 active torsions:
REMARK  status: ('A' for Active; 'I' for Inactive)
REMARK    1  A    between atoms: C_1  and  C_2
REMARK    2  A    between atoms: C_5  and  N_6
REMARK    3  A    between atoms: C_9  and  N_10
REMARK    4  A    between atoms: N_13  and  C_14
REMARK    5  A    between atoms: C_15  and  C_16
REMARK    6  A    between atoms: C_16  and  C_17
REMARK    7  A    between atoms: C_17  and  O_18
REMARK                            x       y       z     vdW  Elec       q    Type
REMARK                         _______ _______ _______ _____ _____    ______ ____
ROOT
ATOM      1  N   UNL     1       2.503   7.070  18.589  0.00  0.00    +0.000 N 
ATOM      2  C   UNL     1       2.475   6.802  20.028  0.00  0.00    +0.000 C 
ATOM      3  C   UNL     1       1.073   7.145  20.536  0.00  0.00    +0.000 C 
ATOM      4  C   UNL     1       0.674   8.623  20.286  0.00  0.00    +0.000 C 
ATOM      5  C   UNL     1       0.916   8.919  18.777  0.00  0.00    +0.000 C 
ATOM      6  C   UNL     1       2.300   8.492  18.273  0.00  0.00    +0.000 C 
ENDROOT
BRANCH   1  11
ATOM      7  C   UNL     1       6.213   4.059  15.399  0.00  0.00    +0.000 C 
ATOM      8  C   UNL     1       5.236   4.853  16.219  0.00  0.00    +0.000 A 
ATOM      9  C   UNL     1       4.240   4.221  16.959  0.00  0.00    +0.000 A 
ATOM     10  C   UNL     1       3.335   4.977  17.718  0.00  0.00    +0.000 A 
ATOM     11  C   UNL     1       3.397   6.379  17.770  0.00  0.00    +0.000 A 
ATOM     12  C   UNL     1       4.409   6.995  17.027  0.00  0.00    +0.000 A 
ATOM     13  C   UNL     1       5.316   6.246  16.256  0.00  0.00    +0.000 A 
ENDBRANCH   1  11
BRANCH   4  14
ATOM     14  N   UNL     1       1.341   9.638  21.144  0.00  0.00    +0.000 NA
ATOM     15  C   UNL     1       1.085   9.527  22.593  0.00  0.00    +0.000 C 
ATOM     16  C   UNL     1      -0.325   9.972  23.028  0.00  0.00    +0.000 C 
ATOM     17  N   UNL     1      -0.544  11.400  22.733  0.00  0.00    +0.000 NA
ATOM     18  C   UNL     1      -1.850  11.830  23.233  0.00  0.00    +0.000 C 
ATOM     19  C   UNL     1      -0.350  11.651  21.277  0.00  0.00    +0.000 C 
ATOM     20  C   UNL     1       1.003  11.035  20.749  0.00  0.00    +0.000 C 
BRANCH  19  21
ATOM     21  C   UNL     1      -0.392  13.172  20.968  0.00  0.00    +0.000 C 
BRANCH  21  22
ATOM     22  C   UNL     1       0.846  13.929  21.446  0.00  0.00    +0.000 C 
BRANCH  22  23
ATOM     23  O   UNL     1       0.648  14.411  22.771  0.00  0.00    +0.000 OA
ATOM     24  H   UNL     1       1.467  14.261  23.271  0.00  0.00    +0.000 HD
ENDBRANCH  22  23
ENDBRANCH  21  22
ENDBRANCH  19  21
ENDBRANCH   4  14
TORSDOF 5
ENDMDL
MODEL 4
REMARK VINA RESULT:      -6.1      2.543      4.924
REMARK  Name = 
REMARK  7 active torsions:
REMARK  status: ('A' for Active; 'I' for Inactive)
REMARK    1  A    between atoms: C_1  and  C_2
REMARK    2  A    between atoms: C_5  and  N_6
REMARK    3  A    between atoms: C_9  and  N_10
REMARK    4  A    between atoms: N_13  and  C_14
REMARK    5  A    between atoms: C_15  and  C_16
REMARK    6  A    between atoms: C_16  and  C_17
REMARK    7  A    between atoms: C_17  and  O_18
REMARK                            x       y       z     vdW  Elec       q    Type
REMARK                         _______ _______ _______ _____ _____    ______ ____
ROOT
ATOM      1  N   UNL     1       2.530   6.992  18.615  0.00  0.00    +0.000 N 
ATOM      2  C   UNL     1       2.420   6.723  20.049  0.00  0.00    +0.000 C 
ATOM      3  C   UNL     1       1.014   7.136  20.492  0.00  0.00    +0.000 C 
ATOM      4  C   UNL     1       0.703   8.633  20.230  0.00  0.00    +0.000 C 
ATOM      5  C   UNL     1       1.031   8.919  18.735  0.00  0.00    +0.000 C 
ATOM      6  C   UNL     1       2.413   8.423  18.296  0.00  0.00    +0.000 C 
ENDROOT
BRANCH   1  11
ATOM      7  C   UNL     1       6.185   4.137  15.224  0.00  0.00    +0.000 C 
ATOM      8  C   UNL     1       5.236   4.877  16.124  0.00  0.00    +0.000 A 
ATOM      9  C   UNL     1       5.276   6.265  16.223  0.00  0.00    +0.000 A 
ATOM     10  C   UNL     1       4.385   6.940  17.069  0.00  0.00    +0.000 A 
ATOM     11  C   UNL     1       3.426   6.258  17.836  0.00  0.00    +0.000 A 
ATOM     12  C   UNL     1       3.396   4.865  17.718  0.00  0.00    +0.000 A 
ATOM     13  C   UNL     1       4.291   4.178  16.878  0.00  0.00    +0.000 A 
ENDBRANCH   1  11
BRANCH   4  14
ATOM     14  N   UNL     1       1.378   9.610  21.123  0.00  0.00    +0.000 NA
ATOM     15  C   UNL     1       1.112   9.458  22.566  0.00  0.00    +0.000 C 
ATOM     16  C   UNL     1      -0.295   9.908  23.008  0.00  0.00    +0.000 C 
ATOM     17  N   UNL     1      -0.492  11.347  22.756  0.00  0.00    +0.000 NA
ATOM     18  C   UNL     1      -1.795  11.780  23.262  0.00  0.00    +0.000 C 
ATOM     19  C   UNL     1      -0.286  11.642  21.310  0.00  0.00    +0.000 C 
ATOM     20  C   UNL     1       1.062  11.024  20.771  0.00  0.00    +0.000 C 
BRANCH  19  21
ATOM     21  C   UNL     1      -0.305  13.172  21.049  0.00  0.00    +0.000 C 
BRANCH  21  22
ATOM     22  C   UNL     1      -0.934  13.558  19.711  0.00  0.00    +0.000 C 
BRANCH  22  23
ATOM     23  O   UNL     1      -2.212  12.946  19.573  0.00  0.00    +0.000 OA
ATOM     24  H   UNL     1      -2.107  12.151  19.024  0.00  0.00    +0.000 HD
ENDBRANCH  22  23
ENDBRANCH  21  22
ENDBRANCH  19  21
ENDBRANCH   4  14
TORSDOF 5
ENDMDL
MODEL 5
REMARK VINA RESULT:      -6.1      1.065      1.573
REMARK  Name = 
REMARK  7 active torsions:
REMARK  status: ('A' for Active; 'I' for Inactive)
REMARK    1  A    between atoms: C_1  and  C_2
REMARK    2  A    between atoms: C_5  and  N_6
REMARK    3  A    between atoms: C_9  and  N_10
REMARK    4  A    between atoms: N_13  and  C_14
REMARK    5  A    between atoms: C_15  and  C_16
REMARK    6  A    between atoms: C_16  and  C_17
REMARK    7  A    between atoms: C_17  and  O_18
REMARK                            x       y       z     vdW  Elec       q    Type
REMARK                         _______ _______ _______ _____ _____    ______ ____
ROOT
ATOM      1  N   UNL     1       0.443  10.537  19.865  0.00  0.00    +0.000 N 
ATOM      2  C   UNL     1      -0.567  11.104  18.972  0.00  0.00    +0.000 C 
ATOM      3  C   UNL     1      -0.747  12.576  19.350  0.00  0.00    +0.000 C 
ATOM      4  C   UNL     1      -1.195  12.782  20.820  0.00  0.00    +0.000 C 
ATOM      5  C   UNL     1      -0.204  11.990  21.721  0.00  0.00    +0.000 C 
ATOM      6  C   UNL     1       0.021  10.540  21.274  0.00  0.00    +0.000 C 
ENDROOT
BRANCH   1  11
ATOM      7  C   UNL     1       3.435   6.021  17.951  0.00  0.00    +0.000 C 
ATOM      8  C   UNL     1       2.665   7.206  18.463  0.00  0.00    +0.000 A 
ATOM      9  C   UNL     1       2.394   8.295  17.638  0.00  0.00    +0.000 A 
ATOM     10  C   UNL     1       1.676   9.393  18.131  0.00  0.00    +0.000 A 
ATOM     11  C   UNL     1       1.201   9.440  19.452  0.00  0.00    +0.000 A 
ATOM     12  C   UNL     1       1.477   8.334  20.262  0.00  0.00    +0.000 A 
ATOM     13  C   UNL     1       2.203   7.231  19.780  0.00  0.00    +0.000 A 
ENDBRANCH   1  11
BRANCH   4  14
ATOM     14  N   UNL     1      -2.604  12.427  21.133  0.00  0.00    +0.000 NA
ATOM     15  C   UNL     1      -3.637  13.289  20.527  0.00  0.00    +0.000 C 
ATOM     16  C   UNL     1      -3.763  14.685  21.170  0.00  0.00    +0.000 C 
ATOM     17  N   UNL     1      -4.167  14.580  22.585  0.00  0.00    +0.000 NA
ATOM     18  C   UNL     1      -4.371  15.911  23.157  0.00  0.00    +0.000 C 
ATOM     19  C   UNL     1      -3.179  13.754  23.334  0.00  0.00    +0.000 C 
ATOM     20  C   UNL     1      -2.875  12.391  22.599  0.00  0.00    +0.000 C 
BRANCH  19  21
ATOM     21  C   UNL     1      -3.674  13.474  24.779  0.00  0.00    +0.000 C 
BRANCH  21  22
ATOM     22  C   UNL     1      -4.724  12.367  24.863  0.00  0.00    +0.000 C 
BRANCH  22  23
ATOM     23  O   UNL     1      -6.001  12.869  24.481  0.00  0.00    +0.000 OA
ATOM     24  H   UNL     1      -6.674  12.238  24.786  0.00  0.00    +0.000 HD
ENDBRANCH  22  23
ENDBRANCH  21  22
ENDBRANCH  19  21
ENDBRANCH   4  14
TORSDOF 5
ENDMDL
MODEL 6
REMARK VINA RESULT:      -6.1      2.662      4.949
REMARK  Name = 
REMARK  7 active torsions:
REMARK  status: ('A' for Active; 'I' for Inactive)
REMARK    1  A    between atoms: C_1  and  C_2
REMARK    2  A    between atoms: C_5  and  N_6
REMARK    3  A    between atoms: C_9  and  N_10
REMARK    4  A    between atoms: N_13  and  C_14
REMARK    5  A    between atoms: C_15  and  C_16
REMARK    6  A    between atoms: C_16  and  C_17
REMARK    7  A    between atoms: C_17  and  O_18
REMARK                            x       y       z     vdW  Elec       q    Type
REMARK                         _______ _______ _______ _____ _____    ______ ____
ROOT
ATOM      1  N   UNL     1       2.450   7.089  18.729  0.00  0.00    +0.000 N 
ATOM      2  C   UNL     1       2.347   6.843  20.168  0.00  0.00    +0.000 C 
ATOM      3  C   UNL     1       0.938   7.251  20.608  0.00  0.00    +0.000 C 
ATOM      4  C   UNL     1       0.613   8.740  20.322  0.00  0.00    +0.000 C 
ATOM      5  C   UNL     1       0.934   9.004  18.822  0.00  0.00    +0.000 C 
ATOM      6  C   UNL     1       2.320   8.513  18.386  0.00  0.00    +0.000 C 
ENDROOT
BRANCH   1  11
ATOM      7  C   UNL     1       6.131   4.217  15.381  0.00  0.00    +0.000 C 
ATOM      8  C   UNL     1       5.174   4.960  16.270  0.00  0.00    +0.000 A 
ATOM      9  C   UNL     1       5.248   6.344  16.404  0.00  0.00    +0.000 A 
ATOM     10  C   UNL     1       4.350   7.023  17.239  0.00  0.00    +0.000 A 
ATOM     11  C   UNL     1       3.349   6.350  17.960  0.00  0.00    +0.000 A 
ATOM     12  C   UNL     1       3.286   4.961  17.806  0.00  0.00    +0.000 A 
ATOM     13  C   UNL     1       4.188   4.270  16.977  0.00  0.00    +0.000 A 
ENDBRANCH   1  11
BRANCH   4  14
ATOM     14  N   UNL     1       1.283   9.738  21.196  0.00  0.00    +0.000 NA
ATOM     15  C   UNL     1       0.989   9.635  22.638  0.00  0.00    +0.000 C 
ATOM     16  C   UNL     1      -0.421  10.113  23.039  0.00  0.00    +0.000 C 
ATOM     17  N   UNL     1      -0.597  11.546  22.739  0.00  0.00    +0.000 NA
ATOM     18  C   UNL     1      -1.905  12.008  23.207  0.00  0.00    +0.000 C 
ATOM     19  C   UNL     1      -0.362  11.792  21.289  0.00  0.00    +0.000 C 
ATOM     20  C   UNL     1       0.989  11.144  20.794  0.00  0.00    +0.000 C 
BRANCH  19  21
ATOM     21  C   UNL     1      -0.360  13.314  20.979  0.00  0.00    +0.000 C 
BRANCH  21  22
ATOM     22  C   UNL     1       0.908  14.031  21.439  0.00  0.00    +0.000 C 
BRANCH  22  23
ATOM     23  O   UNL     1       0.743  14.519  22.767  0.00  0.00    +0.000 OA
ATOM     24  H   UNL     1       0.638  13.754  23.357  0.00  0.00    +0.000 HD
ENDBRANCH  22  23
ENDBRANCH  21  22
ENDBRANCH  19  21
ENDBRANCH   4  14
TORSDOF 5
ENDMDL
MODEL 7
REMARK VINA RESULT:      -6.1      2.570      4.834
REMARK  Name = 
REMARK  7 active torsions:
REMARK  status: ('A' for Active; 'I' for Inactive)
REMARK    1  A    between atoms: C_1  and  C_2
REMARK    2  A    between atoms: C_5  and  N_6
REMARK    3  A    between atoms: C_9  and  N_10
REMARK    4  A    between atoms: N_13  and  C_14
REMARK    5  A    between atoms: C_15  and  C_16
REMARK    6  A    between atoms: C_16  and  C_17
REMARK    7  A    between atoms: C_17  and  O_18
REMARK                            x       y       z     vdW  Elec       q    Type
REMARK                         _______ _______ _______ _____ _____    ______ ____
ROOT
ATOM      1  N   UNL     1       2.463   7.113  18.602  0.00  0.00    +0.000 N 
ATOM      2  C   UNL     1       2.350   6.809  20.029  0.00  0.00    +0.000 C 
ATOM      3  C   UNL     1       0.946   7.220  20.481  0.00  0.00    +0.000 C 
ATOM      4  C   UNL     1       0.646   8.725  20.256  0.00  0.00    +0.000 C 
ATOM      5  C   UNL     1       0.977   9.046  18.769  0.00  0.00    +0.000 C 
ATOM      6  C   UNL     1       2.357   8.552  18.318  0.00  0.00    +0.000 C 
ENDROOT
BRANCH   1  11
ATOM      7  C   UNL     1       6.147   3.977  15.503  0.00  0.00    +0.000 C 
ATOM      8  C   UNL     1       5.178   4.804  16.300  0.00  0.00    +0.000 A 
ATOM      9  C   UNL     1       4.122   4.210  16.986  0.00  0.00    +0.000 A 
ATOM     10  C   UNL     1       3.225   4.996  17.723  0.00  0.00    +0.000 A 
ATOM     11  C   UNL     1       3.354   6.392  17.806  0.00  0.00    +0.000 A 
ATOM     12  C   UNL     1       4.426   6.970  17.116  0.00  0.00    +0.000 A 
ATOM     13  C   UNL     1       5.325   6.191  16.368  0.00  0.00    +0.000 A 
ENDBRANCH   1  11
BRANCH   4  14
ATOM     14  N   UNL     1       1.327   9.676  21.174  0.00  0.00    +0.000 NA
ATOM     15  C   UNL     1       1.040   9.505  22.611  0.00  0.00    +0.000 C 
ATOM     16  C   UNL     1      -0.365   9.974  23.041  0.00  0.00    +0.000 C 
ATOM     17  N   UNL     1      -0.532  11.421  22.811  0.00  0.00    +0.000 NA
ATOM     18  C   UNL     1      -1.834  11.869  23.307  0.00  0.00    +0.000 C 
ATOM     19  C   UNL     1      -0.302  11.735  21.373  0.00  0.00    +0.000 C 
ATOM     20  C   UNL     1       1.042  11.101  20.841  0.00  0.00    +0.000 C 
BRANCH  19  21
ATOM     21  C   UNL     1      -0.289  13.269  21.136  0.00  0.00    +0.000 C 
BRANCH  21  22
ATOM     22  C   UNL     1      -0.516  13.667  19.679  0.00  0.00    +0.000 C 
BRANCH  22  23
ATOM     23  O   UNL     1      -1.775  13.180  19.226  0.00  0.00    +0.000 OA
ATOM     24  H   UNL     1      -1.788  12.217  19.355  0.00  0.00    +0.000 HD
ENDBRANCH  22  23
ENDBRANCH  21  22
ENDBRANCH  19  21
ENDBRANCH   4  14
TORSDOF 5
ENDMDL
MODEL 8
REMARK VINA RESULT:      -6.0      0.195      1.017
REMARK  Name = 
REMARK  7 active torsions:
REMARK  status: ('A' for Active; 'I' for Inactive)
REMARK    1  A    between atoms: C_1  and  C_2
REMARK    2  A    between atoms: C_5  and  N_6
REMARK    3  A    between atoms: C_9  and  N_10
REMARK    4  A    between atoms: N_13  and  C_14
REMARK    5  A    between atoms: C_15  and  C_16
REMARK    6  A    between atoms: C_16  and  C_17
REMARK    7  A    between atoms: C_17  and  O_18
REMARK                            x       y       z     vdW  Elec       q    Type
REMARK                         _______ _______ _______ _____ _____    ______ ____
ROOT
ATOM      1  N   UNL     1       0.667  10.185  20.752  0.00  0.00    +0.000 N 
ATOM      2  C   UNL     1       0.484  11.478  20.093  0.00  0.00    +0.000 C 
ATOM      3  C   UNL     1       0.419  12.549  21.186  0.00  0.00    +0.000 C 
ATOM      4  C   UNL     1      -0.735  12.325  22.197  0.00  0.00    +0.000 C 
ATOM      5  C   UNL     1      -0.616  10.863  22.718  0.00  0.00    +0.000 C 
ATOM      6  C   UNL     1      -0.471   9.816  21.607  0.00  0.00    +0.000 C 
ENDROOT
BRANCH   1  11
ATOM      7  C   UNL     1       3.060   5.907  17.754  0.00  0.00    +0.000 C 
ATOM      8  C   UNL     1       2.448   7.028  18.547  0.00  0.00    +0.000 A 
ATOM      9  C   UNL     1       2.092   8.228  17.936  0.00  0.00    +0.000 A 
ATOM     10  C   UNL     1       1.525   9.264  18.690  0.00  0.00    +0.000 A 
ATOM     11  C   UNL     1       1.288   9.138  20.069  0.00  0.00    +0.000 A 
ATOM     12  C   UNL     1       1.645   7.923  20.663  0.00  0.00    +0.000 A 
ATOM     13  C   UNL     1       2.223   6.880  19.916  0.00  0.00    +0.000 A 
ENDBRANCH   1  11
BRANCH   4  14
ATOM     14  N   UNL     1      -2.108  12.607  21.701  0.00  0.00    +0.000 NA
ATOM     15  C   UNL     1      -2.391  14.011  21.348  0.00  0.00    +0.000 C 
ATOM     16  C   UNL     1      -2.550  14.955  22.557  0.00  0.00    +0.000 C 
ATOM     17  N   UNL     1      -3.698  14.555  23.392  0.00  0.00    +0.000 NA
ATOM     18  C   UNL     1      -3.892  15.511  24.483  0.00  0.00    +0.000 C 
ATOM     19  C   UNL     1      -3.524  13.150  23.854  0.00  0.00    +0.000 C 
ATOM     20  C   UNL     1      -3.165  12.180  22.662  0.00  0.00    +0.000 C 
BRANCH  19  21
ATOM     21  C   UNL     1      -4.800  12.643  24.579  0.00  0.00    +0.000 C 
BRANCH  21  22
ATOM     22  C   UNL     1      -6.081  12.832  23.768  0.00  0.00    +0.000 C 
BRANCH  22  23
ATOM     23  O   UNL     1      -7.036  11.835  24.117  0.00  0.00    +0.000 OA
ATOM     24  H   UNL     1      -7.113  11.819  25.085  0.00  0.00    +0.000 HD
ENDBRANCH  22  23
ENDBRANCH  21  22
ENDBRANCH  19  21
ENDBRANCH   4  14
TORSDOF 5
ENDMDL
MODEL 9
REMARK VINA RESULT:      -5.9      0.969      1.125
REMARK  Name = 
REMARK  7 active torsions:
REMARK  status: ('A' for Active; 'I' for Inactive)
REMARK    1  A    between atoms: C_1  and  C_2
REMARK    2  A    between atoms: C_5  and  N_6
REMARK    3  A    between atoms: C_9  and  N_10
REMARK    4  A    between atoms: N_13  and  C_14
REMARK    5  A    between atoms: C_15  and  C_16
REMARK    6  A    between atoms: C_16  and  C_17
REMARK    7  A    between atoms: C_17  and  O_18
REMARK                            x       y       z     vdW  Elec       q    Type
REMARK                         _______ _______ _______ _____ _____    ______ ____
ROOT
ATOM      1  N   UNL     1       1.001   9.514  20.408  0.00  0.00    +0.000 N 
ATOM      2  C   UNL     1       0.719  10.783  19.736  0.00  0.00    +0.000 C 
ATOM      3  C   UNL     1       0.753  11.886  20.797  0.00  0.00    +0.000 C 
ATOM      4  C   UNL     1      -0.277  11.674  21.937  0.00  0.00    +0.000 C 
ATOM      5  C   UNL     1      -0.071  10.231  22.483  0.00  0.00    +0.000 C 
ATOM      6  C   UNL     1      -0.028   9.152  21.395  0.00  0.00    +0.000 C 
ENDROOT
BRANCH   1  11
ATOM      7  C   UNL     1       3.459   5.110  17.655  0.00  0.00    +0.000 C 
ATOM      8  C   UNL     1       2.804   6.261  18.365  0.00  0.00    +0.000 A 
ATOM      9  C   UNL     1       2.382   6.143  19.687  0.00  0.00    +0.000 A 
ATOM     10  C   UNL     1       1.770   7.225  20.333  0.00  0.00    +0.000 A 
ATOM     11  C   UNL     1       1.564   8.457  19.691  0.00  0.00    +0.000 A 
ATOM     12  C   UNL     1       2.002   8.559  18.366  0.00  0.00    +0.000 A 
ATOM     13  C   UNL     1       2.609   7.477  17.706  0.00  0.00    +0.000 A 
ENDBRANCH   1  11
BRANCH   4  14
ATOM     14  N   UNL     1      -1.702  11.916  21.588  0.00  0.00    +0.000 NA
ATOM     15  C   UNL     1      -1.957  13.018  20.641  0.00  0.00    +0.000 C 
ATOM     16  C   UNL     1      -1.782  14.428  21.240  0.00  0.00    +0.000 C 
ATOM     17  N   UNL     1      -2.746  14.662  22.331  0.00  0.00    +0.000 NA
ATOM     18  C   UNL     1      -2.631  16.033  22.829  0.00  0.00    +0.000 C 
ATOM     19  C   UNL     1      -2.574  13.627  23.389  0.00  0.00    +0.000 C 
ATOM     20  C   UNL     1      -2.552  12.169  22.787  0.00  0.00    +0.000 C 
BRANCH  19  21
ATOM     21  C   UNL     1      -3.694  13.737  24.459  0.00  0.00    +0.000 C 
BRANCH  21  22
ATOM     22  C   UNL     1      -4.442  12.427  24.701  0.00  0.00    +0.000 C 
BRANCH  22  23
ATOM     23  O   UNL     1      -5.847  12.640  24.625  0.00  0.00    +0.000 OA
ATOM     24  H   UNL     1      -6.260  12.196  25.385  0.00  0.00    +0.000 HD
ENDBRANCH  22  23
ENDBRANCH  21  22
ENDBRANCH  19  21
ENDBRANCH   4  14
TORSDOF 5
ENDMDL
