MODEL 1
REMARK VINA RESULT:      -9.1      0.000      0.000
REMARK  Name = 
REMARK  7 active torsions:
REMARK  status: ('A' for Active; 'I' for Inactive)
REMARK    1  A    between atoms: C_1  and  N_2
REMARK    2  A    between atoms: N_2  and  C_3
REMARK    3  A    between atoms: N_2  and  C_4
REMARK    4  A    between atoms: C_7  and  C_8
REMARK    5  A    between atoms: C_9  and  C_10
REMARK    6  A    between atoms: C_10  and  C_12
REMARK    7  A    between atoms: N_14  and  C_15
REMARK                            x       y       z     vdW  Elec       q    Type
REMARK                         _______ _______ _______ _____ _____    ______ ____
ROOT
ATOM      1  C   UNL     1       6.944   6.764  17.371  0.00  0.00    +0.000 C 
ATOM      2  O   UNL     1       7.484   6.223  16.400  0.00  0.00    +0.000 OA
ENDROOT
BRANCH   1   3
ATOM      3  C   UNL     1       5.434   6.042  17.827  0.00  0.00    +0.000 A 
ATOM      4  C   UNL     1       5.856   5.113  18.792  0.00  0.00    +0.000 A 
ATOM      5  N   UNL     1       4.822   4.289  18.512  0.00  0.00    +0.000 N 
ATOM      6  C   UNL     1       4.503   3.413  17.413  0.00  0.00    +0.000 C 
ATOM      7  C   UNL     1       3.777   4.858  19.138  0.00  0.00    +0.000 A 
ATOM      8  C   UNL     1       2.850   3.976  19.901  0.00  0.00    +0.000 A 
ATOM      9  C   UNL     1       1.713   4.330  20.572  0.00  0.00    +0.000 A 
ATOM     10  C   UNL     1       1.573   5.668  20.502  0.00  0.00    +0.000 A 
ATOM     11  C   UNL     1       2.589   6.486  19.619  0.00  0.00    +0.000 A 
ATOM     12  C   UNL     1       3.924   6.304  18.775  0.00  0.00    +0.000 A 
ENDBRANCH   1   3
BRANCH   1  14
ATOM     13  C   UNL     1       8.620   8.795  18.474  0.00  0.00    +0.000 C 
ATOM     14  C   UNL     1       7.599   8.400  17.578  0.00  0.00    +0.000 C 
BRANCH  13  18
ATOM     15  C   UNL     1      10.003  12.963  19.736  0.00  0.00    +0.000 A 
ATOM     16  C   UNL     1       9.646  11.999  20.686  0.00  0.00    +0.000 A 
ATOM     17  C   UNL     1       9.317  10.641  20.319  0.00  0.00    +0.000 A 
ATOM     18  C   UNL     1       9.217  10.201  18.952  0.00  0.00    +0.000 A 
ATOM     19  C   UNL     1       9.577  11.191  18.034  0.00  0.00    +0.000 A 
ATOM     20  C   UNL     1       9.931  12.522  18.411  0.00  0.00    +0.000 A 
BRANCH  15  22
ATOM     21  C   UNL     1      11.328  14.998  19.201  0.00  0.00    +0.000 C 
ATOM     22  N   UNL     1      10.436  14.243  20.078  0.00  0.00    +0.000 N 
ATOM     23  C   UNL     1      10.329  14.671  21.473  0.00  0.00    +0.000 C 
ENDBRANCH  15  22
ENDBRANCH  13  18
ENDBRANCH   1  14
TORSDOF 4
ENDMDL
MODEL 2
REMARK VINA RESULT:      -9.1      1.251      1.900
REMARK  Name = 
REMARK  7 active torsions:
REMARK  status: ('A' for Active; 'I' for Inactive)
REMARK    1  A    between atoms: C_1  and  N_2
REMARK    2  A    between atoms: N_2  and  C_3
REMARK    3  A    between atoms: N_2  and  C_4
REMARK    4  A    between atoms: C_7  and  C_8
REMARK    5  A    between atoms: C_9  and  C_10
REMARK    6  A    between atoms: C_10  and  C_12
REMARK    7  A    between atoms: N_14  and  C_15
REMARK                            x       y       z     vdW  Elec       q    Type
REMARK                         _______ _______ _______ _____ _____    ______ ____
ROOT
ATOM      1  C   UNL     1       7.025   6.624  17.338  0.00  0.00    +0.000 C 
ATOM      2  O   UNL     1       7.510   6.069  16.346  0.00  0.00    +0.000 OA
ENDROOT
BRANCH   1   3
ATOM      3  C   UNL     1       5.564   5.886  17.912  0.00  0.00    +0.000 A 
ATOM      4  C   UNL     1       4.712   6.074  16.812  0.00  0.00    +0.000 A 
ATOM      5  N   UNL     1       3.620   6.106  17.608  0.00  0.00    +0.000 N 
ATOM      6  C   UNL     1       3.081   7.068  18.536  0.00  0.00    +0.000 C 
ATOM      7  C   UNL     1       3.393   4.813  17.896  0.00  0.00    +0.000 A 
ATOM      8  C   UNL     1       1.989   4.317  17.840  0.00  0.00    +0.000 A 
ATOM      9  C   UNL     1       1.526   3.065  18.131  0.00  0.00    +0.000 A 
ATOM     10  C   UNL     1       2.578   2.277  18.426  0.00  0.00    +0.000 A 
ATOM     11  C   UNL     1       4.009   2.931  18.505  0.00  0.00    +0.000 A 
ATOM     12  C   UNL     1       4.761   4.305  18.232  0.00  0.00    +0.000 A 
ENDBRANCH   1   3
BRANCH   1  14
ATOM     13  C   UNL     1       8.517   8.781  18.467  0.00  0.00    +0.000 C 
ATOM     14  C   UNL     1       7.659   8.277  17.461  0.00  0.00    +0.000 C 
BRANCH  13  18
ATOM     15  C   UNL     1       9.667  13.051  19.612  0.00  0.00    +0.000 A 
ATOM     16  C   UNL     1       9.673  12.021  20.560  0.00  0.00    +0.000 A 
ATOM     17  C   UNL     1       9.425  10.644  20.200  0.00  0.00    +0.000 A 
ATOM     18  C   UNL     1       9.043  10.236  18.873  0.00  0.00    +0.000 A 
ATOM     19  C   UNL     1       9.047  11.292  17.958  0.00  0.00    +0.000 A 
ATOM     20  C   UNL     1       9.323  12.645  18.319  0.00  0.00    +0.000 A 
BRANCH  15  22
ATOM     21  C   UNL     1      10.304  15.335  18.864  0.00  0.00    +0.000 C 
ATOM     22  N   UNL     1      10.018  14.366  19.917  0.00  0.00    +0.000 N 
ATOM     23  C   UNL     1      10.485  14.671  21.270  0.00  0.00    +0.000 C 
ENDBRANCH  15  22
ENDBRANCH  13  18
ENDBRANCH   1  14
TORSDOF 4
ENDMDL
MODEL 3
REMARK VINA RESULT:      -9.0      1.017      1.386
REMARK  Name = 
REMARK  7 active torsions:
REMARK  status: ('A' for Active; 'I' for Inactive)
REMARK    1  A    between atoms: C_1  and  N_2
REMARK    2  A    between atoms: N_2  and  C_3
REMARK    3  A    between atoms: N_2  and  C_4
REMARK    4  A    between atoms: C_7  and  C_8
REMARK    5  A    between atoms: C_9  and  C_10
REMARK    6  A    between atoms: C_10  and  C_12
REMARK    7  A    between atoms: N_14  and  C_15
REMARK                            x       y       z     vdW  Elec       q    Type
REMARK                         _______ _______ _______ _____ _____    ______ ____
ROOT
ATOM      1  C   UNL     1       6.910   6.183  17.180  0.00  0.00    +0.000 C 
ATOM      2  O   UNL     1       7.157   5.934  15.995  0.00  0.00    +0.000 OA
ENDROOT
BRANCH   1   3
ATOM      3  C   UNL     1       5.352   5.628  17.705  0.00  0.00    +0.000 A 
ATOM      4  C   UNL     1       5.713   4.644  18.639  0.00  0.00    +0.000 A 
ATOM      5  N   UNL     1       4.580   3.944  18.404  0.00  0.00    +0.000 N 
ATOM      6  C   UNL     1       4.113   3.126  17.314  0.00  0.00    +0.000 C 
ATOM      7  C   UNL     1       3.638   4.618  19.086  0.00  0.00    +0.000 A 
ATOM      8  C   UNL     1       2.656   3.834  19.886  0.00  0.00    +0.000 A 
ATOM      9  C   UNL     1       1.600   4.303  20.616  0.00  0.00    +0.000 A 
ATOM     10  C   UNL     1       1.609   5.650  20.566  0.00  0.00    +0.000 A 
ATOM     11  C   UNL     1       2.666   6.361  19.641  0.00  0.00    +0.000 A 
ATOM     12  C   UNL     1       3.929   6.044  18.729  0.00  0.00    +0.000 A 
ENDBRANCH   1   3
BRANCH   1  14
ATOM     13  C   UNL     1       7.614   8.860  17.881  0.00  0.00    +0.000 C 
ATOM     14  C   UNL     1       7.964   7.496  17.741  0.00  0.00    +0.000 C 
BRANCH  13  18
ATOM     15  C   UNL     1      10.213  12.563  18.520  0.00  0.00    +0.000 A 
ATOM     16  C   UNL     1       9.113  12.591  17.655  0.00  0.00    +0.000 A 
ATOM     17  C   UNL     1       8.209  11.471  17.524  0.00  0.00    +0.000 A 
ATOM     18  C   UNL     1       8.428  10.206  18.176  0.00  0.00    +0.000 A 
ATOM     19  C   UNL     1       9.535  10.218  19.028  0.00  0.00    +0.000 A 
ATOM     20  C   UNL     1      10.404  11.341  19.173  0.00  0.00    +0.000 A 
BRANCH  15  22
ATOM     21  C   UNL     1      12.331  13.532  19.390  0.00  0.00    +0.000 C 
ATOM     22  N   UNL     1      11.026  13.672  18.749  0.00  0.00    +0.000 N 
ATOM     23  C   UNL     1      10.423  15.004  18.715  0.00  0.00    +0.000 C 
ENDBRANCH  15  22
ENDBRANCH  13  18
ENDBRANCH   1  14
TORSDOF 4
ENDMDL
MODEL 4
REMARK VINA RESULT:      -8.9      1.330      2.269
REMARK  Name = 
REMARK  7 active torsions:
REMARK  status: ('A' for Active; 'I' for Inactive)
REMARK    1  A    between atoms: C_1  and  N_2
REMARK    2  A    between atoms: N_2  and  C_3
REMARK    3  A    between atoms: N_2  and  C_4
REMARK    4  A    between atoms: C_7  and  C_8
REMARK    5  A    between atoms: C_9  and  C_10
REMARK    6  A    between atoms: C_10  and  C_12
REMARK    7  A    between atoms: N_14  and  C_15
REMARK                            x       y       z     vdW  Elec       q    Type
REMARK                         _______ _______ _______ _____ _____    ______ ____
ROOT
ATOM      1  C   UNL     1       7.052   6.346  17.412  0.00  0.00    +0.000 C 
ATOM      2  O   UNL     1       7.594   5.662  16.538  0.00  0.00    +0.000 OA
ENDROOT
BRANCH   1   3
ATOM      3  C   UNL     1       5.531   5.712  17.957  0.00  0.00    +0.000 A 
ATOM      4  C   UNL     1       4.708   5.991  16.854  0.00  0.00    +0.000 A 
ATOM      5  N   UNL     1       3.614   6.091  17.641  0.00  0.00    +0.000 N 
ATOM      6  C   UNL     1       3.142   7.071  18.586  0.00  0.00    +0.000 C 
ATOM      7  C   UNL     1       3.283   4.814  17.897  0.00  0.00    +0.000 A 
ATOM      8  C   UNL     1       1.845   4.431  17.818  0.00  0.00    +0.000 A 
ATOM      9  C   UNL     1       1.282   3.213  18.075  0.00  0.00    +0.000 A 
ATOM     10  C   UNL     1       2.267   2.339  18.362  0.00  0.00    +0.000 A 
ATOM     11  C   UNL     1       3.743   2.876  18.468  0.00  0.00    +0.000 A 
ATOM     12  C   UNL     1       4.604   4.192  18.233  0.00  0.00    +0.000 A 
ENDBRANCH   1   3
BRANCH   1  14
ATOM     13  C   UNL     1       8.404   8.645  18.430  0.00  0.00    +0.000 C 
ATOM     14  C   UNL     1       7.720   7.990  17.379  0.00  0.00    +0.000 C 
BRANCH  13  18
ATOM     15  C   UNL     1      10.180  12.809  19.049  0.00  0.00    +0.000 A 
ATOM     16  C   UNL     1       9.356  12.529  17.953  0.00  0.00    +0.000 A 
ATOM     17  C   UNL     1       8.690  11.256  17.797  0.00  0.00    +0.000 A 
ATOM     18  C   UNL     1       8.908  10.143  18.683  0.00  0.00    +0.000 A 
ATOM     19  C   UNL     1       9.738  10.460  19.761  0.00  0.00    +0.000 A 
ATOM     20  C   UNL     1      10.366  11.733  19.922  0.00  0.00    +0.000 A 
BRANCH  15  22
ATOM     21  C   UNL     1      10.132  14.997  20.228  0.00  0.00    +0.000 C 
ATOM     22  N   UNL     1      10.736  14.066  19.279  0.00  0.00    +0.000 N 
ATOM     23  C   UNL     1      11.677  14.607  18.299  0.00  0.00    +0.000 C 
ENDBRANCH  15  22
ENDBRANCH  13  18
ENDBRANCH   1  14
TORSDOF 4
ENDMDL
MODEL 5
REMARK VINA RESULT:      -8.5      1.757      2.354
REMARK  Name = 
REMARK  7 active torsions:
REMARK  status: ('A' for Active; 'I' for Inactive)
REMARK    1  A    between atoms: C_1  and  N_2
REMARK    2  A    between atoms: N_2  and  C_3
REMARK    3  A    between atoms: N_2  and  C_4
REMARK    4  A    between atoms: C_7  and  C_8
REMARK    5  A    between atoms: C_9  and  C_10
REMARK    6  A    between atoms: C_10  and  C_12
REMARK    7  A    between atoms: N_14  and  C_15
REMARK                            x       y       z     vdW  Elec       q    Type
REMARK                         _______ _______ _______ _____ _____    ______ ____
ROOT
ATOM      1  C   UNL     1       7.209   6.112  18.582  0.00  0.00    +0.000 C 
ATOM      2  O   UNL     1       8.055   5.222  18.450  0.00  0.00    +0.000 OA
ENDROOT
BRANCH   1   3
ATOM      3  C   UNL     1       5.588   5.519  18.766  0.00  0.00    +0.000 A 
ATOM      4  C   UNL     1       5.142   5.527  17.435  0.00  0.00    +0.000 A 
ATOM      5  N   UNL     1       3.861   5.724  17.820  0.00  0.00    +0.000 N 
ATOM      6  C   UNL     1       3.134   6.847  18.356  0.00  0.00    +0.000 C 
ATOM      7  C   UNL     1       3.456   4.508  18.224  0.00  0.00    +0.000 A 
ATOM      8  C   UNL     1       2.106   4.041  17.799  0.00  0.00    +0.000 A 
ATOM      9  C   UNL     1       1.480   2.870  18.123  0.00  0.00    +0.000 A 
ATOM     10  C   UNL     1       2.322   2.125  18.865  0.00  0.00    +0.000 A 
ATOM     11  C   UNL     1       3.702   2.751  19.295  0.00  0.00    +0.000 A 
ATOM     12  C   UNL     1       4.606   4.038  19.061  0.00  0.00    +0.000 A 
ENDBRANCH   1   3
BRANCH   1  14
ATOM     13  C   UNL     1       8.500   8.654  18.724  0.00  0.00    +0.000 C 
ATOM     14  C   UNL     1       7.860   7.644  17.968  0.00  0.00    +0.000 C 
BRANCH  13  18
ATOM     15  C   UNL     1       9.602  13.044  18.104  0.00  0.00    +0.000 A 
ATOM     16  C   UNL     1      10.413  12.195  18.867  0.00  0.00    +0.000 A 
ATOM     17  C   UNL     1      10.148  10.779  18.982  0.00  0.00    +0.000 A 
ATOM     18  C   UNL     1       8.978  10.152  18.425  0.00  0.00    +0.000 A 
ATOM     19  C   UNL     1       8.195  11.032  17.674  0.00  0.00    +0.000 A 
ATOM     20  C   UNL     1       8.483  12.424  17.541  0.00  0.00    +0.000 A 
BRANCH  15  22
ATOM     21  C   UNL     1       8.874  15.418  17.966  0.00  0.00    +0.000 C 
ATOM     22  N   UNL     1       9.906  14.388  17.884  0.00  0.00    +0.000 N 
ATOM     23  C   UNL     1      11.149  14.721  17.191  0.00  0.00    +0.000 C 
ENDBRANCH  15  22
ENDBRANCH  13  18
ENDBRANCH   1  14
TORSDOF 4
ENDMDL
MODEL 6
REMARK VINA RESULT:      -8.4      1.722      1.960
REMARK  Name = 
REMARK  7 active torsions:
REMARK  status: ('A' for Active; 'I' for Inactive)
REMARK    1  A    between atoms: C_1  and  N_2
REMARK    2  A    between atoms: N_2  and  C_3
REMARK    3  A    between atoms: N_2  and  C_4
REMARK    4  A    between atoms: C_7  and  C_8
REMARK    5  A    between atoms: C_9  and  C_10
REMARK    6  A    between atoms: C_10  and  C_12
REMARK    7  A    between atoms: N_14  and  C_15
REMARK                            x       y       z     vdW  Elec       q    Type
REMARK                         _______ _______ _______ _____ _____    ______ ____
ROOT
ATOM      1  C   UNL     1       7.332   7.058  18.197  0.00  0.00    +0.000 C 
ATOM      2  O   UNL     1       8.192   6.383  18.771  0.00  0.00    +0.000 OA
ENDROOT
BRANCH   1   3
ATOM      3  C   UNL     1       5.981   6.132  17.621  0.00  0.00    +0.000 A 
ATOM      4  C   UNL     1       6.225   4.889  18.226  0.00  0.00    +0.000 A 
ATOM      5  N   UNL     1       5.600   4.230  17.225  0.00  0.00    +0.000 N 
ATOM      6  C   UNL     1       5.934   3.935  15.854  0.00  0.00    +0.000 C 
ATOM      7  C   UNL     1       4.294   4.399  17.493  0.00  0.00    +0.000 A 
ATOM      8  C   UNL     1       3.392   3.221  17.361  0.00  0.00    +0.000 A 
ATOM      9  C   UNL     1       2.038   3.173  17.541  0.00  0.00    +0.000 A 
ATOM     10  C   UNL     1       1.617   4.388  17.944  0.00  0.00    +0.000 A 
ATOM     11  C   UNL     1       2.658   5.568  17.994  0.00  0.00    +0.000 A 
ATOM     12  C   UNL     1       4.213   5.857  17.827  0.00  0.00    +0.000 A 
ENDBRANCH   1   3
BRANCH   1  14
ATOM     13  C   UNL     1       8.746   9.523  18.469  0.00  0.00    +0.000 C 
ATOM     14  C   UNL     1       8.040   8.596  17.666  0.00  0.00    +0.000 C 
BRANCH  13  18
ATOM     15  C   UNL     1      10.088  13.878  18.150  0.00  0.00    +0.000 A 
ATOM     16  C   UNL     1      10.947  12.890  18.645  0.00  0.00    +0.000 A 
ATOM     17  C   UNL     1      10.589  11.490  18.648  0.00  0.00    +0.000 A 
ATOM     18  C   UNL     1       9.289  11.013  18.255  0.00  0.00    +0.000 A 
ATOM     19  C   UNL     1       8.460  12.028  17.770  0.00  0.00    +0.000 A 
ATOM     20  C   UNL     1       8.837  13.405  17.743  0.00  0.00    +0.000 A 
BRANCH  15  22
ATOM     21  C   UNL     1      11.329  15.664  16.944  0.00  0.00    +0.000 C 
ATOM     22  N   UNL     1      10.460  15.217  18.029  0.00  0.00    +0.000 N 
ATOM     23  C   UNL     1      10.315  16.092  19.192  0.00  0.00    +0.000 C 
ENDBRANCH  15  22
ENDBRANCH  13  18
ENDBRANCH   1  14
TORSDOF 4
ENDMDL
MODEL 7
REMARK VINA RESULT:      -8.3      2.541      4.153
REMARK  Name = 
REMARK  7 active torsions:
REMARK  status: ('A' for Active; 'I' for Inactive)
REMARK    1  A    between atoms: C_1  and  N_2
REMARK    2  A    between atoms: N_2  and  C_3
REMARK    3  A    between atoms: N_2  and  C_4
REMARK    4  A    between atoms: C_7  and  C_8
REMARK    5  A    between atoms: C_9  and  C_10
REMARK    6  A    between atoms: C_10  and  C_12
REMARK    7  A    between atoms: N_14  and  C_15
REMARK                            x       y       z     vdW  Elec       q    Type
REMARK                         _______ _______ _______ _____ _____    ______ ____
ROOT
ATOM      1  C   UNL     1       7.248   6.810  17.646  0.00  0.00    +0.000 C 
ATOM      2  O   UNL     1       7.486   6.368  18.775  0.00  0.00    +0.000 OA
ENDROOT
BRANCH   1   3
ATOM      3  C   UNL     1       6.812   5.589  16.492  0.00  0.00    +0.000 A 
ATOM      4  C   UNL     1       5.565   6.062  16.053  0.00  0.00    +0.000 A 
ATOM      5  N   UNL     1       5.138   4.809  15.780  0.00  0.00    +0.000 N 
ATOM      6  C   UNL     1       4.733   3.687  16.590  0.00  0.00    +0.000 C 
ATOM      7  C   UNL     1       5.732   4.512  14.612  0.00  0.00    +0.000 A 
ATOM      8  C   UNL     1       4.915   3.844  13.559  0.00  0.00    +0.000 A 
ATOM      9  C   UNL     1       5.318   3.419  12.325  0.00  0.00    +0.000 A 
ATOM     10  C   UNL     1       6.609   3.766  12.153  0.00  0.00    +0.000 A 
ATOM     11  C   UNL     1       7.380   4.421  13.360  0.00  0.00    +0.000 A 
ATOM     12  C   UNL     1       7.139   4.977  14.829  0.00  0.00    +0.000 A 
ENDBRANCH   1   3
BRANCH   1  14
ATOM     13  C   UNL     1       8.637   9.161  18.479  0.00  0.00    +0.000 C 
ATOM     14  C   UNL     1       7.985   8.415  17.470  0.00  0.00    +0.000 C 
BRANCH  13  18
ATOM     15  C   UNL     1       9.899  13.523  18.988  0.00  0.00    +0.000 A 
ATOM     16  C   UNL     1      10.495  12.504  19.740  0.00  0.00    +0.000 A 
ATOM     17  C   UNL     1      10.196  11.108  19.517  0.00  0.00    +0.000 A 
ATOM     18  C   UNL     1       9.188  10.660  18.593  0.00  0.00    +0.000 A 
ATOM     19  C   UNL     1       8.615  11.705  17.864  0.00  0.00    +0.000 A 
ATOM     20  C   UNL     1       8.940  13.079  18.072  0.00  0.00    +0.000 A 
BRANCH  15  22
ATOM     21  C   UNL     1       9.882  15.647  20.281  0.00  0.00    +0.000 C 
ATOM     22  N   UNL     1      10.259  14.864  19.107  0.00  0.00    +0.000 N 
ATOM     23  C   UNL     1      10.662  15.592  17.904  0.00  0.00    +0.000 C 
ENDBRANCH  15  22
ENDBRANCH  13  18
ENDBRANCH   1  14
TORSDOF 4
ENDMDL
MODEL 8
REMARK VINA RESULT:      -8.3      1.636      1.977
REMARK  Name = 
REMARK  7 active torsions:
REMARK  status: ('A' for Active; 'I' for Inactive)
REMARK    1  A    between atoms: C_1  and  N_2
REMARK    2  A    between atoms: N_2  and  C_3
REMARK    3  A    between atoms: N_2  and  C_4
REMARK    4  A    between atoms: C_7  and  C_8
REMARK    5  A    between atoms: C_9  and  C_10
REMARK    6  A    between atoms: C_10  and  C_12
REMARK    7  A    between atoms: N_14  and  C_15
REMARK                            x       y       z     vdW  Elec       q    Type
REMARK                         _______ _______ _______ _____ _____    ______ ____
ROOT
ATOM      1  C   UNL     1       7.389   7.046  18.216  0.00  0.00    +0.000 C 
ATOM      2  O   UNL     1       8.314   6.328  18.609  0.00  0.00    +0.000 OA
ENDROOT
BRANCH   1   3
ATOM      3  C   UNL     1       6.020   6.164  17.618  0.00  0.00    +0.000 A 
ATOM      4  C   UNL     1       6.196   4.924  18.251  0.00  0.00    +0.000 A 
ATOM      5  N   UNL     1       5.574   4.273  17.243  0.00  0.00    +0.000 N 
ATOM      6  C   UNL     1       5.935   3.940  15.887  0.00  0.00    +0.000 C 
ATOM      7  C   UNL     1       4.269   4.499  17.470  0.00  0.00    +0.000 A 
ATOM      8  C   UNL     1       3.324   3.355  17.331  0.00  0.00    +0.000 A 
ATOM      9  C   UNL     1       1.965   3.364  17.473  0.00  0.00    +0.000 A 
ATOM     10  C   UNL     1       1.581   4.602  17.842  0.00  0.00    +0.000 A 
ATOM     11  C   UNL     1       2.668   5.740  17.903  0.00  0.00    +0.000 A 
ATOM     12  C   UNL     1       4.236   5.964  17.776  0.00  0.00    +0.000 A 
ENDBRANCH   1   3
BRANCH   1  14
ATOM     13  C   UNL     1       8.899   9.426  18.673  0.00  0.00    +0.000 C 
ATOM     14  C   UNL     1       8.008   8.674  17.872  0.00  0.00    +0.000 C 
BRANCH  13  18
ATOM     15  C   UNL     1      10.678  13.627  18.418  0.00  0.00    +0.000 A 
ATOM     16  C   UNL     1       9.526  13.283  17.701  0.00  0.00    +0.000 A 
ATOM     17  C   UNL     1       8.879  12.000  17.853  0.00  0.00    +0.000 A 
ATOM     18  C   UNL     1       9.423  10.938  18.658  0.00  0.00    +0.000 A 
ATOM     19  C   UNL     1      10.573  11.318  19.355  0.00  0.00    +0.000 A 
ATOM     20  C   UNL     1      11.186  12.601  19.221  0.00  0.00    +0.000 A 
BRANCH  15  22
ATOM     21  C   UNL     1      12.120  15.297  17.273  0.00  0.00    +0.000 C 
ATOM     22  N   UNL     1      11.249  14.898  18.375  0.00  0.00    +0.000 N 
ATOM     23  C   UNL     1      11.302  15.686  19.606  0.00  0.00    +0.000 C 
ENDBRANCH  15  22
ENDBRANCH  13  18
ENDBRANCH   1  14
TORSDOF 4
ENDMDL
MODEL 9
REMARK VINA RESULT:      -8.1      5.941      7.938
REMARK  Name = 
REMARK  7 active torsions:
REMARK  status: ('A' for Active; 'I' for Inactive)
REMARK    1  A    between atoms: C_1  and  N_2
REMARK    2  A    between atoms: N_2  and  C_3
REMARK    3  A    between atoms: N_2  and  C_4
REMARK    4  A    between atoms: C_7  and  C_8
REMARK    5  A    between atoms: C_9  and  C_10
REMARK    6  A    between atoms: C_10  and  C_12
REMARK    7  A    between atoms: N_14  and  C_15
REMARK                            x       y       z     vdW  Elec       q    Type
REMARK                         _______ _______ _______ _____ _____    ______ ____
ROOT
ATOM      1  C   UNL     1       2.206   4.611  20.622  0.00  0.00    +0.000 C 
ATOM      2  O   UNL     1       2.288   4.038  21.713  0.00  0.00    +0.000 OA
ENDROOT
BRANCH   1   3
ATOM      3  C   UNL     1       3.473   4.191  19.511  0.00  0.00    +0.000 A 
ATOM      4  C   UNL     1       2.828   4.378  18.279  0.00  0.00    +0.000 A 
ATOM      5  N   UNL     1       3.599   3.440  17.684  0.00  0.00    +0.000 N 
ATOM      6  C   UNL     1       3.657   2.001  17.745  0.00  0.00    +0.000 C 
ATOM      7  C   UNL     1       4.765   4.072  17.468  0.00  0.00    +0.000 A 
ATOM      8  C   UNL     1       5.430   3.884  16.147  0.00  0.00    +0.000 A 
ATOM      9  C   UNL     1       6.628   4.391  15.728  0.00  0.00    +0.000 A 
ATOM     10  C   UNL     1       7.121   5.183  16.701  0.00  0.00    +0.000 A 
ATOM     11  C   UNL     1       6.352   5.257  18.073  0.00  0.00    +0.000 A 
ATOM     12  C   UNL     1       5.008   4.772  18.769  0.00  0.00    +0.000 A 
ENDBRANCH   1   3
BRANCH   1  14
ATOM     13  C   UNL     1       1.633   7.396  20.876  0.00  0.00    +0.000 C 
ATOM     14  C   UNL     1       1.189   6.056  20.785  0.00  0.00    +0.000 C 
BRANCH  13  18
ATOM     15  C   UNL     1      -0.668  11.268  21.641  0.00  0.00    +0.000 A 
ATOM     16  C   UNL     1      -0.483  10.323  22.657  0.00  0.00    +0.000 A 
ATOM     17  C   UNL     1       0.336   9.148  22.474  0.00  0.00    +0.000 A 
ATOM     18  C   UNL     1       0.930   8.795  21.211  0.00  0.00    +0.000 A 
ATOM     19  C   UNL     1       0.721   9.760  20.223  0.00  0.00    +0.000 A 
ATOM     20  C   UNL     1      -0.066  10.935  20.424  0.00  0.00    +0.000 A 
BRANCH  15  22
ATOM     21  C   UNL     1      -1.065  13.330  22.974  0.00  0.00    +0.000 C 
ATOM     22  N   UNL     1      -1.357  12.465  21.834  0.00  0.00    +0.000 N 
ATOM     23  C   UNL     1      -2.627  12.664  21.136  0.00  0.00    +0.000 C 
ENDBRANCH  15  22
ENDBRANCH  13  18
ENDBRANCH   1  14
TORSDOF 4
ENDMDL
