MODEL 1
REMARK VINA RESULT:      -6.9      0.000      0.000
REMARK  Name = 
REMARK  7 active torsions:
REMARK  status: ('A' for Active; 'I' for Inactive)
REMARK    1  A    between atoms: C_1  and  O_2
REMARK    2  A    between atoms: O_2  and  C_3
REMARK    3  A    between atoms: C_5  and  N_6
REMARK    4  A    between atoms: C_7  and  C_9
REMARK    5  A    between atoms: C_12  and  C_13
REMARK    6  A    between atoms: C_17  and  O_18
REMARK    7  A    between atoms: O_18  and  C_19
REMARK                            x       y       z     vdW  Elec       q    Type
REMARK                         _______ _______ _______ _____ _____    ______ ____
ROOT
ATOM      1  N   UNL     1       2.323   6.586  20.125  0.00  0.00    +0.000 N 
ATOM      2  C   UNL     1       1.970   7.760  19.474  0.00  0.00    +0.000 C 
ATOM      3  O   UNL     1       2.173   8.031  18.292  0.00  0.00    +0.000 OA
ATOM      4  H   UNL     1       1.934   6.430  21.047  0.00  0.00    +0.000 HD
ENDROOT
BRANCH   2   5
ATOM      5  C   UNL     1       1.216   8.747  20.287  0.00  0.00    +0.000 A 
ATOM      6  C   UNL     1       0.738   9.936  19.726  0.00  0.00    +0.000 A 
ATOM      7  C   UNL     1       0.065  10.861  20.526  0.00  0.00    +0.000 A 
ATOM      8  C   UNL     1      -0.151  10.606  21.885  0.00  0.00    +0.000 A 
ATOM      9  C   UNL     1      -0.857  11.613  22.744  0.00  0.00    +0.000 C 
ATOM     10  C   UNL     1       0.293   9.396  22.435  0.00  0.00    +0.000 A 
ATOM     11  C   UNL     1       0.969   8.467  21.639  0.00  0.00    +0.000 A 
ENDBRANCH   2   5
BRANCH   1  14
ATOM     12  C   UNL     1       5.195   4.462  19.025  0.00  0.00    +0.000 A 
ATOM     13  C   UNL     1       4.475   5.540  19.542  0.00  0.00    +0.000 A 
ATOM     14  C   UNL     1       3.081   5.525  19.580  0.00  0.00    +0.000 A 
ATOM     15  C   UNL     1       2.406   4.401  19.086  0.00  0.00    +0.000 A 
ATOM     16  C   UNL     1       3.113   3.308  18.568  0.00  0.00    +0.000 A 
ATOM     17  C   UNL     1       4.509   3.345  18.544  0.00  0.00    +0.000 A 
BRANCH  12  19
ATOM     18  C   UNL     1       7.208   4.757  17.808  0.00  0.00    +0.000 C 
ATOM     19  O   UNL     1       6.554   4.603  19.060  0.00  0.00    +0.000 OA
ENDBRANCH  12  19
BRANCH  16  20
ATOM     20  O   UNL     1       2.355   2.261  18.123  0.00  0.00    +0.000 OA
ATOM     21  C   UNL     1       1.029   2.162  18.639  0.00  0.00    +0.000 C 
ENDBRANCH  16  20
ENDBRANCH   1  14
TORSDOF 4
ENDMDL
MODEL 2
REMARK VINA RESULT:      -6.9      0.301      3.042
REMARK  Name = 
REMARK  7 active torsions:
REMARK  status: ('A' for Active; 'I' for Inactive)
REMARK    1  A    between atoms: C_1  and  O_2
REMARK    2  A    between atoms: O_2  and  C_3
REMARK    3  A    between atoms: C_5  and  N_6
REMARK    4  A    between atoms: C_7  and  C_9
REMARK    5  A    between atoms: C_12  and  C_13
REMARK    6  A    between atoms: C_17  and  O_18
REMARK    7  A    between atoms: O_18  and  C_19
REMARK                            x       y       z     vdW  Elec       q    Type
REMARK                         _______ _______ _______ _____ _____    ______ ____
ROOT
ATOM      1  N   UNL     1       2.168   6.510  20.375  0.00  0.00    +0.000 N 
ATOM      2  C   UNL     1       1.907   7.709  19.724  0.00  0.00    +0.000 C 
ATOM      3  O   UNL     1       2.156   7.974  18.550  0.00  0.00    +0.000 OA
ATOM      4  H   UNL     1       1.746   6.373  21.286  0.00  0.00    +0.000 HD
ENDROOT
BRANCH   2   5
ATOM      5  C   UNL     1       1.198   8.737  20.527  0.00  0.00    +0.000 A 
ATOM      6  C   UNL     1       1.071   8.615  21.914  0.00  0.00    +0.000 A 
ATOM      7  C   UNL     1       0.366   9.580  22.636  0.00  0.00    +0.000 A 
ATOM      8  C   UNL     1      -0.205  10.680  21.988  0.00  0.00    +0.000 A 
ATOM      9  C   UNL     1      -0.980  11.703  22.765  0.00  0.00    +0.000 C 
ATOM     10  C   UNL     1      -0.042  10.822  20.603  0.00  0.00    +0.000 A 
ATOM     11  C   UNL     1       0.662   9.857  19.875  0.00  0.00    +0.000 A 
ENDBRANCH   2   5
BRANCH   1  14
ATOM     12  C   UNL     1       2.954   3.163  18.908  0.00  0.00    +0.000 A 
ATOM     13  C   UNL     1       2.236   4.223  19.463  0.00  0.00    +0.000 A 
ATOM     14  C   UNL     1       2.870   5.406  19.839  0.00  0.00    +0.000 A 
ATOM     15  C   UNL     1       4.254   5.518  19.650  0.00  0.00    +0.000 A 
ATOM     16  C   UNL     1       4.991   4.466  19.090  0.00  0.00    +0.000 A 
ATOM     17  C   UNL     1       4.332   3.292  18.718  0.00  0.00    +0.000 A 
BRANCH  12  19
ATOM     18  C   UNL     1       0.797   2.205  18.689  0.00  0.00    +0.000 C 
ATOM     19  O   UNL     1       2.207   2.069  18.574  0.00  0.00    +0.000 OA
ENDBRANCH  12  19
BRANCH  16  20
ATOM     20  O   UNL     1       6.331   4.686  18.942  0.00  0.00    +0.000 OA
ATOM     21  C   UNL     1       6.844   4.668  17.611  0.00  0.00    +0.000 C 
ENDBRANCH  16  20
ENDBRANCH   1  14
TORSDOF 4
ENDMDL
MODEL 3
REMARK VINA RESULT:      -6.9      0.546      1.209
REMARK  Name = 
REMARK  7 active torsions:
REMARK  status: ('A' for Active; 'I' for Inactive)
REMARK    1  A    between atoms: C_1  and  O_2
REMARK    2  A    between atoms: O_2  and  C_3
REMARK    3  A    between atoms: C_5  and  N_6
REMARK    4  A    between atoms: C_7  and  C_9
REMARK    5  A    between atoms: C_12  and  C_13
REMARK    6  A    between atoms: C_17  and  O_18
REMARK    7  A    between atoms: O_18  and  C_19
REMARK                            x       y       z     vdW  Elec       q    Type
REMARK                         _______ _______ _______ _____ _____    ______ ____
ROOT
ATOM      1  N   UNL     1       2.134   6.508  20.476  0.00  0.00    +0.000 N 
ATOM      2  C   UNL     1       1.898   7.714  19.831  0.00  0.00    +0.000 C 
ATOM      3  O   UNL     1       2.186   7.991  18.668  0.00  0.00    +0.000 OA
ATOM      4  H   UNL     1       1.684   6.363  21.371  0.00  0.00    +0.000 HD
ENDROOT
BRANCH   2   5
ATOM      5  C   UNL     1       1.168   8.736  20.621  0.00  0.00    +0.000 A 
ATOM      6  C   UNL     1       1.012   8.609  22.006  0.00  0.00    +0.000 A 
ATOM      7  C   UNL     1       0.287   9.568  22.716  0.00  0.00    +0.000 A 
ATOM      8  C   UNL     1      -0.275  10.668  22.059  0.00  0.00    +0.000 A 
ATOM      9  C   UNL     1      -1.070  11.684  22.824  0.00  0.00    +0.000 C 
ATOM     10  C   UNL     1      -0.083  10.815  20.679  0.00  0.00    +0.000 A 
ATOM     11  C   UNL     1       0.641   9.857  19.963  0.00  0.00    +0.000 A 
ENDBRANCH   2   5
BRANCH   1  14
ATOM     12  C   UNL     1       4.894   4.354  19.164  0.00  0.00    +0.000 A 
ATOM     13  C   UNL     1       4.210   5.469  19.652  0.00  0.00    +0.000 A 
ATOM     14  C   UNL     1       2.849   5.407  19.951  0.00  0.00    +0.000 A 
ATOM     15  C   UNL     1       2.170   4.197  19.752  0.00  0.00    +0.000 A 
ATOM     16  C   UNL     1       2.842   3.067  19.268  0.00  0.00    +0.000 A 
ATOM     17  C   UNL     1       4.206   3.153  18.979  0.00  0.00    +0.000 A 
BRANCH  12  19
ATOM     18  C   UNL     1       6.580   5.762  18.274  0.00  0.00    +0.000 C 
ATOM     19  O   UNL     1       6.225   4.550  18.925  0.00  0.00    +0.000 OA
ENDBRANCH  12  19
BRANCH  16  20
ATOM     20  O   UNL     1       2.085   1.938  19.122  0.00  0.00    +0.000 OA
ATOM     21  C   UNL     1       0.727   2.120  18.725  0.00  0.00    +0.000 C 
ENDBRANCH  16  20
ENDBRANCH   1  14
TORSDOF 4
ENDMDL
MODEL 4
REMARK VINA RESULT:      -6.8      1.544      1.920
REMARK  Name = 
REMARK  7 active torsions:
REMARK  status: ('A' for Active; 'I' for Inactive)
REMARK    1  A    between atoms: C_1  and  O_2
REMARK    2  A    between atoms: O_2  and  C_3
REMARK    3  A    between atoms: C_5  and  N_6
REMARK    4  A    between atoms: C_7  and  C_9
REMARK    5  A    between atoms: C_12  and  C_13
REMARK    6  A    between atoms: C_17  and  O_18
REMARK    7  A    between atoms: O_18  and  C_19
REMARK                            x       y       z     vdW  Elec       q    Type
REMARK                         _______ _______ _______ _____ _____    ______ ____
ROOT
ATOM      1  N   UNL     1       2.358   7.129  19.175  0.00  0.00    +0.000 N 
ATOM      2  C   UNL     1       1.817   8.366  18.854  0.00  0.00    +0.000 C 
ATOM      3  O   UNL     1       1.837   8.910  17.751  0.00  0.00    +0.000 OA
ATOM      4  H   UNL     1       2.109   6.731  20.073  0.00  0.00    +0.000 HD
ENDROOT
BRANCH   2   5
ATOM      5  C   UNL     1       1.090   9.056  19.948  0.00  0.00    +0.000 A 
ATOM      6  C   UNL     1       1.159   8.598  21.268  0.00  0.00    +0.000 A 
ATOM      7  C   UNL     1       0.433   9.247  22.269  0.00  0.00    +0.000 A 
ATOM      8  C   UNL     1      -0.354  10.364  21.970  0.00  0.00    +0.000 A 
ATOM      9  C   UNL     1      -1.148  11.044  23.045  0.00  0.00    +0.000 C 
ATOM     10  C   UNL     1      -0.390  10.846  20.654  0.00  0.00    +0.000 A 
ATOM     11  C   UNL     1       0.333  10.199  19.648  0.00  0.00    +0.000 A 
ENDBRANCH   2   5
BRANCH   1  14
ATOM     12  C   UNL     1       5.066   5.909  16.906  0.00  0.00    +0.000 A 
ATOM     13  C   UNL     1       4.308   6.753  17.718  0.00  0.00    +0.000 A 
ATOM     14  C   UNL     1       3.132   6.310  18.322  0.00  0.00    +0.000 A 
ATOM     15  C   UNL     1       2.717   4.990  18.099  0.00  0.00    +0.000 A 
ATOM     16  C   UNL     1       3.468   4.127  17.290  0.00  0.00    +0.000 A 
ATOM     17  C   UNL     1       4.644   4.593  16.700  0.00  0.00    +0.000 A 
BRANCH  12  19
ATOM     18  C   UNL     1       7.110   7.035  17.320  0.00  0.00    +0.000 C 
ATOM     19  O   UNL     1       6.200   6.468  16.388  0.00  0.00    +0.000 OA
ENDBRANCH  12  19
BRANCH  16  20
ATOM     20  O   UNL     1       2.976   2.859  17.150  0.00  0.00    +0.000 OA
ATOM     21  C   UNL     1       3.440   1.881  18.079  0.00  0.00    +0.000 C 
ENDBRANCH  16  20
ENDBRANCH   1  14
TORSDOF 4
ENDMDL
MODEL 5
REMARK VINA RESULT:      -6.8      1.638      1.657
REMARK  Name = 
REMARK  7 active torsions:
REMARK  status: ('A' for Active; 'I' for Inactive)
REMARK    1  A    between atoms: C_1  and  O_2
REMARK    2  A    between atoms: O_2  and  C_3
REMARK    3  A    between atoms: C_5  and  N_6
REMARK    4  A    between atoms: C_7  and  C_9
REMARK    5  A    between atoms: C_12  and  C_13
REMARK    6  A    between atoms: C_17  and  O_18
REMARK    7  A    between atoms: O_18  and  C_19
REMARK                            x       y       z     vdW  Elec       q    Type
REMARK                         _______ _______ _______ _____ _____    ______ ____
ROOT
ATOM      1  N   UNL     1       2.399   7.299  18.974  0.00  0.00    +0.000 N 
ATOM      2  C   UNL     1       1.876   8.535  18.618  0.00  0.00    +0.000 C 
ATOM      3  O   UNL     1       1.947   9.069  17.513  0.00  0.00    +0.000 OA
ATOM      4  H   UNL     1       2.109   6.910  19.863  0.00  0.00    +0.000 HD
ENDROOT
BRANCH   2   5
ATOM      5  C   UNL     1       1.103   9.237  19.673  0.00  0.00    +0.000 A 
ATOM      6  C   UNL     1       0.416  10.424  19.402  0.00  0.00    +0.000 A 
ATOM      7  C   UNL     1      -0.272  11.080  20.425  0.00  0.00    +0.000 A 
ATOM      8  C   UNL     1      -0.295  10.553  21.721  0.00  0.00    +0.000 A 
ATOM      9  C   UNL     1      -1.017  11.273  22.821  0.00  0.00    +0.000 C 
ATOM     10  C   UNL     1       0.360   9.342  21.981  0.00  0.00    +0.000 A 
ATOM     11  C   UNL     1       1.051   8.682  20.960  0.00  0.00    +0.000 A 
ENDBRANCH   2   5
BRANCH   1  14
ATOM     12  C   UNL     1       5.198   6.054  16.833  0.00  0.00    +0.000 A 
ATOM     13  C   UNL     1       4.407   6.907  17.604  0.00  0.00    +0.000 A 
ATOM     14  C   UNL     1       3.207   6.470  18.163  0.00  0.00    +0.000 A 
ATOM     15  C   UNL     1       2.802   5.148  17.939  0.00  0.00    +0.000 A 
ATOM     16  C   UNL     1       3.586   4.276  17.172  0.00  0.00    +0.000 A 
ATOM     17  C   UNL     1       4.785   4.736  16.625  0.00  0.00    +0.000 A 
BRANCH  12  19
ATOM     18  C   UNL     1       7.306   7.019  17.326  0.00  0.00    +0.000 C 
ATOM     19  O   UNL     1       6.353   6.607  16.357  0.00  0.00    +0.000 OA
ENDBRANCH  12  19
BRANCH  16  20
ATOM     20  O   UNL     1       3.100   3.006  17.026  0.00  0.00    +0.000 OA
ATOM     21  C   UNL     1       2.335   2.481  18.109  0.00  0.00    +0.000 C 
ENDBRANCH  16  20
ENDBRANCH   1  14
TORSDOF 4
ENDMDL
MODEL 6
REMARK VINA RESULT:      -6.7      1.570      3.273
REMARK  Name = 
REMARK  7 active torsions:
REMARK  status: ('A' for Active; 'I' for Inactive)
REMARK    1  A    between atoms: C_1  and  O_2
REMARK    2  A    between atoms: O_2  and  C_3
REMARK    3  A    between atoms: C_5  and  N_6
REMARK    4  A    between atoms: C_7  and  C_9
REMARK    5  A    between atoms: C_12  and  C_13
REMARK    6  A    between atoms: C_17  and  O_18
REMARK    7  A    between atoms: O_18  and  C_19
REMARK                            x       y       z     vdW  Elec       q    Type
REMARK                         _______ _______ _______ _____ _____    ______ ____
ROOT
ATOM      1  N   UNL     1       2.369   7.194  19.240  0.00  0.00    +0.000 N 
ATOM      2  C   UNL     1       1.772   8.392  18.873  0.00  0.00    +0.000 C 
ATOM      3  O   UNL     1       1.736   8.876  17.743  0.00  0.00    +0.000 OA
ATOM      4  H   UNL     1       2.165   6.836  20.165  0.00  0.00    +0.000 HD
ENDROOT
BRANCH   2   5
ATOM      5  C   UNL     1       1.058   9.114  19.955  0.00  0.00    +0.000 A 
ATOM      6  C   UNL     1       1.053   8.635  21.268  0.00  0.00    +0.000 A 
ATOM      7  C   UNL     1       0.340   9.317  22.256  0.00  0.00    +0.000 A 
ATOM      8  C   UNL     1      -0.360  10.489  21.950  0.00  0.00    +0.000 A 
ATOM      9  C   UNL     1      -1.142  11.206  23.011  0.00  0.00    +0.000 C 
ATOM     10  C   UNL     1      -0.321  10.990  20.642  0.00  0.00    +0.000 A 
ATOM     11  C   UNL     1       0.390  10.310  19.649  0.00  0.00    +0.000 A 
ENDBRANCH   2   5
BRANCH   1  14
ATOM     12  C   UNL     1       3.550   4.252  17.258  0.00  0.00    +0.000 A 
ATOM     13  C   UNL     1       2.780   5.042  18.113  0.00  0.00    +0.000 A 
ATOM     14  C   UNL     1       3.143   6.357  18.404  0.00  0.00    +0.000 A 
ATOM     15  C   UNL     1       4.304   6.880  17.819  0.00  0.00    +0.000 A 
ATOM     16  C   UNL     1       5.087   6.103  16.955  0.00  0.00    +0.000 A 
ATOM     17  C   UNL     1       4.701   4.790  16.676  0.00  0.00    +0.000 A 
BRANCH  12  19
ATOM     18  C   UNL     1       3.341   2.036  18.070  0.00  0.00    +0.000 C 
ATOM     19  O   UNL     1       3.074   2.989  17.051  0.00  0.00    +0.000 OA
ENDBRANCH  12  19
BRANCH  16  20
ATOM     20  O   UNL     1       6.192   6.716  16.433  0.00  0.00    +0.000 OA
ATOM     21  C   UNL     1       7.238   7.043  17.346  0.00  0.00    +0.000 C 
ENDBRANCH  16  20
ENDBRANCH   1  14
TORSDOF 4
ENDMDL
MODEL 7
REMARK VINA RESULT:      -6.7      1.575      3.108
REMARK  Name = 
REMARK  7 active torsions:
REMARK  status: ('A' for Active; 'I' for Inactive)
REMARK    1  A    between atoms: C_1  and  O_2
REMARK    2  A    between atoms: O_2  and  C_3
REMARK    3  A    between atoms: C_5  and  N_6
REMARK    4  A    between atoms: C_7  and  C_9
REMARK    5  A    between atoms: C_12  and  C_13
REMARK    6  A    between atoms: C_17  and  O_18
REMARK    7  A    between atoms: O_18  and  C_19
REMARK                            x       y       z     vdW  Elec       q    Type
REMARK                         _______ _______ _______ _____ _____    ______ ____
ROOT
ATOM      1  N   UNL     1       2.382   7.165  19.060  0.00  0.00    +0.000 N 
ATOM      2  C   UNL     1       1.886   8.400  18.664  0.00  0.00    +0.000 C 
ATOM      3  O   UNL     1       1.965   8.895  17.541  0.00  0.00    +0.000 OA
ATOM      4  H   UNL     1       2.086   6.812  19.962  0.00  0.00    +0.000 HD
ENDROOT
BRANCH   2   5
ATOM      5  C   UNL     1       1.132   9.153  19.697  0.00  0.00    +0.000 A 
ATOM      6  C   UNL     1       0.422  10.315  19.376  0.00  0.00    +0.000 A 
ATOM      7  C   UNL     1      -0.246  11.022  20.378  0.00  0.00    +0.000 A 
ATOM      8  C   UNL     1      -0.227  10.572  21.702  0.00  0.00    +0.000 A 
ATOM      9  C   UNL     1      -0.929  11.347  22.778  0.00  0.00    +0.000 C 
ATOM     10  C   UNL     1       0.451   9.386  22.015  0.00  0.00    +0.000 A 
ATOM     11  C   UNL     1       1.123   8.675  21.016  0.00  0.00    +0.000 A 
ENDBRANCH   2   5
BRANCH   1  14
ATOM     12  C   UNL     1       3.582   4.145  17.213  0.00  0.00    +0.000 A 
ATOM     13  C   UNL     1       2.798   4.972  18.018  0.00  0.00    +0.000 A 
ATOM     14  C   UNL     1       3.169   6.292  18.275  0.00  0.00    +0.000 A 
ATOM     15  C   UNL     1       4.353   6.781  17.707  0.00  0.00    +0.000 A 
ATOM     16  C   UNL     1       5.150   5.966  16.892  0.00  0.00    +0.000 A 
ATOM     17  C   UNL     1       4.755   4.649  16.647  0.00  0.00    +0.000 A 
BRANCH  12  19
ATOM     18  C   UNL     1       3.265   1.978  18.118  0.00  0.00    +0.000 C 
ATOM     19  O   UNL     1       3.096   2.881  17.034  0.00  0.00    +0.000 OA
ENDBRANCH  12  19
BRANCH  16  20
ATOM     20  O   UNL     1       6.277   6.549  16.383  0.00  0.00    +0.000 OA
ATOM     21  C   UNL     1       7.245   7.010  17.324  0.00  0.00    +0.000 C 
ENDBRANCH  16  20
ENDBRANCH   1  14
TORSDOF 4
ENDMDL
MODEL 8
REMARK VINA RESULT:      -6.7      2.414      3.897
REMARK  Name = 
REMARK  7 active torsions:
REMARK  status: ('A' for Active; 'I' for Inactive)
REMARK    1  A    between atoms: C_1  and  O_2
REMARK    2  A    between atoms: O_2  and  C_3
REMARK    3  A    between atoms: C_5  and  N_6
REMARK    4  A    between atoms: C_7  and  C_9
REMARK    5  A    between atoms: C_12  and  C_13
REMARK    6  A    between atoms: C_17  and  O_18
REMARK    7  A    between atoms: O_18  and  C_19
REMARK                            x       y       z     vdW  Elec       q    Type
REMARK                         _______ _______ _______ _____ _____    ______ ____
ROOT
ATOM      1  N   UNL     1       3.975   7.036  17.727  0.00  0.00    +0.000 N 
ATOM      2  C   UNL     1       2.998   6.784  18.681  0.00  0.00    +0.000 C 
ATOM      3  O   UNL     1       2.858   5.749  19.331  0.00  0.00    +0.000 OA
ATOM      4  H   UNL     1       4.077   7.991  17.406  0.00  0.00    +0.000 HD
ENDROOT
BRANCH   2   5
ATOM      5  C   UNL     1       2.081   7.912  18.978  0.00  0.00    +0.000 A 
ATOM      6  C   UNL     1       1.611   8.145  20.275  0.00  0.00    +0.000 A 
ATOM      7  C   UNL     1       0.720   9.192  20.515  0.00  0.00    +0.000 A 
ATOM      8  C   UNL     1       0.300  10.025  19.472  0.00  0.00    +0.000 A 
ATOM      9  C   UNL     1      -0.675  11.136  19.731  0.00  0.00    +0.000 C 
ATOM     10  C   UNL     1       0.803   9.815  18.181  0.00  0.00    +0.000 A 
ATOM     11  C   UNL     1       1.695   8.767  17.935  0.00  0.00    +0.000 A 
ENDBRANCH   2   5
BRANCH   1  14
ATOM     12  C   UNL     1       5.798   4.629  15.524  0.00  0.00    +0.000 A 
ATOM     13  C   UNL     1       4.825   5.516  15.985  0.00  0.00    +0.000 A 
ATOM     14  C   UNL     1       4.926   6.109  17.243  0.00  0.00    +0.000 A 
ATOM     15  C   UNL     1       6.032   5.798  18.047  0.00  0.00    +0.000 A 
ATOM     16  C   UNL     1       7.021   4.913  17.598  0.00  0.00    +0.000 A 
ATOM     17  C   UNL     1       6.898   4.335  16.332  0.00  0.00    +0.000 A 
BRANCH  12  19
ATOM     18  C   UNL     1       6.695   4.123  13.389  0.00  0.00    +0.000 C 
ATOM     19  O   UNL     1       5.581   4.131  14.270  0.00  0.00    +0.000 OA
ENDBRANCH  12  19
BRANCH  16  20
ATOM     20  O   UNL     1       8.059   4.689  18.458  0.00  0.00    +0.000 OA
ATOM     21  C   UNL     1       8.118   5.510  19.623  0.00  0.00    +0.000 C 
ENDBRANCH  16  20
ENDBRANCH   1  14
TORSDOF 4
ENDMDL
MODEL 9
REMARK VINA RESULT:      -6.6      2.411      3.774
REMARK  Name = 
REMARK  7 active torsions:
REMARK  status: ('A' for Active; 'I' for Inactive)
REMARK    1  A    between atoms: C_1  and  O_2
REMARK    2  A    between atoms: O_2  and  C_3
REMARK    3  A    between atoms: C_5  and  N_6
REMARK    4  A    between atoms: C_7  and  C_9
REMARK    5  A    between atoms: C_12  and  C_13
REMARK    6  A    between atoms: C_17  and  O_18
REMARK    7  A    between atoms: O_18  and  C_19
REMARK                            x       y       z     vdW  Elec       q    Type
REMARK                         _______ _______ _______ _____ _____    ______ ____
ROOT
ATOM      1  N   UNL     1       4.015   7.021  17.697  0.00  0.00    +0.000 N 
ATOM      2  C   UNL     1       3.026   6.778  18.640  0.00  0.00    +0.000 C 
ATOM      3  O   UNL     1       2.877   5.749  19.297  0.00  0.00    +0.000 OA
ATOM      4  H   UNL     1       4.122   7.973  17.369  0.00  0.00    +0.000 HD
ENDROOT
BRANCH   2   5
ATOM      5  C   UNL     1       2.105   7.909  18.915  0.00  0.00    +0.000 A 
ATOM      6  C   UNL     1       1.687   8.770  17.895  0.00  0.00    +0.000 A 
ATOM      7  C   UNL     1       0.850   9.847  18.192  0.00  0.00    +0.000 A 
ATOM      8  C   UNL     1       0.410  10.068  19.502  0.00  0.00    +0.000 A 
ATOM      9  C   UNL     1      -0.472  11.239  19.819  0.00  0.00    +0.000 C 
ATOM     10  C   UNL     1       0.797   9.181  20.515  0.00  0.00    +0.000 A 
ATOM     11  C   UNL     1       1.636   8.102  20.223  0.00  0.00    +0.000 A 
ENDBRANCH   2   5
BRANCH   1  14
ATOM     12  C   UNL     1       5.857   4.582  15.545  0.00  0.00    +0.000 A 
ATOM     13  C   UNL     1       4.878   5.473  15.986  0.00  0.00    +0.000 A 
ATOM     14  C   UNL     1       4.972   6.089  17.233  0.00  0.00    +0.000 A 
ATOM     15  C   UNL     1       6.075   5.798  18.046  0.00  0.00    +0.000 A 
ATOM     16  C   UNL     1       7.070   4.909  17.618  0.00  0.00    +0.000 A 
ATOM     17  C   UNL     1       6.955   4.307  16.363  0.00  0.00    +0.000 A 
BRANCH  12  19
ATOM     18  C   UNL     1       6.715   4.183  13.371  0.00  0.00    +0.000 C 
ATOM     19  O   UNL     1       5.646   4.060  14.299  0.00  0.00    +0.000 OA
ENDBRANCH  12  19
BRANCH  16  20
ATOM     20  O   UNL     1       8.106   4.706  18.486  0.00  0.00    +0.000 OA
ATOM     21  C   UNL     1       8.159   5.551  19.634  0.00  0.00    +0.000 C 
ENDBRANCH  16  20
ENDBRANCH   1  14
TORSDOF 4
ENDMDL
