MODEL 1
REMARK VINA RESULT:      -7.1      0.000      0.000
REMARK  Name = 
REMARK  5 active torsions:
REMARK  status: ('A' for Active; 'I' for Inactive)
REMARK    1  A    between atoms: C_1  and  C_2
REMARK    2  A    between atoms: C_2  and  N_3
REMARK    3  A    between atoms: C_5  and  C_6
REMARK    4  A    between atoms: C_8  and  N_9
REMARK    5  A    between atoms: N_9  and  C_10
REMARK                            x       y       z     vdW  Elec       q    Type
REMARK                         _______ _______ _______ _____ _____    ______ ____
ROOT
ATOM      1  N   UNL     1       6.663   4.836  16.605  0.00  0.00    +0.000 N 
ATOM      2  N   UNL     1       7.308   5.995  16.339  0.00  0.00    +0.000 NA
ATOM      3  C   UNL     1       7.279   6.655  17.501  0.00  0.00    +0.000 A 
ATOM      4  C   UNL     1       7.871   8.007  17.626  0.00  0.00    +0.000 C 
ATOM      5  C   UNL     1       6.631   5.911  18.507  0.00  0.00    +0.000 A 
ATOM      6  C   UNL     1       6.252   4.727  17.912  0.00  0.00    +0.000 A 
ENDROOT
BRANCH   1   8
ATOM      7  C   UNL     1       5.767   4.434  14.353  0.00  0.00    +0.000 C 
ATOM      8  C   UNL     1       6.526   3.864  15.537  0.00  0.00    +0.000 C 
ENDBRANCH   1   8
BRANCH   6   9
ATOM      9  N   UNL     1       5.583   3.654  18.407  0.00  0.00    +0.000 N 
ATOM     10  H   UNL     1       6.039   2.975  19.010  0.00  0.00    +0.000 HD
BRANCH   9  11
ATOM     11  C   UNL     1       4.183   3.474  18.359  0.00  0.00    +0.000 A 
ATOM     12  C   UNL     1       3.372   4.511  17.883  0.00  0.00    +0.000 A 
ATOM     13  C   UNL     1       1.979   4.383  17.866  0.00  0.00    +0.000 A 
ATOM     14  C   UNL     1       1.380   3.210  18.323  0.00  0.00    +0.000 A 
ATOM     15  C   UNL     1       2.171   2.171  18.803  0.00  0.00    +0.000 A 
ATOM     16  C   UNL     1       3.559   2.308  18.829  0.00  0.00    +0.000 A 
ENDBRANCH   9  11
ENDBRANCH   6   9
TORSDOF 3
ENDMDL
MODEL 2
REMARK VINA RESULT:      -7.1      0.290      1.273
REMARK  Name = 
REMARK  5 active torsions:
REMARK  status: ('A' for Active; 'I' for Inactive)
REMARK    1  A    between atoms: C_1  and  C_2
REMARK    2  A    between atoms: C_2  and  N_3
REMARK    3  A    between atoms: C_5  and  C_6
REMARK    4  A    between atoms: C_8  and  N_9
REMARK    5  A    between atoms: N_9  and  C_10
REMARK                            x       y       z     vdW  Elec       q    Type
REMARK                         _______ _______ _______ _____ _____    ______ ____
ROOT
ATOM      1  N   UNL     1       6.671   4.943  16.630  0.00  0.00    +0.000 N 
ATOM      2  N   UNL     1       7.307   6.110  16.382  0.00  0.00    +0.000 NA
ATOM      3  C   UNL     1       7.328   6.725  17.569  0.00  0.00    +0.000 A 
ATOM      4  C   UNL     1       7.929   8.070  17.721  0.00  0.00    +0.000 C 
ATOM      5  C   UNL     1       6.720   5.944  18.572  0.00  0.00    +0.000 A 
ATOM      6  C   UNL     1       6.313   4.784  17.949  0.00  0.00    +0.000 A 
ENDROOT
BRANCH   1   8
ATOM      7  C   UNL     1       6.707   4.680  14.188  0.00  0.00    +0.000 C 
ATOM      8  C   UNL     1       6.487   4.012  15.533  0.00  0.00    +0.000 C 
ENDBRANCH   1   8
BRANCH   6   9
ATOM      9  N   UNL     1       5.663   3.694  18.429  0.00  0.00    +0.000 N 
ATOM     10  H   UNL     1       6.138   2.999  18.997  0.00  0.00    +0.000 HD
BRANCH   9  11
ATOM     11  C   UNL     1       4.262   3.510  18.415  0.00  0.00    +0.000 A 
ATOM     12  C   UNL     1       3.717   2.338  18.953  0.00  0.00    +0.000 A 
ATOM     13  C   UNL     1       2.338   2.102  18.912  0.00  0.00    +0.000 A 
ATOM     14  C   UNL     1       1.486   3.042  18.334  0.00  0.00    +0.000 A 
ATOM     15  C   UNL     1       2.012   4.211  17.792  0.00  0.00    +0.000 A 
ATOM     16  C   UNL     1       3.388   4.436  17.824  0.00  0.00    +0.000 A 
ENDBRANCH   9  11
ENDBRANCH   6   9
TORSDOF 3
ENDMDL
MODEL 3
REMARK VINA RESULT:      -7.0      0.771      2.477
REMARK  Name = 
REMARK  5 active torsions:
REMARK  status: ('A' for Active; 'I' for Inactive)
REMARK    1  A    between atoms: C_1  and  C_2
REMARK    2  A    between atoms: C_2  and  N_3
REMARK    3  A    between atoms: C_5  and  C_6
REMARK    4  A    between atoms: C_8  and  N_9
REMARK    5  A    between atoms: N_9  and  C_10
REMARK                            x       y       z     vdW  Elec       q    Type
REMARK                         _______ _______ _______ _____ _____    ______ ____
ROOT
ATOM      1  N   UNL     1       6.875   5.411  16.856  0.00  0.00    +0.000 N 
ATOM      2  N   UNL     1       7.388   5.756  15.653  0.00  0.00    +0.000 NA
ATOM      3  C   UNL     1       6.917   4.821  14.820  0.00  0.00    +0.000 A 
ATOM      4  C   UNL     1       7.276   4.828  13.384  0.00  0.00    +0.000 C 
ATOM      5  C   UNL     1       6.095   3.893  15.490  0.00  0.00    +0.000 A 
ATOM      6  C   UNL     1       6.065   4.300  16.806  0.00  0.00    +0.000 A 
ENDROOT
BRANCH   1   8
ATOM      7  C   UNL     1       7.654   7.624  17.582  0.00  0.00    +0.000 C 
ATOM      8  C   UNL     1       7.187   6.243  18.002  0.00  0.00    +0.000 C 
ENDBRANCH   1   8
BRANCH   6   9
ATOM      9  N   UNL     1       5.444   3.770  17.890  0.00  0.00    +0.000 N 
ATOM     10  H   UNL     1       5.930   3.646  18.774  0.00  0.00    +0.000 HD
BRANCH   9  11
ATOM     11  C   UNL     1       4.052   3.556  18.009  0.00  0.00    +0.000 A 
ATOM     12  C   UNL     1       3.167   4.593  17.690  0.00  0.00    +0.000 A 
ATOM     13  C   UNL     1       1.786   4.430  17.841  0.00  0.00    +0.000 A 
ATOM     14  C   UNL     1       1.273   3.222  18.312  0.00  0.00    +0.000 A 
ATOM     15  C   UNL     1       2.139   2.182  18.637  0.00  0.00    +0.000 A 
ATOM     16  C   UNL     1       3.516   2.354  18.496  0.00  0.00    +0.000 A 
ENDBRANCH   9  11
ENDBRANCH   6   9
TORSDOF 3
ENDMDL
MODEL 4
REMARK VINA RESULT:      -6.8      0.740      2.773
REMARK  Name = 
REMARK  5 active torsions:
REMARK  status: ('A' for Active; 'I' for Inactive)
REMARK    1  A    between atoms: C_1  and  C_2
REMARK    2  A    between atoms: C_2  and  N_3
REMARK    3  A    between atoms: C_5  and  C_6
REMARK    4  A    between atoms: C_8  and  N_9
REMARK    5  A    between atoms: N_9  and  C_10
REMARK                            x       y       z     vdW  Elec       q    Type
REMARK                         _______ _______ _______ _____ _____    ______ ____
ROOT
ATOM      1  N   UNL     1       6.924   5.466  16.967  0.00  0.00    +0.000 N 
ATOM      2  N   UNL     1       7.416   5.575  15.712  0.00  0.00    +0.000 NA
ATOM      3  C   UNL     1       6.690   4.705  15.003  0.00  0.00    +0.000 A 
ATOM      4  C   UNL     1       6.940   4.502  13.557  0.00  0.00    +0.000 C 
ATOM      5  C   UNL     1       5.727   4.056  15.802  0.00  0.00    +0.000 A 
ATOM      6  C   UNL     1       5.883   4.573  17.070  0.00  0.00    +0.000 A 
ENDROOT
BRANCH   1   8
ATOM      7  C   UNL     1       7.662   7.736  17.544  0.00  0.00    +0.000 C 
ATOM      8  C   UNL     1       7.495   6.300  18.006  0.00  0.00    +0.000 C 
ENDBRANCH   1   8
BRANCH   6   9
ATOM      9  N   UNL     1       5.235   4.298  18.231  0.00  0.00    +0.000 N 
ATOM     10  H   UNL     1       5.606   4.594  19.129  0.00  0.00    +0.000 HD
BRANCH   9  11
ATOM     11  C   UNL     1       3.914   3.807  18.330  0.00  0.00    +0.000 A 
ATOM     12  C   UNL     1       3.698   2.497  18.773  0.00  0.00    +0.000 A 
ATOM     13  C   UNL     1       2.406   1.964  18.838  0.00  0.00    +0.000 A 
ATOM     14  C   UNL     1       1.311   2.741  18.462  0.00  0.00    +0.000 A 
ATOM     15  C   UNL     1       1.508   4.044  18.016  0.00  0.00    +0.000 A 
ATOM     16  C   UNL     1       2.800   4.567  17.942  0.00  0.00    +0.000 A 
ENDBRANCH   9  11
ENDBRANCH   6   9
TORSDOF 3
ENDMDL
MODEL 5
REMARK VINA RESULT:      -6.8      1.203      2.873
REMARK  Name = 
REMARK  5 active torsions:
REMARK  status: ('A' for Active; 'I' for Inactive)
REMARK    1  A    between atoms: C_1  and  C_2
REMARK    2  A    between atoms: C_2  and  N_3
REMARK    3  A    between atoms: C_5  and  C_6
REMARK    4  A    between atoms: C_8  and  N_9
REMARK    5  A    between atoms: N_9  and  C_10
REMARK                            x       y       z     vdW  Elec       q    Type
REMARK                         _______ _______ _______ _____ _____    ______ ____
ROOT
ATOM      1  N   UNL     1       7.120   5.585  17.182  0.00  0.00    +0.000 N 
ATOM      2  N   UNL     1       7.411   5.804  15.879  0.00  0.00    +0.000 NA
ATOM      3  C   UNL     1       6.778   4.817  15.236  0.00  0.00    +0.000 A 
ATOM      4  C   UNL     1       6.869   4.684  13.764  0.00  0.00    +0.000 C 
ATOM      5  C   UNL     1       6.074   3.981  16.127  0.00  0.00    +0.000 A 
ATOM      6  C   UNL     1       6.294   4.504  17.383  0.00  0.00    +0.000 A 
ENDROOT
BRANCH   1   8
ATOM      7  C   UNL     1       7.737   7.919  17.632  0.00  0.00    +0.000 C 
ATOM      8  C   UNL     1       7.652   6.503  18.170  0.00  0.00    +0.000 C 
ENDBRANCH   1   8
BRANCH   6   9
ATOM      9  N   UNL     1       5.871   4.093  18.606  0.00  0.00    +0.000 N 
ATOM     10  H   UNL     1       6.528   3.868  19.348  0.00  0.00    +0.000 HD
BRANCH   9  11
ATOM     11  C   UNL     1       4.538   4.152  19.070  0.00  0.00    +0.000 A 
ATOM     12  C   UNL     1       3.732   3.009  18.994  0.00  0.00    +0.000 A 
ATOM     13  C   UNL     1       2.394   3.045  19.400  0.00  0.00    +0.000 A 
ATOM     14  C   UNL     1       1.846   4.230  19.891  0.00  0.00    +0.000 A 
ATOM     15  C   UNL     1       2.632   5.376  19.969  0.00  0.00    +0.000 A 
ATOM     16  C   UNL     1       3.962   5.337  19.552  0.00  0.00    +0.000 A 
ENDBRANCH   9  11
ENDBRANCH   6   9
TORSDOF 3
ENDMDL
MODEL 6
REMARK VINA RESULT:      -6.7      1.191      2.775
REMARK  Name = 
REMARK  5 active torsions:
REMARK  status: ('A' for Active; 'I' for Inactive)
REMARK    1  A    between atoms: C_1  and  C_2
REMARK    2  A    between atoms: C_2  and  N_3
REMARK    3  A    between atoms: C_5  and  C_6
REMARK    4  A    between atoms: C_8  and  N_9
REMARK    5  A    between atoms: N_9  and  C_10
REMARK                            x       y       z     vdW  Elec       q    Type
REMARK                         _______ _______ _______ _____ _____    ______ ____
ROOT
ATOM      1  N   UNL     1       7.050   5.309  16.712  0.00  0.00    +0.000 N 
ATOM      2  N   UNL     1       7.563   5.675  15.515  0.00  0.00    +0.000 NA
ATOM      3  C   UNL     1       6.989   4.835  14.647  0.00  0.00    +0.000 A 
ATOM      4  C   UNL     1       7.313   4.892  13.203  0.00  0.00    +0.000 C 
ATOM      5  C   UNL     1       6.103   3.947  15.289  0.00  0.00    +0.000 A 
ATOM      6  C   UNL     1       6.142   4.280  16.626  0.00  0.00    +0.000 A 
ENDROOT
BRANCH   1   8
ATOM      7  C   UNL     1       7.617   7.525  17.606  0.00  0.00    +0.000 C 
ATOM      8  C   UNL     1       7.464   6.043  17.892  0.00  0.00    +0.000 C 
ENDBRANCH   1   8
BRANCH   6   9
ATOM      9  N   UNL     1       5.502   3.745  17.697  0.00  0.00    +0.000 N 
ATOM     10  H   UNL     1       5.977   3.121  18.343  0.00  0.00    +0.000 HD
BRANCH   9  11
ATOM     11  C   UNL     1       4.235   4.148  18.174  0.00  0.00    +0.000 A 
ATOM     12  C   UNL     1       4.151   4.903  19.350  0.00  0.00    +0.000 A 
ATOM     13  C   UNL     1       2.910   5.279  19.876  0.00  0.00    +0.000 A 
ATOM     14  C   UNL     1       1.735   4.903  19.226  0.00  0.00    +0.000 A 
ATOM     15  C   UNL     1       1.800   4.150  18.058  0.00  0.00    +0.000 A 
ATOM     16  C   UNL     1       3.040   3.768  17.545  0.00  0.00    +0.000 A 
ENDBRANCH   9  11
ENDBRANCH   6   9
TORSDOF 3
ENDMDL
MODEL 7
REMARK VINA RESULT:      -6.7      1.177      2.831
REMARK  Name = 
REMARK  5 active torsions:
REMARK  status: ('A' for Active; 'I' for Inactive)
REMARK    1  A    between atoms: C_1  and  C_2
REMARK    2  A    between atoms: C_2  and  N_3
REMARK    3  A    between atoms: C_5  and  C_6
REMARK    4  A    between atoms: C_8  and  N_9
REMARK    5  A    between atoms: N_9  and  C_10
REMARK                            x       y       z     vdW  Elec       q    Type
REMARK                         _______ _______ _______ _____ _____    ______ ____
ROOT
ATOM      1  N   UNL     1       7.044   5.225  16.596  0.00  0.00    +0.000 N 
ATOM      2  N   UNL     1       7.554   5.616  15.406  0.00  0.00    +0.000 NA
ATOM      3  C   UNL     1       6.970   4.801  14.521  0.00  0.00    +0.000 A 
ATOM      4  C   UNL     1       7.287   4.889  13.077  0.00  0.00    +0.000 C 
ATOM      5  C   UNL     1       6.079   3.905  15.146  0.00  0.00    +0.000 A 
ATOM      6  C   UNL     1       6.127   4.205  16.490  0.00  0.00    +0.000 A 
ENDROOT
BRANCH   1   8
ATOM      7  C   UNL     1       7.569   7.424  17.557  0.00  0.00    +0.000 C 
ATOM      8  C   UNL     1       7.469   5.928  17.791  0.00  0.00    +0.000 C 
ENDBRANCH   1   8
BRANCH   6   9
ATOM      9  N   UNL     1       5.488   3.651  17.552  0.00  0.00    +0.000 N 
ATOM     10  H   UNL     1       5.942   2.962  18.145  0.00  0.00    +0.000 HD
BRANCH   9  11
ATOM     11  C   UNL     1       4.265   4.104  18.095  0.00  0.00    +0.000 A 
ATOM     12  C   UNL     1       3.069   3.825  17.423  0.00  0.00    +0.000 A 
ATOM     13  C   UNL     1       1.845   4.300  17.907  0.00  0.00    +0.000 A 
ATOM     14  C   UNL     1       1.805   5.060  19.076  0.00  0.00    +0.000 A 
ATOM     15  C   UNL     1       2.985   5.350  19.754  0.00  0.00    +0.000 A 
ATOM     16  C   UNL     1       4.204   4.883  19.260  0.00  0.00    +0.000 A 
ENDBRANCH   9  11
ENDBRANCH   6   9
TORSDOF 3
ENDMDL
MODEL 8
REMARK VINA RESULT:      -6.7      1.035      1.047
REMARK  Name = 
REMARK  5 active torsions:
REMARK  status: ('A' for Active; 'I' for Inactive)
REMARK    1  A    between atoms: C_1  and  C_2
REMARK    2  A    between atoms: C_2  and  N_3
REMARK    3  A    between atoms: C_5  and  C_6
REMARK    4  A    between atoms: C_8  and  N_9
REMARK    5  A    between atoms: N_9  and  C_10
REMARK                            x       y       z     vdW  Elec       q    Type
REMARK                         _______ _______ _______ _____ _____    ______ ____
ROOT
ATOM      1  N   UNL     1       5.998   4.638  17.004  0.00  0.00    +0.000 N 
ATOM      2  N   UNL     1       6.683   5.739  16.622  0.00  0.00    +0.000 NA
ATOM      3  C   UNL     1       7.016   6.330  17.775  0.00  0.00    +0.000 A 
ATOM      4  C   UNL     1       7.768   7.605  17.791  0.00  0.00    +0.000 C 
ATOM      5  C   UNL     1       6.556   5.596  18.888  0.00  0.00    +0.000 A 
ATOM      6  C   UNL     1       5.912   4.493  18.369  0.00  0.00    +0.000 A 
ENDROOT
BRANCH   1   8
ATOM      7  C   UNL     1       6.056   4.097  14.609  0.00  0.00    +0.000 C 
ATOM      8  C   UNL     1       5.495   3.749  15.975  0.00  0.00    +0.000 C 
ENDBRANCH   1   8
BRANCH   6   9
ATOM      9  N   UNL     1       5.270   3.466  18.981  0.00  0.00    +0.000 N 
ATOM     10  H   UNL     1       5.778   2.753  19.497  0.00  0.00    +0.000 HD
BRANCH   9  11
ATOM     11  C   UNL     1       3.874   3.382  19.184  0.00  0.00    +0.000 A 
ATOM     12  C   UNL     1       3.214   4.415  19.860  0.00  0.00    +0.000 A 
ATOM     13  C   UNL     1       1.841   4.342  20.118  0.00  0.00    +0.000 A 
ATOM     14  C   UNL     1       1.111   3.231  19.700  0.00  0.00    +0.000 A 
ATOM     15  C   UNL     1       1.752   2.193  19.030  0.00  0.00    +0.000 A 
ATOM     16  C   UNL     1       3.124   2.266  18.785  0.00  0.00    +0.000 A 
ENDBRANCH   9  11
ENDBRANCH   6   9
TORSDOF 3
ENDMDL
MODEL 9
REMARK VINA RESULT:      -6.7      0.913      1.015
REMARK  Name = 
REMARK  5 active torsions:
REMARK  status: ('A' for Active; 'I' for Inactive)
REMARK    1  A    between atoms: C_1  and  C_2
REMARK    2  A    between atoms: C_2  and  N_3
REMARK    3  A    between atoms: C_5  and  C_6
REMARK    4  A    between atoms: C_8  and  N_9
REMARK    5  A    between atoms: N_9  and  C_10
REMARK                            x       y       z     vdW  Elec       q    Type
REMARK                         _______ _______ _______ _____ _____    ______ ____
ROOT
ATOM      1  N   UNL     1       5.896   4.851  15.715  0.00  0.00    +0.000 N 
ATOM      2  N   UNL     1       6.625   5.988  15.782  0.00  0.00    +0.000 NA
ATOM      3  C   UNL     1       6.839   6.158  17.091  0.00  0.00    +0.000 A 
ATOM      4  C   UNL     1       7.595   7.327  17.596  0.00  0.00    +0.000 C 
ATOM      5  C   UNL     1       6.261   5.122  17.853  0.00  0.00    +0.000 A 
ATOM      6  C   UNL     1       5.667   4.275  16.942  0.00  0.00    +0.000 A 
ENDROOT
BRANCH   1   8
ATOM      7  C   UNL     1       6.672   4.291  13.453  0.00  0.00    +0.000 C 
ATOM      8  C   UNL     1       5.495   4.367  14.408  0.00  0.00    +0.000 C 
ENDBRANCH   1   8
BRANCH   6   9
ATOM      9  N   UNL     1       4.957   3.132  17.120  0.00  0.00    +0.000 N 
ATOM     10  H   UNL     1       5.388   2.217  17.018  0.00  0.00    +0.000 HD
BRANCH   9  11
ATOM     11  C   UNL     1       3.661   3.055  17.678  0.00  0.00    +0.000 A 
ATOM     12  C   UNL     1       2.732   4.065  17.400  0.00  0.00    +0.000 A 
ATOM     13  C   UNL     1       1.457   4.045  17.974  0.00  0.00    +0.000 A 
ATOM     14  C   UNL     1       1.094   3.008  18.833  0.00  0.00    +0.000 A 
ATOM     15  C   UNL     1       2.007   1.999  19.123  0.00  0.00    +0.000 A 
ATOM     16  C   UNL     1       3.281   2.030  18.557  0.00  0.00    +0.000 A 
ENDBRANCH   9  11
ENDBRANCH   6   9
TORSDOF 3
ENDMDL
