MODEL 1
REMARK VINA RESULT:      -8.0      0.000      0.000
REMARK  Name = 
REMARK  11 active torsions:
REMARK  status: ('A' for Active; 'I' for Inactive)
REMARK    1  A    between atoms: S_2  and  C_4
REMARK    2  A    between atoms: S_2  and  N_10
REMARK    3  A    between atoms: C_14  and  O_15
REMARK    4  A    between atoms: O_15  and  C_16
REMARK    5  A    between atoms: C_16  and  C_17
REMARK    6  A    between atoms: C_17  and  N_18
REMARK    7  A    between atoms: N_18  and  C_19
REMARK    8  A    between atoms: C_19  and  C_20
REMARK    9  A    between atoms: C_20  and  N_21
REMARK   10  A    between atoms: N_21  and  C_22
REMARK   11  A    between atoms: C_22  and  C_23
REMARK                            x       y       z     vdW  Elec       q    Type
REMARK                         _______ _______ _______ _____ _____    ______ ____
ROOT
ATOM      1  N   UNL     1       0.017  10.188  19.630  0.00  0.00    +0.000 N 
ATOM      2  C   UNL     1      -0.414   9.462  20.719  0.00  0.00    +0.000 A 
ATOM      3  C   UNL     1       0.809   9.221  21.318  0.00  0.00    +0.000 A 
ATOM      4  C   UNL     1       1.433   8.630  20.185  0.00  0.00    +0.000 A 
ATOM      5  C   UNL     1       2.062   7.391  19.939  0.00  0.00    +0.000 A 
ATOM      6  C   UNL     1       2.623   7.180  18.679  0.00  0.00    +0.000 A 
ATOM      7  C   UNL     1       2.486   8.153  17.674  0.00  0.00    +0.000 A 
ATOM      8  C   UNL     1       1.714   9.327  17.860  0.00  0.00    +0.000 A 
ATOM      9  C   UNL     1       1.120   9.493  19.120  0.00  0.00    +0.000 A 
ENDROOT
BRANCH   1  11
ATOM     10  O   UNL     1       0.363  12.395  18.531  0.00  0.00    +0.000 OA
ATOM     11  S   UNL     1      -0.369  11.836  19.658  0.00  0.00    +0.000 S 
ATOM     12  O   UNL     1      -0.197  12.281  21.013  0.00  0.00    +0.000 OA
BRANCH  11  13
ATOM     13  C   UNL     1      -2.125  11.898  19.219  0.00  0.00    +0.000 A 
ATOM     14  C   UNL     1      -3.072  12.482  20.086  0.00  0.00    +0.000 A 
ATOM     15  C   UNL     1      -4.423  12.523  19.720  0.00  0.00    +0.000 A 
ATOM     16  C   UNL     1      -4.830  11.981  18.505  0.00  0.00    +0.000 A 
ATOM     17  C   UNL     1      -3.890  11.413  17.640  0.00  0.00    +0.000 A 
ATOM     18  C   UNL     1      -2.540  11.369  17.993  0.00  0.00    +0.000 A 
ENDBRANCH  11  13
ENDBRANCH   1  11
BRANCH   5  19
ATOM     19  O   UNL     1       1.962   6.308  20.817  0.00  0.00    +0.000 OA
BRANCH  19  20
ATOM     20  C   UNL     1       2.582   5.144  20.234  0.00  0.00    +0.000 C 
BRANCH  20  21
ATOM     21  C   UNL     1       2.127   3.790  20.751  0.00  0.00    +0.000 C 
BRANCH  21  22
ATOM     22  N   UNL     1       1.674   2.935  19.652  0.00  0.00    +0.000 NA
ATOM     23  H   UNL     1       1.419   3.494  18.835  0.00  0.00    +0.000 HD
BRANCH  22  24
ATOM     24  C   UNL     1       2.723   1.992  19.290  0.00  0.00    +0.000 C 
BRANCH  24  25
ATOM     25  C   UNL     1       3.226   2.291  17.873  0.00  0.00    +0.000 C 
BRANCH  25  26
ATOM     26  N   UNL     1       4.490   3.020  17.961  0.00  0.00    +0.000 NA
ATOM     27  H   UNL     1       5.235   2.428  17.589  0.00  0.00    +0.000 HD
BRANCH  26  28
ATOM     28  C   UNL     1       4.434   4.239  17.163  0.00  0.00    +0.000 C 
BRANCH  28  29
ATOM     29  C   UNL     1       5.570   5.154  17.544  0.00  0.00    +0.000 A 
ATOM     30  C   UNL     1       6.367   4.812  18.650  0.00  0.00    +0.000 A 
ATOM     31  C   UNL     1       7.434   5.620  19.040  0.00  0.00    +0.000 A 
ATOM     32  C   UNL     1       7.730   6.775  18.323  0.00  0.00    +0.000 A 
ATOM     33  C   UNL     1       6.970   7.112  17.203  0.00  0.00    +0.000 A 
ATOM     34  C   UNL     1       5.901   6.303  16.809  0.00  0.00    +0.000 A 
ATOM     35 CL   UNL     1       5.034   6.760  15.384  0.00  0.00    +0.000 Cl
ENDBRANCH  28  29
ENDBRANCH  26  28
ENDBRANCH  25  26
ENDBRANCH  24  25
ENDBRANCH  22  24
ENDBRANCH  21  22
ENDBRANCH  20  21
ENDBRANCH  19  20
ENDBRANCH   5  19
TORSDOF 11
ENDMDL
MODEL 2
REMARK VINA RESULT:      -7.8      2.350      3.074
REMARK  Name = 
REMARK  11 active torsions:
REMARK  status: ('A' for Active; 'I' for Inactive)
REMARK    1  A    between atoms: S_2  and  C_4
REMARK    2  A    between atoms: S_2  and  N_10
REMARK    3  A    between atoms: C_14  and  O_15
REMARK    4  A    between atoms: O_15  and  C_16
REMARK    5  A    between atoms: C_16  and  C_17
REMARK    6  A    between atoms: C_17  and  N_18
REMARK    7  A    between atoms: N_18  and  C_19
REMARK    8  A    between atoms: C_19  and  C_20
REMARK    9  A    between atoms: C_20  and  N_21
REMARK   10  A    between atoms: N_21  and  C_22
REMARK   11  A    between atoms: C_22  and  C_23
REMARK                            x       y       z     vdW  Elec       q    Type
REMARK                         _______ _______ _______ _____ _____    ______ ____
ROOT
ATOM      1  N   UNL     1       0.030   9.861  20.507  0.00  0.00    +0.000 N 
ATOM      2  C   UNL     1      -0.147   8.948  21.524  0.00  0.00    +0.000 A 
ATOM      3  C   UNL     1       1.179   8.699  21.826  0.00  0.00    +0.000 A 
ATOM      4  C   UNL     1       1.582   8.333  20.512  0.00  0.00    +0.000 A 
ATOM      5  C   UNL     1       2.192   7.193  19.947  0.00  0.00    +0.000 A 
ATOM      6  C   UNL     1       2.493   7.217  18.586  0.00  0.00    +0.000 A 
ATOM      7  C   UNL     1       2.123   8.324  17.801  0.00  0.00    +0.000 A 
ATOM      8  C   UNL     1       1.364   9.400  18.324  0.00  0.00    +0.000 A 
ATOM      9  C   UNL     1       1.031   9.329  19.686  0.00  0.00    +0.000 A 
ENDROOT
BRANCH   1  11
ATOM     10  O   UNL     1      -0.176  11.558  22.317  0.00  0.00    +0.000 OA
ATOM     11  S   UNL     1      -0.399  11.455  20.882  0.00  0.00    +0.000 S 
ATOM     12  O   UNL     1      -1.669  11.702  20.258  0.00  0.00    +0.000 OA
BRANCH  11  13
ATOM     13  C   UNL     1       0.873  12.467  20.084  0.00  0.00    +0.000 A 
ATOM     14  C   UNL     1       1.987  12.939  20.807  0.00  0.00    +0.000 A 
ATOM     15  C   UNL     1       2.960  13.716  20.164  0.00  0.00    +0.000 A 
ATOM     16  C   UNL     1       2.822  14.026  18.815  0.00  0.00    +0.000 A 
ATOM     17  C   UNL     1       1.722  13.549  18.095  0.00  0.00    +0.000 A 
ATOM     18  C   UNL     1       0.748  12.771  18.724  0.00  0.00    +0.000 A 
ENDBRANCH  11  13
ENDBRANCH   1  11
BRANCH   5  19
ATOM     19  O   UNL     1       2.308   5.982  20.637  0.00  0.00    +0.000 OA
BRANCH  19  20
ATOM     20  C   UNL     1       1.152   5.158  20.381  0.00  0.00    +0.000 C 
BRANCH  20  21
ATOM     21  C   UNL     1       1.358   3.653  20.418  0.00  0.00    +0.000 C 
BRANCH  21  22
ATOM     22  N   UNL     1       1.005   3.044  19.135  0.00  0.00    +0.000 NA
ATOM     23  H   UNL     1       0.512   3.711  18.536  0.00  0.00    +0.000 HD
BRANCH  22  24
ATOM     24  C   UNL     1       2.207   2.576  18.457  0.00  0.00    +0.000 C 
BRANCH  24  25
ATOM     25  C   UNL     1       3.268   2.183  19.492  0.00  0.00    +0.000 C 
BRANCH  25  26
ATOM     26  N   UNL     1       4.573   2.660  19.039  0.00  0.00    +0.000 NA
ATOM     27  H   UNL     1       4.821   2.167  18.180  0.00  0.00    +0.000 HD
BRANCH  26  28
ATOM     28  C   UNL     1       4.521   4.088  18.746  0.00  0.00    +0.000 C 
BRANCH  28  29
ATOM     29  C   UNL     1       5.339   4.390  17.515  0.00  0.00    +0.000 A 
ATOM     30  C   UNL     1       4.800   4.071  16.257  0.00  0.00    +0.000 A 
ATOM     31  C   UNL     1       5.511   4.334  15.087  0.00  0.00    +0.000 A 
ATOM     32  C   UNL     1       6.765   4.934  15.156  0.00  0.00    +0.000 A 
ATOM     33  C   UNL     1       7.300   5.287  16.395  0.00  0.00    +0.000 A 
ATOM     34  C   UNL     1       6.588   5.025  17.569  0.00  0.00    +0.000 A 
ATOM     35 CL   UNL     1       7.295   5.532  19.063  0.00  0.00    +0.000 Cl
ENDBRANCH  28  29
ENDBRANCH  26  28
ENDBRANCH  25  26
ENDBRANCH  24  25
ENDBRANCH  22  24
ENDBRANCH  21  22
ENDBRANCH  20  21
ENDBRANCH  19  20
ENDBRANCH   5  19
TORSDOF 11
ENDMDL
MODEL 3
REMARK VINA RESULT:      -7.8      0.945      1.115
REMARK  Name = 
REMARK  11 active torsions:
REMARK  status: ('A' for Active; 'I' for Inactive)
REMARK    1  A    between atoms: S_2  and  C_4
REMARK    2  A    between atoms: S_2  and  N_10
REMARK    3  A    between atoms: C_14  and  O_15
REMARK    4  A    between atoms: O_15  and  C_16
REMARK    5  A    between atoms: C_16  and  C_17
REMARK    6  A    between atoms: C_17  and  N_18
REMARK    7  A    between atoms: N_18  and  C_19
REMARK    8  A    between atoms: C_19  and  C_20
REMARK    9  A    between atoms: C_20  and  N_21
REMARK   10  A    between atoms: N_21  and  C_22
REMARK   11  A    between atoms: C_22  and  C_23
REMARK                            x       y       z     vdW  Elec       q    Type
REMARK                         _______ _______ _______ _____ _____    ______ ____
ROOT
ATOM      1  N   UNL     1       0.623   9.917  19.892  0.00  0.00    +0.000 N 
ATOM      2  C   UNL     1      -0.097   9.176  20.805  0.00  0.00    +0.000 A 
ATOM      3  C   UNL     1       0.954   8.573  21.471  0.00  0.00    +0.000 A 
ATOM      4  C   UNL     1       1.573   8.006  20.323  0.00  0.00    +0.000 A 
ATOM      5  C   UNL     1       1.939   6.697  19.942  0.00  0.00    +0.000 A 
ATOM      6  C   UNL     1       2.597   6.529  18.724  0.00  0.00    +0.000 A 
ATOM      7  C   UNL     1       2.812   7.632  17.880  0.00  0.00    +0.000 A 
ATOM      8  C   UNL     1       2.302   8.920  18.177  0.00  0.00    +0.000 A 
ATOM      9  C   UNL     1       1.601   9.054  19.385  0.00  0.00    +0.000 A 
ENDROOT
BRANCH   1  11
ATOM     10  O   UNL     1       1.116  12.147  18.900  0.00  0.00    +0.000 OA
ATOM     11  S   UNL     1       0.611  11.590  20.147  0.00  0.00    +0.000 S 
ATOM     12  O   UNL     1       1.228  11.821  21.423  0.00  0.00    +0.000 OA
BRANCH  11  13
ATOM     13  C   UNL     1      -1.145  12.024  20.236  0.00  0.00    +0.000 A 
ATOM     14  C   UNL     1      -1.709  12.532  21.424  0.00  0.00    +0.000 A 
ATOM     15  C   UNL     1      -3.070  12.866  21.464  0.00  0.00    +0.000 A 
ATOM     16  C   UNL     1      -3.862  12.689  20.334  0.00  0.00    +0.000 A 
ATOM     17  C   UNL     1      -3.300  12.195  19.154  0.00  0.00    +0.000 A 
ATOM     18  C   UNL     1      -1.945  11.862  19.100  0.00  0.00    +0.000 A 
ENDBRANCH  11  13
ENDBRANCH   1  11
BRANCH   5  19
ATOM     19  O   UNL     1       1.487   5.562  20.622  0.00  0.00    +0.000 OA
BRANCH  19  20
ATOM     20  C   UNL     1       2.610   4.756  21.032  0.00  0.00    +0.000 C 
BRANCH  20  21
ATOM     21  C   UNL     1       2.650   3.323  20.529  0.00  0.00    +0.000 C 
BRANCH  21  22
ATOM     22  N   UNL     1       1.521   3.050  19.638  0.00  0.00    +0.000 NA
ATOM     23  H   UNL     1       0.780   3.743  19.761  0.00  0.00    +0.000 HD
BRANCH  22  24
ATOM     24  C   UNL     1       1.968   3.055  18.251  0.00  0.00    +0.000 C 
BRANCH  24  25
ATOM     25  C   UNL     1       2.958   1.909  18.018  0.00  0.00    +0.000 C 
BRANCH  25  26
ATOM     26  N   UNL     1       4.300   2.465  17.856  0.00  0.00    +0.000 NA
ATOM     27  H   UNL     1       4.884   1.776  17.380  0.00  0.00    +0.000 HD
BRANCH  26  28
ATOM     28  C   UNL     1       4.258   3.672  17.038  0.00  0.00    +0.000 C 
BRANCH  28  29
ATOM     29  C   UNL     1       5.364   4.610  17.450  0.00  0.00    +0.000 A 
ATOM     30  C   UNL     1       5.742   4.651  18.803  0.00  0.00    +0.000 A 
ATOM     31  C   UNL     1       6.763   5.496  19.236  0.00  0.00    +0.000 A 
ATOM     32  C   UNL     1       7.431   6.303  18.320  0.00  0.00    +0.000 A 
ATOM     33  C   UNL     1       7.091   6.252  16.969  0.00  0.00    +0.000 A 
ATOM     34  C   UNL     1       6.069   5.404  16.532  0.00  0.00    +0.000 A 
ATOM     35 CL   UNL     1       5.735   5.360  14.837  0.00  0.00    +0.000 Cl
ENDBRANCH  28  29
ENDBRANCH  26  28
ENDBRANCH  25  26
ENDBRANCH  24  25
ENDBRANCH  22  24
ENDBRANCH  21  22
ENDBRANCH  20  21
ENDBRANCH  19  20
ENDBRANCH   5  19
TORSDOF 11
ENDMDL
MODEL 4
REMARK VINA RESULT:      -7.7      0.887      1.239
REMARK  Name = 
REMARK  11 active torsions:
REMARK  status: ('A' for Active; 'I' for Inactive)
REMARK    1  A    between atoms: S_2  and  C_4
REMARK    2  A    between atoms: S_2  and  N_10
REMARK    3  A    between atoms: C_14  and  O_15
REMARK    4  A    between atoms: O_15  and  C_16
REMARK    5  A    between atoms: C_16  and  C_17
REMARK    6  A    between atoms: C_17  and  N_18
REMARK    7  A    between atoms: N_18  and  C_19
REMARK    8  A    between atoms: C_19  and  C_20
REMARK    9  A    between atoms: C_20  and  N_21
REMARK   10  A    between atoms: N_21  and  C_22
REMARK   11  A    between atoms: C_22  and  C_23
REMARK                            x       y       z     vdW  Elec       q    Type
REMARK                         _______ _______ _______ _____ _____    ______ ____
ROOT
ATOM      1  N   UNL     1       0.471   9.792  20.040  0.00  0.00    +0.000 N 
ATOM      2  C   UNL     1      -0.005   9.032  21.087  0.00  0.00    +0.000 A 
ATOM      3  C   UNL     1       1.202   8.603  21.609  0.00  0.00    +0.000 A 
ATOM      4  C   UNL     1       1.711   8.040  20.406  0.00  0.00    +0.000 A 
ATOM      5  C   UNL     1       2.181   6.763  20.035  0.00  0.00    +0.000 A 
ATOM      6  C   UNL     1       2.667   6.594  18.739  0.00  0.00    +0.000 A 
ATOM      7  C   UNL     1       2.611   7.657  17.821  0.00  0.00    +0.000 A 
ATOM      8  C   UNL     1       1.991   8.892  18.133  0.00  0.00    +0.000 A 
ATOM      9  C   UNL     1       1.465   9.020  19.428  0.00  0.00    +0.000 A 
ENDROOT
BRANCH   1  11
ATOM     10  O   UNL     1       1.068  12.030  19.127  0.00  0.00    +0.000 OA
ATOM     11  S   UNL     1       0.283  11.465  20.216  0.00  0.00    +0.000 S 
ATOM     12  O   UNL     1       0.517  11.767  21.600  0.00  0.00    +0.000 OA
BRANCH  11  13
ATOM     13  C   UNL     1      -1.456  11.772  19.815  0.00  0.00    +0.000 A 
ATOM     14  C   UNL     1      -2.049  11.209  18.667  0.00  0.00    +0.000 A 
ATOM     15  C   UNL     1      -3.398  11.457  18.384  0.00  0.00    +0.000 A 
ATOM     16  C   UNL     1      -4.149  12.264  19.232  0.00  0.00    +0.000 A 
ATOM     17  C   UNL     1      -3.564  12.814  20.377  0.00  0.00    +0.000 A 
ATOM     18  C   UNL     1      -2.221  12.571  20.671  0.00  0.00    +0.000 A 
ENDBRANCH  11  13
ENDBRANCH   1  11
BRANCH   5  19
ATOM     19  O   UNL     1       1.984   5.628  20.829  0.00  0.00    +0.000 OA
BRANCH  19  20
ATOM     20  C   UNL     1       1.119   4.696  20.147  0.00  0.00    +0.000 C 
BRANCH  20  21
ATOM     21  C   UNL     1       1.401   3.218  20.355  0.00  0.00    +0.000 C 
BRANCH  21  22
ATOM     22  N   UNL     1       2.291   2.703  19.314  0.00  0.00    +0.000 NA
ATOM     23  H   UNL     1       2.395   3.378  18.553  0.00  0.00    +0.000 HD
BRANCH  22  24
ATOM     24  C   UNL     1       3.600   2.403  19.880  0.00  0.00    +0.000 C 
BRANCH  24  25
ATOM     25  C   UNL     1       4.638   3.397  19.349  0.00  0.00    +0.000 C 
BRANCH  25  26
ATOM     26  N   UNL     1       4.228   3.849  18.020  0.00  0.00    +0.000 NA
ATOM     27  H   UNL     1       3.818   4.780  18.104  0.00  0.00    +0.000 HD
BRANCH  26  28
ATOM     28  C   UNL     1       5.381   3.936  17.132  0.00  0.00    +0.000 C 
BRANCH  28  29
ATOM     29  C   UNL     1       6.220   5.135  17.497  0.00  0.00    +0.000 A 
ATOM     30  C   UNL     1       7.169   5.002  18.526  0.00  0.00    +0.000 A 
ATOM     31  C   UNL     1       7.975   6.078  18.899  0.00  0.00    +0.000 A 
ATOM     32  C   UNL     1       7.854   7.297  18.240  0.00  0.00    +0.000 A 
ATOM     33  C   UNL     1       6.941   7.437  17.195  0.00  0.00    +0.000 A 
ATOM     34  C   UNL     1       6.133   6.360  16.819  0.00  0.00    +0.000 A 
ATOM     35 CL   UNL     1       5.058   6.594  15.485  0.00  0.00    +0.000 Cl
ENDBRANCH  28  29
ENDBRANCH  26  28
ENDBRANCH  25  26
ENDBRANCH  24  25
ENDBRANCH  22  24
ENDBRANCH  21  22
ENDBRANCH  20  21
ENDBRANCH  19  20
ENDBRANCH   5  19
TORSDOF 11
ENDMDL
MODEL 5
REMARK VINA RESULT:      -7.7      2.237      2.911
REMARK  Name = 
REMARK  11 active torsions:
REMARK  status: ('A' for Active; 'I' for Inactive)
REMARK    1  A    between atoms: S_2  and  C_4
REMARK    2  A    between atoms: S_2  and  N_10
REMARK    3  A    between atoms: C_14  and  O_15
REMARK    4  A    between atoms: O_15  and  C_16
REMARK    5  A    between atoms: C_16  and  C_17
REMARK    6  A    between atoms: C_17  and  N_18
REMARK    7  A    between atoms: N_18  and  C_19
REMARK    8  A    between atoms: C_19  and  C_20
REMARK    9  A    between atoms: C_20  and  N_21
REMARK   10  A    between atoms: N_21  and  C_22
REMARK   11  A    between atoms: C_22  and  C_23
REMARK                            x       y       z     vdW  Elec       q    Type
REMARK                         _______ _______ _______ _____ _____    ______ ____
ROOT
ATOM      1  N   UNL     1      -0.082   9.826  20.314  0.00  0.00    +0.000 N 
ATOM      2  C   UNL     1      -0.216   8.973  21.389  0.00  0.00    +0.000 A 
ATOM      3  C   UNL     1       1.119   8.826  21.717  0.00  0.00    +0.000 A 
ATOM      4  C   UNL     1       1.559   8.399  20.433  0.00  0.00    +0.000 A 
ATOM      5  C   UNL     1       2.242   7.263  19.950  0.00  0.00    +0.000 A 
ATOM      6  C   UNL     1       2.557   7.215  18.592  0.00  0.00    +0.000 A 
ATOM      7  C   UNL     1       2.130   8.242  17.733  0.00  0.00    +0.000 A 
ATOM      8  C   UNL     1       1.302   9.303  18.177  0.00  0.00    +0.000 A 
ATOM      9  C   UNL     1       0.958   9.303  19.538  0.00  0.00    +0.000 A 
ENDROOT
BRANCH   1  11
ATOM     10  O   UNL     1      -0.664  11.536  22.028  0.00  0.00    +0.000 OA
ATOM     11  S   UNL     1      -0.611  11.412  20.578  0.00  0.00    +0.000 S 
ATOM     12  O   UNL     1      -1.747  11.620  19.724  0.00  0.00    +0.000 OA
BRANCH  11  13
ATOM     13  C   UNL     1       0.765  12.449  20.018  0.00  0.00    +0.000 A 
ATOM     14  C   UNL     1       0.860  12.868  18.676  0.00  0.00    +0.000 A 
ATOM     15  C   UNL     1       1.932  13.675  18.271  0.00  0.00    +0.000 A 
ATOM     16  C   UNL     1       2.903  14.054  19.192  0.00  0.00    +0.000 A 
ATOM     17  C   UNL     1       2.802  13.647  20.525  0.00  0.00    +0.000 A 
ATOM     18  C   UNL     1       1.737  12.846  20.942  0.00  0.00    +0.000 A 
ENDBRANCH  11  13
ENDBRANCH   1  11
BRANCH   5  19
ATOM     19  O   UNL     1       2.423   6.110  20.721  0.00  0.00    +0.000 OA
BRANCH  19  20
ATOM     20  C   UNL     1       1.323   5.201  20.509  0.00  0.00    +0.000 C 
BRANCH  20  21
ATOM     21  C   UNL     1       1.560   3.741  20.858  0.00  0.00    +0.000 C 
BRANCH  21  22
ATOM     22  N   UNL     1       0.573   2.880  20.206  0.00  0.00    +0.000 NA
ATOM     23  H   UNL     1      -0.378   3.196  20.406  0.00  0.00    +0.000 HD
BRANCH  22  24
ATOM     24  C   UNL     1       0.792   2.874  18.765  0.00  0.00    +0.000 C 
BRANCH  24  25
ATOM     25  C   UNL     1       2.255   2.531  18.462  0.00  0.00    +0.000 C 
BRANCH  25  26
ATOM     26  N   UNL     1       2.854   3.632  17.709  0.00  0.00    +0.000 NA
ATOM     27  H   UNL     1       3.050   4.400  18.354  0.00  0.00    +0.000 HD
BRANCH  26  28
ATOM     28  C   UNL     1       4.113   3.211  17.105  0.00  0.00    +0.000 C 
BRANCH  28  29
ATOM     29  C   UNL     1       5.218   4.153  17.512  0.00  0.00    +0.000 A 
ATOM     30  C   UNL     1       5.254   4.613  18.840  0.00  0.00    +0.000 A 
ATOM     31  C   UNL     1       6.258   5.481  19.269  0.00  0.00    +0.000 A 
ATOM     32  C   UNL     1       7.248   5.891  18.382  0.00  0.00    +0.000 A 
ATOM     33  C   UNL     1       7.246   5.419  17.070  0.00  0.00    +0.000 A 
ATOM     34  C   UNL     1       6.242   4.547  16.637  0.00  0.00    +0.000 A 
ATOM     35 CL   UNL     1       6.331   3.968  15.011  0.00  0.00    +0.000 Cl
ENDBRANCH  28  29
ENDBRANCH  26  28
ENDBRANCH  25  26
ENDBRANCH  24  25
ENDBRANCH  22  24
ENDBRANCH  21  22
ENDBRANCH  20  21
ENDBRANCH  19  20
ENDBRANCH   5  19
TORSDOF 11
ENDMDL
MODEL 6
REMARK VINA RESULT:      -7.7      2.232      3.171
REMARK  Name = 
REMARK  11 active torsions:
REMARK  status: ('A' for Active; 'I' for Inactive)
REMARK    1  A    between atoms: S_2  and  C_4
REMARK    2  A    between atoms: S_2  and  N_10
REMARK    3  A    between atoms: C_14  and  O_15
REMARK    4  A    between atoms: O_15  and  C_16
REMARK    5  A    between atoms: C_16  and  C_17
REMARK    6  A    between atoms: C_17  and  N_18
REMARK    7  A    between atoms: N_18  and  C_19
REMARK    8  A    between atoms: C_19  and  C_20
REMARK    9  A    between atoms: C_20  and  N_21
REMARK   10  A    between atoms: N_21  and  C_22
REMARK   11  A    between atoms: C_22  and  C_23
REMARK                            x       y       z     vdW  Elec       q    Type
REMARK                         _______ _______ _______ _____ _____    ______ ____
ROOT
ATOM      1  N   UNL     1      -0.083  10.448  19.419  0.00  0.00    +0.000 N 
ATOM      2  C   UNL     1      -0.591   9.751  20.494  0.00  0.00    +0.000 A 
ATOM      3  C   UNL     1       0.587   9.523  21.181  0.00  0.00    +0.000 A 
ATOM      4  C   UNL     1       1.286   8.903  20.109  0.00  0.00    +0.000 A 
ATOM      5  C   UNL     1       1.928   7.658  19.937  0.00  0.00    +0.000 A 
ATOM      6  C   UNL     1       2.573   7.414  18.725  0.00  0.00    +0.000 A 
ATOM      7  C   UNL     1       2.509   8.363  17.689  0.00  0.00    +0.000 A 
ATOM      8  C   UNL     1       1.730   9.542  17.792  0.00  0.00    +0.000 A 
ATOM      9  C   UNL     1       1.050   9.740  19.004  0.00  0.00    +0.000 A 
ENDROOT
BRANCH   1  11
ATOM     10  O   UNL     1      -1.138  12.339  20.649  0.00  0.00    +0.000 OA
ATOM     11  S   UNL     1      -0.465  12.097  19.380  0.00  0.00    +0.000 S 
ATOM     12  O   UNL     1      -1.069  12.355  18.103  0.00  0.00    +0.000 OA
BRANCH  11  13
ATOM     13  C   UNL     1       1.136  12.937  19.474  0.00  0.00    +0.000 A 
ATOM     14  C   UNL     1       1.763  13.173  20.714  0.00  0.00    +0.000 A 
ATOM     15  C   UNL     1       3.005  13.820  20.758  0.00  0.00    +0.000 A 
ATOM     16  C   UNL     1       3.614  14.234  19.578  0.00  0.00    +0.000 A 
ATOM     17  C   UNL     1       2.998  13.990  18.347  0.00  0.00    +0.000 A 
ATOM     18  C   UNL     1       1.762  13.344  18.291  0.00  0.00    +0.000 A 
ENDBRANCH  11  13
ENDBRANCH   1  11
BRANCH   5  19
ATOM     19  O   UNL     1       1.763   6.596  20.833  0.00  0.00    +0.000 OA
BRANCH  19  20
ATOM     20  C   UNL     1       2.023   5.345  20.164  0.00  0.00    +0.000 C 
BRANCH  20  21
ATOM     21  C   UNL     1       1.113   4.178  20.510  0.00  0.00    +0.000 C 
BRANCH  21  22
ATOM     22  N   UNL     1       1.528   2.964  19.805  0.00  0.00    +0.000 NA
ATOM     23  H   UNL     1       1.453   3.085  18.792  0.00  0.00    +0.000 HD
BRANCH  22  24
ATOM     24  C   UNL     1       2.901   2.628  20.156  0.00  0.00    +0.000 C 
BRANCH  24  25
ATOM     25  C   UNL     1       3.556   1.849  19.010  0.00  0.00    +0.000 C 
BRANCH  25  26
ATOM     26  N   UNL     1       4.242   2.789  18.126  0.00  0.00    +0.000 NA
ATOM     27  H   UNL     1       3.541   3.320  17.606  0.00  0.00    +0.000 HD
BRANCH  26  28
ATOM     28  C   UNL     1       5.042   3.729  18.902  0.00  0.00    +0.000 C 
BRANCH  28  29
ATOM     29  C   UNL     1       5.479   4.877  18.027  0.00  0.00    +0.000 A 
ATOM     30  C   UNL     1       4.754   5.139  16.852  0.00  0.00    +0.000 A 
ATOM     31  C   UNL     1       5.112   6.192  16.011  0.00  0.00    +0.000 A 
ATOM     32  C   UNL     1       6.191   7.007  16.339  0.00  0.00    +0.000 A 
ATOM     33  C   UNL     1       6.901   6.781  17.517  0.00  0.00    +0.000 A 
ATOM     34  C   UNL     1       6.543   5.727  18.363  0.00  0.00    +0.000 A 
ATOM     35 CL   UNL     1       7.441   5.537  19.829  0.00  0.00    +0.000 Cl
ENDBRANCH  28  29
ENDBRANCH  26  28
ENDBRANCH  25  26
ENDBRANCH  24  25
ENDBRANCH  22  24
ENDBRANCH  21  22
ENDBRANCH  20  21
ENDBRANCH  19  20
ENDBRANCH   5  19
TORSDOF 11
ENDMDL
MODEL 7
REMARK VINA RESULT:      -7.7      3.301      9.272
REMARK  Name = 
REMARK  11 active torsions:
REMARK  status: ('A' for Active; 'I' for Inactive)
REMARK    1  A    between atoms: S_2  and  C_4
REMARK    2  A    between atoms: S_2  and  N_10
REMARK    3  A    between atoms: C_14  and  O_15
REMARK    4  A    between atoms: O_15  and  C_16
REMARK    5  A    between atoms: C_16  and  C_17
REMARK    6  A    between atoms: C_17  and  N_18
REMARK    7  A    between atoms: N_18  and  C_19
REMARK    8  A    between atoms: C_19  and  C_20
REMARK    9  A    between atoms: C_20  and  N_21
REMARK   10  A    between atoms: N_21  and  C_22
REMARK   11  A    between atoms: C_22  and  C_23
REMARK                            x       y       z     vdW  Elec       q    Type
REMARK                         _______ _______ _______ _____ _____    ______ ____
ROOT
ATOM      1  N   UNL     1       3.262   5.303  19.074  0.00  0.00    +0.000 N 
ATOM      2  C   UNL     1       3.166   5.135  20.439  0.00  0.00    +0.000 A 
ATOM      3  C   UNL     1       1.823   5.424  20.599  0.00  0.00    +0.000 A 
ATOM      4  C   UNL     1       1.853   6.699  19.971  0.00  0.00    +0.000 A 
ATOM      5  C   UNL     1       1.495   8.005  20.368  0.00  0.00    +0.000 A 
ATOM      6  C   UNL     1       1.618   9.032  19.433  0.00  0.00    +0.000 A 
ATOM      7  C   UNL     1       2.156   8.767  18.161  0.00  0.00    +0.000 A 
ATOM      8  C   UNL     1       2.672   7.495  17.810  0.00  0.00    +0.000 A 
ATOM      9  C   UNL     1       2.581   6.491  18.786  0.00  0.00    +0.000 A 
ENDROOT
BRANCH   1  11
ATOM     10  O   UNL     1       2.338   3.834  17.288  0.00  0.00    +0.000 OA
ATOM     11  S   UNL     1       3.485   3.880  18.184  0.00  0.00    +0.000 S 
ATOM     12  O   UNL     1       3.794   2.842  19.127  0.00  0.00    +0.000 OA
BRANCH  11  13
ATOM     13  C   UNL     1       4.937   4.212  17.153  0.00  0.00    +0.000 A 
ATOM     14  C   UNL     1       6.195   4.475  17.731  0.00  0.00    +0.000 A 
ATOM     15  C   UNL     1       7.303   4.723  16.910  0.00  0.00    +0.000 A 
ATOM     16  C   UNL     1       7.158   4.715  15.527  0.00  0.00    +0.000 A 
ATOM     17  C   UNL     1       5.913   4.442  14.953  0.00  0.00    +0.000 A 
ATOM     18  C   UNL     1       4.802   4.191  15.761  0.00  0.00    +0.000 A 
ENDBRANCH  11  13
ENDBRANCH   1  11
BRANCH   5  19
ATOM     19  O   UNL     1       1.232   8.340  21.700  0.00  0.00    +0.000 OA
BRANCH  19  20
ATOM     20  C   UNL     1      -0.051   8.993  21.798  0.00  0.00    +0.000 C 
BRANCH  20  21
ATOM     21  C   UNL     1      -0.381   9.668  23.118  0.00  0.00    +0.000 C 
BRANCH  21  22
ATOM     22  N   UNL     1      -1.222  10.847  22.907  0.00  0.00    +0.000 NA
ATOM     23  H   UNL     1      -1.619  11.176  23.790  0.00  0.00    +0.000 HD
BRANCH  22  24
ATOM     24  C   UNL     1      -0.440  11.914  22.297  0.00  0.00    +0.000 C 
BRANCH  24  25
ATOM     25  C   UNL     1      -1.362  12.847  21.504  0.00  0.00    +0.000 C 
BRANCH  25  26
ATOM     26  N   UNL     1      -2.516  12.085  21.030  0.00  0.00    +0.000 NA
ATOM     27  H   UNL     1      -3.251  12.131  21.737  0.00  0.00    +0.000 HD
BRANCH  26  28
ATOM     28  C   UNL     1      -3.036  12.660  19.795  0.00  0.00    +0.000 C 
BRANCH  28  29
ATOM     29  C   UNL     1      -2.852  11.687  18.658  0.00  0.00    +0.000 A 
ATOM     30  C   UNL     1      -1.648  10.964  18.580  0.00  0.00    +0.000 A 
ATOM     31  C   UNL     1      -1.429  10.048  17.553  0.00  0.00    +0.000 A 
ATOM     32  C   UNL     1      -2.415   9.828  16.596  0.00  0.00    +0.000 A 
ATOM     33  C   UNL     1      -3.628  10.512  16.676  0.00  0.00    +0.000 A 
ATOM     34  C   UNL     1      -3.850  11.431  17.706  0.00  0.00    +0.000 A 
ATOM     35 CL   UNL     1      -5.395  12.206  17.767  0.00  0.00    +0.000 Cl
ENDBRANCH  28  29
ENDBRANCH  26  28
ENDBRANCH  25  26
ENDBRANCH  24  25
ENDBRANCH  22  24
ENDBRANCH  21  22
ENDBRANCH  20  21
ENDBRANCH  19  20
ENDBRANCH   5  19
TORSDOF 11
ENDMDL
MODEL 8
REMARK VINA RESULT:      -7.6      2.288      3.070
REMARK  Name = 
REMARK  11 active torsions:
REMARK  status: ('A' for Active; 'I' for Inactive)
REMARK    1  A    between atoms: S_2  and  C_4
REMARK    2  A    between atoms: S_2  and  N_10
REMARK    3  A    between atoms: C_14  and  O_15
REMARK    4  A    between atoms: O_15  and  C_16
REMARK    5  A    between atoms: C_16  and  C_17
REMARK    6  A    between atoms: C_17  and  N_18
REMARK    7  A    between atoms: N_18  and  C_19
REMARK    8  A    between atoms: C_19  and  C_20
REMARK    9  A    between atoms: C_20  and  N_21
REMARK   10  A    between atoms: N_21  and  C_22
REMARK   11  A    between atoms: C_22  and  C_23
REMARK                            x       y       z     vdW  Elec       q    Type
REMARK                         _______ _______ _______ _____ _____    ______ ____
ROOT
ATOM      1  N   UNL     1      -0.042   9.866  20.700  0.00  0.00    +0.000 N 
ATOM      2  C   UNL     1      -0.067   8.892  21.674  0.00  0.00    +0.000 A 
ATOM      3  C   UNL     1       1.294   8.709  21.833  0.00  0.00    +0.000 A 
ATOM      4  C   UNL     1       1.586   8.439  20.468  0.00  0.00    +0.000 A 
ATOM      5  C   UNL     1       2.199   7.370  19.781  0.00  0.00    +0.000 A 
ATOM      6  C   UNL     1       2.363   7.484  18.401  0.00  0.00    +0.000 A 
ATOM      7  C   UNL     1       1.856   8.606  17.721  0.00  0.00    +0.000 A 
ATOM      8  C   UNL     1       1.093   9.605  18.377  0.00  0.00    +0.000 A 
ATOM      9  C   UNL     1       0.901   9.441  19.757  0.00  0.00    +0.000 A 
ENDROOT
BRANCH   1  11
ATOM     10  O   UNL     1      -0.156  11.453  22.616  0.00  0.00    +0.000 OA
ATOM     11  S   UNL     1      -0.521  11.409  21.207  0.00  0.00    +0.000 S 
ATOM     12  O   UNL     1      -1.861  11.607  20.730  0.00  0.00    +0.000 OA
BRANCH  11  13
ATOM     13  C   UNL     1       0.601  12.539  20.344  0.00  0.00    +0.000 A 
ATOM     14  C   UNL     1       0.224  13.155  19.133  0.00  0.00    +0.000 A 
ATOM     15  C   UNL     1       1.109  14.030  18.489  0.00  0.00    +0.000 A 
ATOM     16  C   UNL     1       2.360  14.284  19.043  0.00  0.00    +0.000 A 
ATOM     17  C   UNL     1       2.729  13.683  20.249  0.00  0.00    +0.000 A 
ATOM     18  C   UNL     1       1.855  12.811  20.902  0.00  0.00    +0.000 A 
ENDBRANCH  11  13
ENDBRANCH   1  11
BRANCH   5  19
ATOM     19  O   UNL     1       2.450   6.133  20.384  0.00  0.00    +0.000 OA
BRANCH  19  20
ATOM     20  C   UNL     1       1.222   5.385  20.501  0.00  0.00    +0.000 C 
BRANCH  20  21
ATOM     21  C   UNL     1       1.347   3.887  20.717  0.00  0.00    +0.000 C 
BRANCH  21  22
ATOM     22  N   UNL     1       0.358   3.159  19.921  0.00  0.00    +0.000 NA
ATOM     23  H   UNL     1      -0.318   3.800  19.500  0.00  0.00    +0.000 HD
BRANCH  22  24
ATOM     24  C   UNL     1       1.025   2.397  18.873  0.00  0.00    +0.000 C 
BRANCH  24  25
ATOM     25  C   UNL     1       1.899   3.330  18.027  0.00  0.00    +0.000 C 
BRANCH  25  26
ATOM     26  N   UNL     1       3.226   2.735  17.880  0.00  0.00    +0.000 NA
ATOM     27  H   UNL     1       3.447   2.672  16.885  0.00  0.00    +0.000 HD
BRANCH  26  28
ATOM     28  C   UNL     1       4.235   3.571  18.519  0.00  0.00    +0.000 C 
BRANCH  28  29
ATOM     29  C   UNL     1       5.174   4.128  17.479  0.00  0.00    +0.000 A 
ATOM     30  C   UNL     1       4.933   3.828  16.127  0.00  0.00    +0.000 A 
ATOM     31  C   UNL     1       5.767   4.323  15.125  0.00  0.00    +0.000 A 
ATOM     32  C   UNL     1       6.845   5.137  15.458  0.00  0.00    +0.000 A 
ATOM     33  C   UNL     1       7.079   5.472  16.791  0.00  0.00    +0.000 A 
ATOM     34  C   UNL     1       6.244   4.978  17.798  0.00  0.00    +0.000 A 
ATOM     35 CL   UNL     1       6.568   5.473  19.422  0.00  0.00    +0.000 Cl
ENDBRANCH  28  29
ENDBRANCH  26  28
ENDBRANCH  25  26
ENDBRANCH  24  25
ENDBRANCH  22  24
ENDBRANCH  21  22
ENDBRANCH  20  21
ENDBRANCH  19  20
ENDBRANCH   5  19
TORSDOF 11
ENDMDL
MODEL 9
REMARK VINA RESULT:      -7.5      1.473      1.958
REMARK  Name = 
REMARK  11 active torsions:
REMARK  status: ('A' for Active; 'I' for Inactive)
REMARK    1  A    between atoms: S_2  and  C_4
REMARK    2  A    between atoms: S_2  and  N_10
REMARK    3  A    between atoms: C_14  and  O_15
REMARK    4  A    between atoms: O_15  and  C_16
REMARK    5  A    between atoms: C_16  and  C_17
REMARK    6  A    between atoms: C_17  and  N_18
REMARK    7  A    between atoms: N_18  and  C_19
REMARK    8  A    between atoms: C_19  and  C_20
REMARK    9  A    between atoms: C_20  and  N_21
REMARK   10  A    between atoms: N_21  and  C_22
REMARK   11  A    between atoms: C_22  and  C_23
REMARK                            x       y       z     vdW  Elec       q    Type
REMARK                         _______ _______ _______ _____ _____    ______ ____
ROOT
ATOM      1  N   UNL     1       0.607   9.914  20.105  0.00  0.00    +0.000 N 
ATOM      2  C   UNL     1      -0.133   9.219  21.036  0.00  0.00    +0.000 A 
ATOM      3  C   UNL     1       0.896   8.568  21.691  0.00  0.00    +0.000 A 
ATOM      4  C   UNL     1       1.467   7.961  20.538  0.00  0.00    +0.000 A 
ATOM      5  C   UNL     1       1.759   6.633  20.163  0.00  0.00    +0.000 A 
ATOM      6  C   UNL     1       2.388   6.421  18.936  0.00  0.00    +0.000 A 
ATOM      7  C   UNL     1       2.644   7.505  18.079  0.00  0.00    +0.000 A 
ATOM      8  C   UNL     1       2.206   8.820  18.372  0.00  0.00    +0.000 A 
ATOM      9  C   UNL     1       1.532   8.999  19.591  0.00  0.00    +0.000 A 
ENDROOT
BRANCH   1  11
ATOM     10  O   UNL     1       0.648  12.146  19.002  0.00  0.00    +0.000 OA
ATOM     11  S   UNL     1       0.685  11.589  20.346  0.00  0.00    +0.000 S 
ATOM     12  O   UNL     1       1.756  11.827  21.273  0.00  0.00    +0.000 OA
BRANCH  11  13
ATOM     13  C   UNL     1      -0.894  12.009  21.127  0.00  0.00    +0.000 A 
ATOM     14  C   UNL     1      -2.024  12.338  20.351  0.00  0.00    +0.000 A 
ATOM     15  C   UNL     1      -3.236  12.654  20.980  0.00  0.00    +0.000 A 
ATOM     16  C   UNL     1      -3.320  12.648  22.369  0.00  0.00    +0.000 A 
ATOM     17  C   UNL     1      -2.202  12.310  23.137  0.00  0.00    +0.000 A 
ATOM     18  C   UNL     1      -0.990  11.991  22.522  0.00  0.00    +0.000 A 
ENDBRANCH  11  13
ENDBRANCH   1  11
BRANCH   5  19
ATOM     19  O   UNL     1       1.262   5.527  20.860  0.00  0.00    +0.000 OA
BRANCH  19  20
ATOM     20  C   UNL     1       2.340   4.627  21.187  0.00  0.00    +0.000 C 
BRANCH  20  21
ATOM     21  C   UNL     1       1.984   3.161  21.363  0.00  0.00    +0.000 C 
BRANCH  21  22
ATOM     22  N   UNL     1       3.184   2.324  21.345  0.00  0.00    +0.000 NA
ATOM     23  H   UNL     1       2.939   1.333  21.302  0.00  0.00    +0.000 HD
BRANCH  22  24
ATOM     24  C   UNL     1       4.016   2.670  20.200  0.00  0.00    +0.000 C 
BRANCH  24  25
ATOM     25  C   UNL     1       3.553   1.890  18.964  0.00  0.00    +0.000 C 
BRANCH  25  26
ATOM     26  N   UNL     1       4.368   2.288  17.818  0.00  0.00    +0.000 NA
ATOM     27  H   UNL     1       4.224   1.613  17.065  0.00  0.00    +0.000 HD
BRANCH  26  28
ATOM     28  C   UNL     1       3.964   3.603  17.335  0.00  0.00    +0.000 C 
BRANCH  28  29
ATOM     29  C   UNL     1       5.156   4.525  17.298  0.00  0.00    +0.000 A 
ATOM     30  C   UNL     1       5.645   5.040  18.512  0.00  0.00    +0.000 A 
ATOM     31  C   UNL     1       6.748   5.892  18.535  0.00  0.00    +0.000 A 
ATOM     32  C   UNL     1       7.389   6.231  17.347  0.00  0.00    +0.000 A 
ATOM     33  C   UNL     1       6.938   5.703  16.137  0.00  0.00    +0.000 A 
ATOM     34  C   UNL     1       5.832   4.847  16.112  0.00  0.00    +0.000 A 
ATOM     35 CL   UNL     1       5.359   4.196  14.582  0.00  0.00    +0.000 Cl
ENDBRANCH  28  29
ENDBRANCH  26  28
ENDBRANCH  25  26
ENDBRANCH  24  25
ENDBRANCH  22  24
ENDBRANCH  21  22
ENDBRANCH  20  21
ENDBRANCH  19  20
ENDBRANCH   5  19
TORSDOF 11
ENDMDL
