MODEL 1
REMARK VINA RESULT:      -8.1      0.000      0.000
REMARK  Name = 
REMARK  8 active torsions:
REMARK  status: ('A' for Active; 'I' for Inactive)
REMARK    1  A    between atoms: C_1  and  C_2
REMARK    2  A    between atoms: C_2  and  N_3
REMARK    3  A    between atoms: N_3  and  C_4
REMARK    4  A    between atoms: N_3  and  C_6
REMARK    5  A    between atoms: C_4  and  C_5
REMARK    6  A    between atoms: C_9  and  N_10
REMARK    7  A    between atoms: C_13  and  C_14
REMARK    8  A    between atoms: C_19  and  C_20
REMARK                            x       y       z     vdW  Elec       q    Type
REMARK                         _______ _______ _______ _____ _____    ______ ____
ROOT
ATOM      1  N   UNL     1       2.321   5.873  20.773  0.00  0.00    +0.000 N 
ATOM      2  C   UNL     1       3.201   5.081  20.110  0.00  0.00    +0.000 A 
ATOM      3  N   UNL     1       4.196   5.473  19.348  0.00  0.00    +0.000 NA
ATOM      4  C   UNL     1       4.707   4.422  18.617  0.00  0.00    +0.000 A 
ATOM      5  C   UNL     1       4.186   3.189  18.937  0.00  0.00    +0.000 A 
ATOM      6  S   UNL     1       3.030   3.360  20.194  0.00  0.00    +0.000 S 
ATOM      7  H   UNL     1       1.615   5.377  21.300  0.00  0.00    +0.000 HD
ENDROOT
BRANCH   4   8
ATOM      8  C   UNL     1       5.707   4.683  17.539  0.00  0.00    +0.000 A 
ATOM      9  S   UNL     1       5.474   4.348  15.879  0.00  0.00    +0.000 S 
ATOM     10  C   UNL     1       6.985   5.078  15.528  0.00  0.00    +0.000 A 
ATOM     11  N   UNL     1       7.430   5.213  14.268  0.00  0.00    +0.000 N 
ATOM     12  N   UNL     1       7.665   5.497  16.564  0.00  0.00    +0.000 NA
ATOM     13  C   UNL     1       6.949   5.267  17.732  0.00  0.00    +0.000 A 
ATOM     14  C   UNL     1       7.602   5.604  19.025  0.00  0.00    +0.000 C 
ATOM     15  H   UNL     1       6.740   5.268  13.530  0.00  0.00    +0.000 HD
ATOM     16  H   UNL     1       8.200   5.865  14.161  0.00  0.00    +0.000 HD
ENDBRANCH   4   8
BRANCH   1  20
ATOM     17  C   UNL     1       1.046   9.676  19.280  0.00  0.00    +0.000 A 
ATOM     18  C   UNL     1       1.780   8.766  18.505  0.00  0.00    +0.000 A 
ATOM     19  C   UNL     1       2.168   7.514  19.005  0.00  0.00    +0.000 A 
ATOM     20  C   UNL     1       1.866   7.126  20.311  0.00  0.00    +0.000 A 
ATOM     21  C   UNL     1       1.107   8.020  21.075  0.00  0.00    +0.000 A 
ATOM     22  C   UNL     1       0.713   9.271  20.575  0.00  0.00    +0.000 A 
BRANCH  17  23
ATOM     23  N   UNL     1       0.640  10.929  18.797  0.00  0.00    +0.000 N 
BRANCH  23  25
ATOM     24  C   UNL     1       2.528  12.395  18.106  0.00  0.00    +0.000 C 
ATOM     25  C   UNL     1       1.472  12.086  19.155  0.00  0.00    +0.000 C 
ENDBRANCH  23  25
BRANCH  23  26
ATOM     26  C   UNL     1      -0.812  11.121  18.616  0.00  0.00    +0.000 C 
ATOM     27  C   UNL     1      -1.431  10.161  17.605  0.00  0.00    +0.000 C 
ENDBRANCH  23  26
ENDBRANCH  17  23
ENDBRANCH   1  20
TORSDOF 5
ENDMDL
MODEL 2
REMARK VINA RESULT:      -8.0      0.290      1.013
REMARK  Name = 
REMARK  8 active torsions:
REMARK  status: ('A' for Active; 'I' for Inactive)
REMARK    1  A    between atoms: C_1  and  C_2
REMARK    2  A    between atoms: C_2  and  N_3
REMARK    3  A    between atoms: N_3  and  C_4
REMARK    4  A    between atoms: N_3  and  C_6
REMARK    5  A    between atoms: C_4  and  C_5
REMARK    6  A    between atoms: C_9  and  N_10
REMARK    7  A    between atoms: C_13  and  C_14
REMARK    8  A    between atoms: C_19  and  C_20
REMARK                            x       y       z     vdW  Elec       q    Type
REMARK                         _______ _______ _______ _____ _____    ______ ____
ROOT
ATOM      1  N   UNL     1       2.314   5.963  20.697  0.00  0.00    +0.000 N 
ATOM      2  C   UNL     1       3.173   5.146  20.038  0.00  0.00    +0.000 A 
ATOM      3  N   UNL     1       4.190   5.509  19.289  0.00  0.00    +0.000 NA
ATOM      4  C   UNL     1       4.672   4.447  18.555  0.00  0.00    +0.000 A 
ATOM      5  C   UNL     1       4.105   3.229  18.860  0.00  0.00    +0.000 A 
ATOM      6  S   UNL     1       2.942   3.432  20.106  0.00  0.00    +0.000 S 
ATOM      7  H   UNL     1       1.585   5.488  21.212  0.00  0.00    +0.000 HD
ENDROOT
BRANCH   4   8
ATOM      8  C   UNL     1       5.693   4.680  17.490  0.00  0.00    +0.000 A 
ATOM      9  S   UNL     1       5.477   4.339  15.830  0.00  0.00    +0.000 S 
ATOM     10  C   UNL     1       7.006   5.037  15.496  0.00  0.00    +0.000 A 
ATOM     11  N   UNL     1       7.472   5.155  14.242  0.00  0.00    +0.000 N 
ATOM     12  N   UNL     1       7.679   5.449  16.538  0.00  0.00    +0.000 NA
ATOM     13  C   UNL     1       6.943   5.241  17.698  0.00  0.00    +0.000 A 
ATOM     14  C   UNL     1       7.584   5.574  18.998  0.00  0.00    +0.000 C 
ATOM     15  H   UNL     1       6.794   5.219  13.493  0.00  0.00    +0.000 HD
ATOM     16  H   UNL     1       8.256   5.791  14.141  0.00  0.00    +0.000 HD
ENDBRANCH   4   8
BRANCH   1  20
ATOM     17  C   UNL     1       0.977   9.819  19.406  0.00  0.00    +0.000 A 
ATOM     18  C   UNL     1       0.741   9.329  20.699  0.00  0.00    +0.000 A 
ATOM     19  C   UNL     1       1.208   8.073  21.111  0.00  0.00    +0.000 A 
ATOM     20  C   UNL     1       1.908   7.235  20.241  0.00  0.00    +0.000 A 
ATOM     21  C   UNL     1       2.171   7.734  18.960  0.00  0.00    +0.000 A 
ATOM     22  C   UNL     1       1.710   8.994  18.548  0.00  0.00    +0.000 A 
BRANCH  17  23
ATOM     23  N   UNL     1       0.528  11.076  18.976  0.00  0.00    +0.000 N 
BRANCH  23  25
ATOM     24  C   UNL     1       1.627  13.190  18.256  0.00  0.00    +0.000 C 
ATOM     25  C   UNL     1       1.306  12.247  19.405  0.00  0.00    +0.000 C 
ENDBRANCH  23  25
BRANCH  23  26
ATOM     26  C   UNL     1      -0.928  11.219  18.779  0.00  0.00    +0.000 C 
ATOM     27  C   UNL     1      -1.500  10.244  17.755  0.00  0.00    +0.000 C 
ENDBRANCH  23  26
ENDBRANCH  17  23
ENDBRANCH   1  20
TORSDOF 5
ENDMDL
MODEL 3
REMARK VINA RESULT:      -7.8      0.373      1.457
REMARK  Name = 
REMARK  8 active torsions:
REMARK  status: ('A' for Active; 'I' for Inactive)
REMARK    1  A    between atoms: C_1  and  C_2
REMARK    2  A    between atoms: C_2  and  N_3
REMARK    3  A    between atoms: N_3  and  C_4
REMARK    4  A    between atoms: N_3  and  C_6
REMARK    5  A    between atoms: C_4  and  C_5
REMARK    6  A    between atoms: C_9  and  N_10
REMARK    7  A    between atoms: C_13  and  C_14
REMARK    8  A    between atoms: C_19  and  C_20
REMARK                            x       y       z     vdW  Elec       q    Type
REMARK                         _______ _______ _______ _____ _____    ______ ____
ROOT
ATOM      1  N   UNL     1       2.260   5.725  20.807  0.00  0.00    +0.000 N 
ATOM      2  C   UNL     1       3.128   4.949  20.111  0.00  0.00    +0.000 A 
ATOM      3  N   UNL     1       4.150   5.356  19.393  0.00  0.00    +0.000 NA
ATOM      4  C   UNL     1       4.643   4.338  18.606  0.00  0.00    +0.000 A 
ATOM      5  C   UNL     1       4.077   3.103  18.838  0.00  0.00    +0.000 A 
ATOM      6  S   UNL     1       2.903   3.232  20.082  0.00  0.00    +0.000 S 
ATOM      7  H   UNL     1       1.528   5.219  21.288  0.00  0.00    +0.000 HD
ENDROOT
BRANCH   4   8
ATOM      8  C   UNL     1       5.672   4.633  17.565  0.00  0.00    +0.000 A 
ATOM      9  S   UNL     1       5.521   4.270  15.902  0.00  0.00    +0.000 S 
ATOM     10  C   UNL     1       7.008   5.067  15.601  0.00  0.00    +0.000 A 
ATOM     11  N   UNL     1       7.496   5.209  14.358  0.00  0.00    +0.000 N 
ATOM     12  N   UNL     1       7.626   5.528  16.657  0.00  0.00    +0.000 NA
ATOM     13  C   UNL     1       6.876   5.278  17.799  0.00  0.00    +0.000 A 
ATOM     14  C   UNL     1       7.460   5.660  19.113  0.00  0.00    +0.000 C 
ATOM     15  H   UNL     1       6.834   5.223  13.592  0.00  0.00    +0.000 HD
ATOM     16  H   UNL     1       8.238   5.896  14.272  0.00  0.00    +0.000 HD
ENDBRANCH   4   8
BRANCH   1  20
ATOM     17  C   UNL     1       1.132   9.653  19.536  0.00  0.00    +0.000 A 
ATOM     18  C   UNL     1       1.846   8.767  18.715  0.00  0.00    +0.000 A 
ATOM     19  C   UNL     1       2.185   7.475  19.141  0.00  0.00    +0.000 A 
ATOM     20  C   UNL     1       1.852   7.019  20.418  0.00  0.00    +0.000 A 
ATOM     21  C   UNL     1       1.114   7.890  21.227  0.00  0.00    +0.000 A 
ATOM     22  C   UNL     1       0.768   9.181  20.799  0.00  0.00    +0.000 A 
BRANCH  17  23
ATOM     23  N   UNL     1       0.774  10.945  19.125  0.00  0.00    +0.000 N 
BRANCH  23  25
ATOM     24  C   UNL     1      -1.246  10.262  17.842  0.00  0.00    +0.000 C 
ATOM     25  C   UNL     1      -0.653  11.199  18.882  0.00  0.00    +0.000 C 
ENDBRANCH  23  25
BRANCH  23  26
ATOM     26  C   UNL     1       1.776  11.682  18.330  0.00  0.00    +0.000 C 
ATOM     27  C   UNL     1       1.599  13.195  18.381  0.00  0.00    +0.000 C 
ENDBRANCH  23  26
ENDBRANCH  17  23
ENDBRANCH   1  20
TORSDOF 5
ENDMDL
MODEL 4
REMARK VINA RESULT:      -7.8      0.477      1.819
REMARK  Name = 
REMARK  8 active torsions:
REMARK  status: ('A' for Active; 'I' for Inactive)
REMARK    1  A    between atoms: C_1  and  C_2
REMARK    2  A    between atoms: C_2  and  N_3
REMARK    3  A    between atoms: N_3  and  C_4
REMARK    4  A    between atoms: N_3  and  C_6
REMARK    5  A    between atoms: C_4  and  C_5
REMARK    6  A    between atoms: C_9  and  N_10
REMARK    7  A    between atoms: C_13  and  C_14
REMARK    8  A    between atoms: C_19  and  C_20
REMARK                            x       y       z     vdW  Elec       q    Type
REMARK                         _______ _______ _______ _____ _____    ______ ____
ROOT
ATOM      1  N   UNL     1       2.239   6.015  20.724  0.00  0.00    +0.000 N 
ATOM      2  C   UNL     1       3.093   5.195  20.060  0.00  0.00    +0.000 A 
ATOM      3  N   UNL     1       4.122   5.554  19.327  0.00  0.00    +0.000 NA
ATOM      4  C   UNL     1       4.596   4.496  18.581  0.00  0.00    +0.000 A 
ATOM      5  C   UNL     1       4.008   3.283  18.862  0.00  0.00    +0.000 A 
ATOM      6  S   UNL     1       2.837   3.484  20.100  0.00  0.00    +0.000 S 
ATOM      7  H   UNL     1       1.499   5.542  21.225  0.00  0.00    +0.000 HD
ENDROOT
BRANCH   4   8
ATOM      8  C   UNL     1       5.629   4.731  17.529  0.00  0.00    +0.000 A 
ATOM      9  S   UNL     1       5.447   4.360  15.871  0.00  0.00    +0.000 S 
ATOM     10  C   UNL     1       6.970   5.080  15.551  0.00  0.00    +0.000 A 
ATOM     11  N   UNL     1       7.454   5.187  14.303  0.00  0.00    +0.000 N 
ATOM     12  N   UNL     1       7.618   5.520  16.598  0.00  0.00    +0.000 NA
ATOM     13  C   UNL     1       6.866   5.318  17.748  0.00  0.00    +0.000 A 
ATOM     14  C   UNL     1       7.479   5.683  19.053  0.00  0.00    +0.000 C 
ATOM     15  H   UNL     1       6.787   5.226  13.542  0.00  0.00    +0.000 HD
ATOM     16  H   UNL     1       8.229   5.835  14.205  0.00  0.00    +0.000 HD
ENDBRANCH   4   8
BRANCH   1  20
ATOM     17  C   UNL     1       0.973   9.910  19.482  0.00  0.00    +0.000 A 
ATOM     18  C   UNL     1       0.749   9.417  20.777  0.00  0.00    +0.000 A 
ATOM     19  C   UNL     1       1.193   8.147  21.172  0.00  0.00    +0.000 A 
ATOM     20  C   UNL     1       1.856   7.299  20.283  0.00  0.00    +0.000 A 
ATOM     21  C   UNL     1       2.108   7.800  19.001  0.00  0.00    +0.000 A 
ATOM     22  C   UNL     1       1.670   9.074  18.607  0.00  0.00    +0.000 A 
BRANCH  17  23
ATOM     23  N   UNL     1       0.547  11.181  19.070  0.00  0.00    +0.000 N 
BRANCH  23  25
ATOM     24  C   UNL     1      -1.836  11.796  19.437  0.00  0.00    +0.000 C 
ATOM     25  C   UNL     1      -0.789  11.275  18.466  0.00  0.00    +0.000 C 
ENDBRANCH  23  25
BRANCH  23  26
ATOM     26  C   UNL     1       1.601  12.111  18.621  0.00  0.00    +0.000 C 
ATOM     27  C   UNL     1       1.414  13.535  19.135  0.00  0.00    +0.000 C 
ENDBRANCH  23  26
ENDBRANCH  17  23
ENDBRANCH   1  20
TORSDOF 5
ENDMDL
MODEL 5
REMARK VINA RESULT:      -6.9      4.003      9.003
REMARK  Name = 
REMARK  8 active torsions:
REMARK  status: ('A' for Active; 'I' for Inactive)
REMARK    1  A    between atoms: C_1  and  C_2
REMARK    2  A    between atoms: C_2  and  N_3
REMARK    3  A    between atoms: N_3  and  C_4
REMARK    4  A    between atoms: N_3  and  C_6
REMARK    5  A    between atoms: C_4  and  C_5
REMARK    6  A    between atoms: C_9  and  N_10
REMARK    7  A    between atoms: C_13  and  C_14
REMARK    8  A    between atoms: C_19  and  C_20
REMARK                            x       y       z     vdW  Elec       q    Type
REMARK                         _______ _______ _______ _____ _____    ______ ____
ROOT
ATOM      1  N   UNL     1       1.074  10.242  20.793  0.00  0.00    +0.000 N 
ATOM      2  C   UNL     1       0.025  11.044  20.479  0.00  0.00    +0.000 A 
ATOM      3  N   UNL     1      -1.102  10.683  19.909  0.00  0.00    +0.000 NA
ATOM      4  C   UNL     1      -1.821  11.780  19.487  0.00  0.00    +0.000 A 
ATOM      5  C   UNL     1      -1.299  12.995  19.871  0.00  0.00    +0.000 A 
ATOM      6  S   UNL     1       0.128  12.744  20.791  0.00  0.00    +0.000 S 
ATOM      7  H   UNL     1       1.859  10.716  21.218  0.00  0.00    +0.000 HD
ENDROOT
BRANCH   4   8
ATOM      8  C   UNL     1      -3.034  11.592  18.636  0.00  0.00    +0.000 A 
ATOM      9  S   UNL     1      -4.590  12.201  18.993  0.00  0.00    +0.000 S 
ATOM     10  C   UNL     1      -5.154  11.626  17.480  0.00  0.00    +0.000 A 
ATOM     11  N   UNL     1      -6.411  11.847  17.062  0.00  0.00    +0.000 N 
ATOM     12  N   UNL     1      -4.279  10.969  16.763  0.00  0.00    +0.000 NA
ATOM     13  C   UNL     1      -3.055  10.929  17.418  0.00  0.00    +0.000 A 
ATOM     14  C   UNL     1      -1.954  10.150  16.790  0.00  0.00    +0.000 C 
ATOM     15  H   UNL     1      -6.888  12.665  17.420  0.00  0.00    +0.000 HD
ATOM     16  H   UNL     1      -6.561  11.683  16.072  0.00  0.00    +0.000 HD
ENDBRANCH   4   8
BRANCH   1  20
ATOM     17  C   UNL     1       2.319   6.750  18.655  0.00  0.00    +0.000 A 
ATOM     18  C   UNL     1       2.037   6.736  20.029  0.00  0.00    +0.000 A 
ATOM     19  C   UNL     1       1.607   7.886  20.708  0.00  0.00    +0.000 A 
ATOM     20  C   UNL     1       1.467   9.109  20.049  0.00  0.00    +0.000 A 
ATOM     21  C   UNL     1       1.717   9.118  18.673  0.00  0.00    +0.000 A 
ATOM     22  C   UNL     1       2.142   7.967  17.992  0.00  0.00    +0.000 A 
BRANCH  17  23
ATOM     23  N   UNL     1       2.740   5.610  17.956  0.00  0.00    +0.000 N 
BRANCH  23  25
ATOM     24  C   UNL     1       2.468   3.225  17.297  0.00  0.00    +0.000 C 
ATOM     25  C   UNL     1       1.908   4.404  18.077  0.00  0.00    +0.000 C 
ENDBRANCH  23  25
BRANCH  23  26
ATOM     26  C   UNL     1       4.197   5.457  17.769  0.00  0.00    +0.000 C 
ATOM     27  C   UNL     1       4.974   5.399  19.081  0.00  0.00    +0.000 C 
ENDBRANCH  23  26
ENDBRANCH  17  23
ENDBRANCH   1  20
TORSDOF 5
ENDMDL
MODEL 6
REMARK VINA RESULT:      -6.9      3.992      8.836
REMARK  Name = 
REMARK  8 active torsions:
REMARK  status: ('A' for Active; 'I' for Inactive)
REMARK    1  A    between atoms: C_1  and  C_2
REMARK    2  A    between atoms: C_2  and  N_3
REMARK    3  A    between atoms: N_3  and  C_4
REMARK    4  A    between atoms: N_3  and  C_6
REMARK    5  A    between atoms: C_4  and  C_5
REMARK    6  A    between atoms: C_9  and  N_10
REMARK    7  A    between atoms: C_13  and  C_14
REMARK    8  A    between atoms: C_19  and  C_20
REMARK                            x       y       z     vdW  Elec       q    Type
REMARK                         _______ _______ _______ _____ _____    ______ ____
ROOT
ATOM      1  N   UNL     1       1.126  10.167  20.833  0.00  0.00    +0.000 N 
ATOM      2  C   UNL     1       0.093  10.980  20.495  0.00  0.00    +0.000 A 
ATOM      3  N   UNL     1      -1.045  10.623  19.945  0.00  0.00    +0.000 NA
ATOM      4  C   UNL     1      -1.743  11.719  19.486  0.00  0.00    +0.000 A 
ATOM      5  C   UNL     1      -1.192  12.936  19.822  0.00  0.00    +0.000 A 
ATOM      6  S   UNL     1       0.235  12.687  20.743  0.00  0.00    +0.000 S 
ATOM      7  H   UNL     1       1.924  10.639  21.235  0.00  0.00    +0.000 HD
ENDROOT
BRANCH   4   8
ATOM      8  C   UNL     1      -2.964  11.527  18.649  0.00  0.00    +0.000 A 
ATOM      9  S   UNL     1      -4.504  12.184  18.992  0.00  0.00    +0.000 S 
ATOM     10  C   UNL     1      -5.090  11.566  17.504  0.00  0.00    +0.000 A 
ATOM     11  N   UNL     1      -6.345  11.799  17.086  0.00  0.00    +0.000 N 
ATOM     12  N   UNL     1      -4.235  10.863  16.808  0.00  0.00    +0.000 NA
ATOM     13  C   UNL     1      -3.008  10.820  17.458  0.00  0.00    +0.000 A 
ATOM     14  C   UNL     1      -1.929   9.993  16.853  0.00  0.00    +0.000 C 
ATOM     15  H   UNL     1      -6.801  12.641  17.415  0.00  0.00    +0.000 HD
ATOM     16  H   UNL     1      -6.505  11.602  16.103  0.00  0.00    +0.000 HD
ENDBRANCH   4   8
BRANCH   1  20
ATOM     17  C   UNL     1       2.277   6.570  18.819  0.00  0.00    +0.000 A 
ATOM     18  C   UNL     1       1.964   6.606  20.186  0.00  0.00    +0.000 A 
ATOM     19  C   UNL     1       1.565   7.790  20.823  0.00  0.00    +0.000 A 
ATOM     20  C   UNL     1       1.489   8.999  20.129  0.00  0.00    +0.000 A 
ATOM     21  C   UNL     1       1.771   8.960  18.759  0.00  0.00    +0.000 A 
ATOM     22  C   UNL     1       2.164   7.774  18.119  0.00  0.00    +0.000 A 
BRANCH  17  23
ATOM     23  N   UNL     1       2.667   5.395  18.161  0.00  0.00    +0.000 N 
BRANCH  23  25
ATOM     24  C   UNL     1       5.150   5.255  18.276  0.00  0.00    +0.000 C 
ATOM     25  C   UNL     1       3.923   5.441  17.398  0.00  0.00    +0.000 C 
ENDBRANCH  23  25
BRANCH  23  26
ATOM     26  C   UNL     1       1.579   4.513  17.694  0.00  0.00    +0.000 C 
ATOM     27  C   UNL     1       1.461   3.220  18.493  0.00  0.00    +0.000 C 
ENDBRANCH  23  26
ENDBRANCH  17  23
ENDBRANCH   1  20
TORSDOF 5
ENDMDL
MODEL 7
REMARK VINA RESULT:      -6.9      3.778      8.712
REMARK  Name = 
REMARK  8 active torsions:
REMARK  status: ('A' for Active; 'I' for Inactive)
REMARK    1  A    between atoms: C_1  and  C_2
REMARK    2  A    between atoms: C_2  and  N_3
REMARK    3  A    between atoms: N_3  and  C_4
REMARK    4  A    between atoms: N_3  and  C_6
REMARK    5  A    between atoms: C_4  and  C_5
REMARK    6  A    between atoms: C_9  and  N_10
REMARK    7  A    between atoms: C_13  and  C_14
REMARK    8  A    between atoms: C_19  and  C_20
REMARK                            x       y       z     vdW  Elec       q    Type
REMARK                         _______ _______ _______ _____ _____    ______ ____
ROOT
ATOM      1  N   UNL     1       0.800   9.801  20.768  0.00  0.00    +0.000 N 
ATOM      2  C   UNL     1      -0.194  10.588  20.284  0.00  0.00    +0.000 A 
ATOM      3  N   UNL     1      -1.118  10.247  19.414  0.00  0.00    +0.000 NA
ATOM      4  C   UNL     1      -1.788  11.354  18.940  0.00  0.00    +0.000 A 
ATOM      5  C   UNL     1      -1.465  12.537  19.566  0.00  0.00    +0.000 A 
ATOM      6  S   UNL     1      -0.294  12.242  20.785  0.00  0.00    +0.000 S 
ATOM      7  H   UNL     1       1.421  10.256  21.423  0.00  0.00    +0.000 HD
ENDROOT
BRANCH   4   8
ATOM      8  C   UNL     1      -2.738  11.215  17.795  0.00  0.00    +0.000 A 
ATOM      9  S   UNL     1      -2.328  10.632  16.242  0.00  0.00    +0.000 S 
ATOM     10  C   UNL     1      -3.977  10.719  15.783  0.00  0.00    +0.000 A 
ATOM     11  N   UNL     1      -4.398  10.309  14.576  0.00  0.00    +0.000 N 
ATOM     12  N   UNL     1      -4.790  11.203  16.686  0.00  0.00    +0.000 NA
ATOM     13  C   UNL     1      -4.092  11.505  17.848  0.00  0.00    +0.000 A 
ATOM     14  C   UNL     1      -4.841  12.145  18.963  0.00  0.00    +0.000 C 
ATOM     15  H   UNL     1      -3.855   9.596  14.106  0.00  0.00    +0.000 HD
ATOM     16  H   UNL     1      -5.402  10.176  14.502  0.00  0.00    +0.000 HD
ENDBRANCH   4   8
BRANCH   1  20
ATOM     17  C   UNL     1       2.704   6.768  18.425  0.00  0.00    +0.000 A 
ATOM     18  C   UNL     1       2.418   8.046  17.922  0.00  0.00    +0.000 A 
ATOM     19  C   UNL     1       1.815   9.034  18.713  0.00  0.00    +0.000 A 
ATOM     20  C   UNL     1       1.444   8.782  20.035  0.00  0.00    +0.000 A 
ATOM     21  C   UNL     1       1.757   7.519  20.548  0.00  0.00    +0.000 A 
ATOM     22  C   UNL     1       2.366   6.531  19.760  0.00  0.00    +0.000 A 
BRANCH  17  23
ATOM     23  N   UNL     1       3.316   5.768  17.655  0.00  0.00    +0.000 N 
BRANCH  23  25
ATOM     24  C   UNL     1       3.743   3.343  18.012  0.00  0.00    +0.000 C 
ATOM     25  C   UNL     1       2.721   4.425  17.706  0.00  0.00    +0.000 C 
ENDBRANCH  23  25
BRANCH  23  26
ATOM     26  C   UNL     1       4.772   5.897  17.451  0.00  0.00    +0.000 C 
ATOM     27  C   UNL     1       5.152   6.329  16.039  0.00  0.00    +0.000 C 
ENDBRANCH  23  26
ENDBRANCH  17  23
ENDBRANCH   1  20
TORSDOF 5
ENDMDL
MODEL 8
REMARK VINA RESULT:      -6.9      3.616      8.726
REMARK  Name = 
REMARK  8 active torsions:
REMARK  status: ('A' for Active; 'I' for Inactive)
REMARK    1  A    between atoms: C_1  and  C_2
REMARK    2  A    between atoms: C_2  and  N_3
REMARK    3  A    between atoms: N_3  and  C_4
REMARK    4  A    between atoms: N_3  and  C_6
REMARK    5  A    between atoms: C_4  and  C_5
REMARK    6  A    between atoms: C_9  and  N_10
REMARK    7  A    between atoms: C_13  and  C_14
REMARK    8  A    between atoms: C_19  and  C_20
REMARK                            x       y       z     vdW  Elec       q    Type
REMARK                         _______ _______ _______ _____ _____    ______ ____
ROOT
ATOM      1  N   UNL     1       1.188   9.319  20.967  0.00  0.00    +0.000 N 
ATOM      2  C   UNL     1       0.290  10.231  20.517  0.00  0.00    +0.000 A 
ATOM      3  N   UNL     1      -0.747  10.003  19.744  0.00  0.00    +0.000 NA
ATOM      4  C   UNL     1      -1.275  11.180  19.260  0.00  0.00    +0.000 A 
ATOM      5  C   UNL     1      -0.720  12.324  19.790  0.00  0.00    +0.000 A 
ATOM      6  S   UNL     1       0.492  11.900  20.929  0.00  0.00    +0.000 S 
ATOM      7  H   UNL     1       1.927   9.697  21.544  0.00  0.00    +0.000 HD
ENDROOT
BRANCH   4   8
ATOM      8  C   UNL     1      -2.330  11.144  18.203  0.00  0.00    +0.000 A 
ATOM      9  S   UNL     1      -2.126  10.505  16.632  0.00  0.00    +0.000 S 
ATOM     10  C   UNL     1      -3.788  10.779  16.313  0.00  0.00    +0.000 A 
ATOM     11  N   UNL     1      -4.356  10.411  15.153  0.00  0.00    +0.000 N 
ATOM     12  N   UNL     1      -4.459  11.361  17.273  0.00  0.00    +0.000 NA
ATOM     13  C   UNL     1      -3.632  11.589  18.366  0.00  0.00    +0.000 A 
ATOM     14  C   UNL     1      -4.203  12.321  19.528  0.00  0.00    +0.000 C 
ATOM     15  H   UNL     1      -3.941   9.636  14.652  0.00  0.00    +0.000 HD
ATOM     16  H   UNL     1      -5.371  10.395  15.167  0.00  0.00    +0.000 HD
ENDBRANCH   4   8
BRANCH   1  20
ATOM     17  C   UNL     1       2.466   5.795  18.901  0.00  0.00    +0.000 A 
ATOM     18  C   UNL     1       1.947   5.762  20.204  0.00  0.00    +0.000 A 
ATOM     19  C   UNL     1       1.511   6.926  20.855  0.00  0.00    +0.000 A 
ATOM     20  C   UNL     1       1.601   8.178  20.245  0.00  0.00    +0.000 A 
ATOM     21  C   UNL     1       2.089   8.208  18.934  0.00  0.00    +0.000 A 
ATOM     22  C   UNL     1       2.520   7.044  18.279  0.00  0.00    +0.000 A 
BRANCH  17  23
ATOM     23  N   UNL     1       2.897   4.643  18.228  0.00  0.00    +0.000 N 
BRANCH  23  25
ATOM     24  C   UNL     1       2.731   2.209  17.733  0.00  0.00    +0.000 C 
ATOM     25  C   UNL     1       2.207   3.384  18.544  0.00  0.00    +0.000 C 
ENDBRANCH  23  25
BRANCH  23  26
ATOM     26  C   UNL     1       4.324   4.600  17.851  0.00  0.00    +0.000 C 
ATOM     27  C   UNL     1       5.269   4.634  19.048  0.00  0.00    +0.000 C 
ENDBRANCH  23  26
ENDBRANCH  17  23
ENDBRANCH   1  20
TORSDOF 5
ENDMDL
MODEL 9
REMARK VINA RESULT:      -6.9      3.604      8.586
REMARK  Name = 
REMARK  8 active torsions:
REMARK  status: ('A' for Active; 'I' for Inactive)
REMARK    1  A    between atoms: C_1  and  C_2
REMARK    2  A    between atoms: C_2  and  N_3
REMARK    3  A    between atoms: N_3  and  C_4
REMARK    4  A    between atoms: N_3  and  C_6
REMARK    5  A    between atoms: C_4  and  C_5
REMARK    6  A    between atoms: C_9  and  N_10
REMARK    7  A    between atoms: C_13  and  C_14
REMARK    8  A    between atoms: C_19  and  C_20
REMARK                            x       y       z     vdW  Elec       q    Type
REMARK                         _______ _______ _______ _____ _____    ______ ____
ROOT
ATOM      1  N   UNL     1       1.217   9.340  20.931  0.00  0.00    +0.000 N 
ATOM      2  C   UNL     1       0.319  10.253  20.482  0.00  0.00    +0.000 A 
ATOM      3  N   UNL     1      -0.728  10.023  19.721  0.00  0.00    +0.000 NA
ATOM      4  C   UNL     1      -1.255  11.197  19.231  0.00  0.00    +0.000 A 
ATOM      5  C   UNL     1      -0.689  12.343  19.744  0.00  0.00    +0.000 A 
ATOM      6  S   UNL     1       0.533  11.925  20.874  0.00  0.00    +0.000 S 
ATOM      7  H   UNL     1       1.963   9.721  21.497  0.00  0.00    +0.000 HD
ENDROOT
BRANCH   4   8
ATOM      8  C   UNL     1      -2.321  11.155  18.186  0.00  0.00    +0.000 A 
ATOM      9  S   UNL     1      -2.131  10.518  16.612  0.00  0.00    +0.000 S 
ATOM     10  C   UNL     1      -3.798  10.784  16.311  0.00  0.00    +0.000 A 
ATOM     11  N   UNL     1      -4.377  10.413  15.158  0.00  0.00    +0.000 N 
ATOM     12  N   UNL     1      -4.461  11.362  17.279  0.00  0.00    +0.000 NA
ATOM     13  C   UNL     1      -3.624  11.594  18.363  0.00  0.00    +0.000 A 
ATOM     14  C   UNL     1      -4.186  12.322  19.532  0.00  0.00    +0.000 C 
ATOM     15  H   UNL     1      -3.963   9.640  14.652  0.00  0.00    +0.000 HD
ATOM     16  H   UNL     1      -5.391  10.392  15.183  0.00  0.00    +0.000 HD
ENDBRANCH   4   8
BRANCH   1  20
ATOM     17  C   UNL     1       2.453   5.789  18.887  0.00  0.00    +0.000 A 
ATOM     18  C   UNL     1       1.929   5.770  20.188  0.00  0.00    +0.000 A 
ATOM     19  C   UNL     1       1.507   6.942  20.832  0.00  0.00    +0.000 A 
ATOM     20  C   UNL     1       1.616   8.190  20.216  0.00  0.00    +0.000 A 
ATOM     21  C   UNL     1       2.110   8.208  18.907  0.00  0.00    +0.000 A 
ATOM     22  C   UNL     1       2.526   7.035  18.259  0.00  0.00    +0.000 A 
BRANCH  17  23
ATOM     23  N   UNL     1       2.871   4.628  18.221  0.00  0.00    +0.000 N 
BRANCH  23  25
ATOM     24  C   UNL     1       5.354   4.465  18.294  0.00  0.00    +0.000 C 
ATOM     25  C   UNL     1       4.117   4.713  17.445  0.00  0.00    +0.000 C 
ENDBRANCH  23  25
BRANCH  23  26
ATOM     26  C   UNL     1       1.805   3.716  17.762  0.00  0.00    +0.000 C 
ATOM     27  C   UNL     1       1.739   2.413  18.553  0.00  0.00    +0.000 C 
ENDBRANCH  23  26
ENDBRANCH  17  23
ENDBRANCH   1  20
TORSDOF 5
ENDMDL
