MODEL 1
REMARK VINA RESULT:      -7.9      0.000      0.000
REMARK  Name = 
REMARK  9 active torsions:
REMARK  status: ('A' for Active; 'I' for Inactive)
REMARK    1  A    between atoms: C_1  and  C_2
REMARK    2  A    between atoms: C_4  and  C_5
REMARK    3  A    between atoms: C_13  and  C_14
REMARK    4  A    between atoms: C_14  and  O_15
REMARK    5  A    between atoms: O_15  and  C_16
REMARK    6  A    between atoms: C_19  and  S_20
REMARK    7  A    between atoms: S_20  and  C_23
REMARK    8  A    between atoms: C_23  and  C_24
REMARK    9  A    between atoms: C_24  and  O_26
REMARK                            x       y       z     vdW  Elec       q    Type
REMARK                         _______ _______ _______ _____ _____    ______ ____
ROOT
ATOM      1  O   UNL     1       1.420   8.916  18.999  0.00  0.00    +0.000 OA
ENDROOT
BRANCH   1   2
ATOM      2  C   UNL     1       2.341   7.937  18.748  0.00  0.00    +0.000 A 
ATOM      3  C   UNL     1       2.372   6.919  19.704  0.00  0.00    +0.000 A 
ATOM      4  C   UNL     1       3.239   5.836  19.571  0.00  0.00    +0.000 A 
ATOM      5  C   UNL     1       4.062   5.750  18.454  0.00  0.00    +0.000 A 
ATOM      6  C   UNL     1       4.061   6.760  17.490  0.00  0.00    +0.000 A 
ATOM      7  C   UNL     1       3.192   7.855  17.639  0.00  0.00    +0.000 A 
BRANCH   5   8
ATOM      8  S   UNL     1       5.113   4.326  18.327  0.00  0.00    +0.000 S 
ATOM      9  O   UNL     1       6.215   4.480  19.257  0.00  0.00    +0.000 OA
ATOM     10  O   UNL     1       4.251   3.166  18.394  0.00  0.00    +0.000 OA
BRANCH   8  11
ATOM     11  C   UNL     1       5.808   4.382  16.708  0.00  0.00    +0.000 C 
BRANCH  11  12
ATOM     12  C   UNL     1       7.176   4.961  16.761  0.00  0.00    +0.000 C 
ATOM     13  O   UNL     1       7.477   6.037  16.275  0.00  0.00    +0.000 OA
BRANCH  12  14
ATOM     14  O   UNL     1       8.108   4.147  17.309  0.00  0.00    +0.000 OA
ATOM     15  H   UNL     1       8.239   3.281  16.855  0.00  0.00    +0.000 HD
ENDBRANCH  12  14
ENDBRANCH  11  12
ENDBRANCH   8  11
ENDBRANCH   5   8
ENDBRANCH   1   2
BRANCH   1  16
ATOM     16  C   UNL     1       0.829   9.564  17.874  0.00  0.00    +0.000 C 
BRANCH  16  22
ATOM     17  C   UNL     1       0.603  11.586  20.448  0.00  0.00    +0.000 C 
ATOM     18  C   UNL     1      -0.446  11.233  19.457  0.00  0.00    +0.000 A 
ATOM     19  N   UNL     1      -1.687  11.835  19.603  0.00  0.00    +0.000 NA
ATOM     20  C   UNL     1      -2.521  11.420  18.673  0.00  0.00    +0.000 A 
ATOM     21  S   UNL     1      -1.853  10.270  17.581  0.00  0.00    +0.000 S 
ATOM     22  C   UNL     1      -0.338  10.359  18.385  0.00  0.00    +0.000 A 
BRANCH  20  23
ATOM     23  C   UNL     1      -3.929  11.840  18.575  0.00  0.00    +0.000 A 
ATOM     24  C   UNL     1      -4.682  11.647  17.402  0.00  0.00    +0.000 A 
ATOM     25  C   UNL     1      -6.023  12.030  17.345  0.00  0.00    +0.000 A 
ATOM     26  C   UNL     1      -6.618  12.617  18.454  0.00  0.00    +0.000 A 
ATOM     27  F   UNL     1      -7.908  12.972  18.399  0.00  0.00    +0.000 F 
ATOM     28  C   UNL     1      -5.897  12.829  19.623  0.00  0.00    +0.000 A 
ATOM     29  C   UNL     1      -4.554  12.443  19.681  0.00  0.00    +0.000 A 
ENDBRANCH  20  23
ENDBRANCH  16  22
ENDBRANCH   1  16
TORSDOF 8
ENDMDL
MODEL 2
REMARK VINA RESULT:      -7.8      1.256      2.293
REMARK  Name = 
REMARK  9 active torsions:
REMARK  status: ('A' for Active; 'I' for Inactive)
REMARK    1  A    between atoms: C_1  and  C_2
REMARK    2  A    between atoms: C_4  and  C_5
REMARK    3  A    between atoms: C_13  and  C_14
REMARK    4  A    between atoms: C_14  and  O_15
REMARK    5  A    between atoms: O_15  and  C_16
REMARK    6  A    between atoms: C_19  and  S_20
REMARK    7  A    between atoms: S_20  and  C_23
REMARK    8  A    between atoms: C_23  and  C_24
REMARK    9  A    between atoms: C_24  and  O_26
REMARK                            x       y       z     vdW  Elec       q    Type
REMARK                         _______ _______ _______ _____ _____    ______ ____
ROOT
ATOM      1  O   UNL     1       1.518   8.779  19.268  0.00  0.00    +0.000 OA
ENDROOT
BRANCH   1   2
ATOM      2  C   UNL     1       2.354   7.752  18.929  0.00  0.00    +0.000 A 
ATOM      3  C   UNL     1       2.327   6.673  19.817  0.00  0.00    +0.000 A 
ATOM      4  C   UNL     1       3.104   5.538  19.591  0.00  0.00    +0.000 A 
ATOM      5  C   UNL     1       3.892   5.464  18.448  0.00  0.00    +0.000 A 
ATOM      6  C   UNL     1       3.947   6.533  17.552  0.00  0.00    +0.000 A 
ATOM      7  C   UNL     1       3.170   7.679  17.795  0.00  0.00    +0.000 A 
BRANCH   5   8
ATOM      8  S   UNL     1       4.826   3.976  18.200  0.00  0.00    +0.000 S 
ATOM      9  O   UNL     1       5.883   4.247  17.245  0.00  0.00    +0.000 OA
ATOM     10  O   UNL     1       5.137   3.456  19.514  0.00  0.00    +0.000 OA
BRANCH   8  11
ATOM     11  C   UNL     1       3.724   2.839  17.424  0.00  0.00    +0.000 C 
BRANCH  11  12
ATOM     12  C   UNL     1       3.340   1.768  18.381  0.00  0.00    +0.000 C 
ATOM     13  O   UNL     1       2.332   1.797  19.064  0.00  0.00    +0.000 OA
BRANCH  12  14
ATOM     14  O   UNL     1       4.260   0.784  18.520  0.00  0.00    +0.000 OA
ATOM     15  H   UNL     1       4.219   0.278  19.366  0.00  0.00    +0.000 HD
ENDBRANCH  12  14
ENDBRANCH  11  12
ENDBRANCH   8  11
ENDBRANCH   5   8
ENDBRANCH   1   2
BRANCH   1  16
ATOM     16  C   UNL     1       1.241   9.757  18.268  0.00  0.00    +0.000 C 
BRANCH  16  22
ATOM     17  C   UNL     1       0.719  11.769  20.807  0.00  0.00    +0.000 C 
ATOM     18  C   UNL     1      -0.236  11.353  19.747  0.00  0.00    +0.000 A 
ATOM     19  N   UNL     1      -1.518  11.880  19.803  0.00  0.00    +0.000 NA
ATOM     20  C   UNL     1      -2.259  11.415  18.820  0.00  0.00    +0.000 A 
ATOM     21  S   UNL     1      -1.450  10.303  17.785  0.00  0.00    +0.000 S 
ATOM     22  C   UNL     1      -0.003  10.483  18.691  0.00  0.00    +0.000 A 
BRANCH  20  23
ATOM     23  C   UNL     1      -3.679  11.750  18.621  0.00  0.00    +0.000 A 
ATOM     24  C   UNL     1      -4.440  12.382  19.622  0.00  0.00    +0.000 A 
ATOM     25  C   UNL     1      -5.778  12.713  19.397  0.00  0.00    +0.000 A 
ATOM     26  C   UNL     1      -6.367  12.406  18.178  0.00  0.00    +0.000 A 
ATOM     27  F   UNL     1      -7.647  12.736  17.962  0.00  0.00    +0.000 F 
ATOM     28  C   UNL     1      -5.642  11.773  17.175  0.00  0.00    +0.000 A 
ATOM     29  C   UNL     1      -4.302  11.444  17.398  0.00  0.00    +0.000 A 
ENDBRANCH  20  23
ENDBRANCH  16  22
ENDBRANCH   1  16
TORSDOF 8
ENDMDL
MODEL 3
REMARK VINA RESULT:      -7.7      3.374      4.318
REMARK  Name = 
REMARK  9 active torsions:
REMARK  status: ('A' for Active; 'I' for Inactive)
REMARK    1  A    between atoms: C_1  and  C_2
REMARK    2  A    between atoms: C_4  and  C_5
REMARK    3  A    between atoms: C_13  and  C_14
REMARK    4  A    between atoms: C_14  and  O_15
REMARK    5  A    between atoms: O_15  and  C_16
REMARK    6  A    between atoms: C_19  and  S_20
REMARK    7  A    between atoms: S_20  and  C_23
REMARK    8  A    between atoms: C_23  and  C_24
REMARK    9  A    between atoms: C_24  and  O_26
REMARK                            x       y       z     vdW  Elec       q    Type
REMARK                         _______ _______ _______ _____ _____    ______ ____
ROOT
ATOM      1  O   UNL     1       2.321   8.596  18.840  0.00  0.00    +0.000 OA
ENDROOT
BRANCH   1   2
ATOM      2  C   UNL     1       2.162   7.271  19.140  0.00  0.00    +0.000 A 
ATOM      3  C   UNL     1       2.325   6.412  18.049  0.00  0.00    +0.000 A 
ATOM      4  C   UNL     1       2.222   5.031  18.202  0.00  0.00    +0.000 A 
ATOM      5  C   UNL     1       1.986   4.497  19.464  0.00  0.00    +0.000 A 
ATOM      6  C   UNL     1       1.807   5.333  20.568  0.00  0.00    +0.000 A 
ATOM      7  C   UNL     1       1.899   6.726  20.402  0.00  0.00    +0.000 A 
BRANCH   5   8
ATOM      8  S   UNL     1       1.906   2.730  19.596  0.00  0.00    +0.000 S 
ATOM      9  O   UNL     1       1.931   2.369  21.000  0.00  0.00    +0.000 OA
ATOM     10  O   UNL     1       0.819   2.298  18.745  0.00  0.00    +0.000 OA
BRANCH   8  11
ATOM     11  C   UNL     1       3.406   2.124  18.894  0.00  0.00    +0.000 C 
BRANCH  11  12
ATOM     12  C   UNL     1       4.568   2.597  19.691  0.00  0.00    +0.000 C 
ATOM     13  O   UNL     1       5.241   3.570  19.400  0.00  0.00    +0.000 OA
BRANCH  12  14
ATOM     14  O   UNL     1       4.898   1.794  20.731  0.00  0.00    +0.000 OA
ATOM     15  H   UNL     1       5.852   1.792  20.982  0.00  0.00    +0.000 HD
ENDBRANCH  12  14
ENDBRANCH  11  12
ENDBRANCH   8  11
ENDBRANCH   5   8
ENDBRANCH   1   2
BRANCH   1  16
ATOM     16  C   UNL     1       1.425   9.164  17.887  0.00  0.00    +0.000 C 
BRANCH  16  22
ATOM     17  C   UNL     1      -1.691   9.959  17.234  0.00  0.00    +0.000 C 
ATOM     18  C   UNL     1      -0.859  10.364  18.396  0.00  0.00    +0.000 A 
ATOM     19  N   UNL     1      -1.456  11.168  19.356  0.00  0.00    +0.000 NA
ATOM     20  C   UNL     1      -0.605  11.464  20.315  0.00  0.00    +0.000 A 
ATOM     21  S   UNL     1       0.967  10.798  20.100  0.00  0.00    +0.000 S 
ATOM     22  C   UNL     1       0.465  10.034  18.646  0.00  0.00    +0.000 A 
BRANCH  20  23
ATOM     23  C   UNL     1      -0.916  12.333  21.462  0.00  0.00    +0.000 A 
ATOM     24  C   UNL     1      -0.210  13.525  21.705  0.00  0.00    +0.000 A 
ATOM     25  C   UNL     1      -0.544  14.344  22.785  0.00  0.00    +0.000 A 
ATOM     26  C   UNL     1      -1.577  13.974  23.635  0.00  0.00    +0.000 A 
ATOM     27  F   UNL     1      -1.903  14.768  24.662  0.00  0.00    +0.000 F 
ATOM     28  C   UNL     1      -2.287  12.797  23.425  0.00  0.00    +0.000 A 
ATOM     29  C   UNL     1      -1.954  11.978  22.342  0.00  0.00    +0.000 A 
ENDBRANCH  20  23
ENDBRANCH  16  22
ENDBRANCH   1  16
TORSDOF 8
ENDMDL
MODEL 4
REMARK VINA RESULT:      -7.7      2.178      2.591
REMARK  Name = 
REMARK  9 active torsions:
REMARK  status: ('A' for Active; 'I' for Inactive)
REMARK    1  A    between atoms: C_1  and  C_2
REMARK    2  A    between atoms: C_4  and  C_5
REMARK    3  A    between atoms: C_13  and  C_14
REMARK    4  A    between atoms: C_14  and  O_15
REMARK    5  A    between atoms: O_15  and  C_16
REMARK    6  A    between atoms: C_19  and  S_20
REMARK    7  A    between atoms: S_20  and  C_23
REMARK    8  A    between atoms: C_23  and  C_24
REMARK    9  A    between atoms: C_24  and  O_26
REMARK                            x       y       z     vdW  Elec       q    Type
REMARK                         _______ _______ _______ _____ _____    ______ ____
ROOT
ATOM      1  O   UNL     1       1.534   8.830  19.262  0.00  0.00    +0.000 OA
ENDROOT
BRANCH   1   2
ATOM      2  C   UNL     1       2.386   7.827  18.889  0.00  0.00    +0.000 A 
ATOM      3  C   UNL     1       2.439   6.756  19.786  0.00  0.00    +0.000 A 
ATOM      4  C   UNL     1       3.240   5.645  19.529  0.00  0.00    +0.000 A 
ATOM      5  C   UNL     1       3.972   5.586  18.349  0.00  0.00    +0.000 A 
ATOM      6  C   UNL     1       3.947   6.647  17.443  0.00  0.00    +0.000 A 
ATOM      7  C   UNL     1       3.146   7.770  17.716  0.00  0.00    +0.000 A 
BRANCH   5   8
ATOM      8  S   UNL     1       4.941   4.126  18.066  0.00  0.00    +0.000 S 
ATOM      9  O   UNL     1       5.763   3.883  19.236  0.00  0.00    +0.000 OA
ATOM     10  O   UNL     1       4.031   3.111  17.583  0.00  0.00    +0.000 OA
BRANCH   8  11
ATOM     11  C   UNL     1       6.043   4.526  16.750  0.00  0.00    +0.000 C 
BRANCH  11  12
ATOM     12  C   UNL     1       7.334   5.019  17.298  0.00  0.00    +0.000 C 
ATOM     13  O   UNL     1       7.654   6.194  17.328  0.00  0.00    +0.000 OA
BRANCH  12  14
ATOM     14  O   UNL     1       8.191   4.043  17.679  0.00  0.00    +0.000 OA
ATOM     15  H   UNL     1       7.801   3.139  17.756  0.00  0.00    +0.000 HD
ENDBRANCH  12  14
ENDBRANCH  11  12
ENDBRANCH   8  11
ENDBRANCH   5   8
ENDBRANCH   1   2
BRANCH   1  16
ATOM     16  C   UNL     1       1.562  10.032  18.495  0.00  0.00    +0.000 C 
BRANCH  16  22
ATOM     17  C   UNL     1       1.521  13.312  18.388  0.00  0.00    +0.000 C 
ATOM     18  C   UNL     1       0.613  12.401  19.132  0.00  0.00    +0.000 A 
ATOM     19  N   UNL     1      -0.404  12.984  19.874  0.00  0.00    +0.000 NA
ATOM     20  C   UNL     1      -1.117  12.067  20.493  0.00  0.00    +0.000 A 
ATOM     21  S   UNL     1      -0.586  10.452  20.224  0.00  0.00    +0.000 S 
ATOM     22  C   UNL     1       0.658  11.015  19.183  0.00  0.00    +0.000 A 
BRANCH  20  23
ATOM     23  C   UNL     1      -2.245  12.361  21.392  0.00  0.00    +0.000 A 
ATOM     24  C   UNL     1      -3.445  12.924  20.919  0.00  0.00    +0.000 A 
ATOM     25  C   UNL     1      -4.509  13.168  21.789  0.00  0.00    +0.000 A 
ATOM     26  C   UNL     1      -4.379  12.862  23.137  0.00  0.00    +0.000 A 
ATOM     27  F   UNL     1      -5.407  13.086  23.966  0.00  0.00    +0.000 F 
ATOM     28  C   UNL     1      -3.203  12.315  23.635  0.00  0.00    +0.000 A 
ATOM     29  C   UNL     1      -2.138  12.068  22.763  0.00  0.00    +0.000 A 
ENDBRANCH  20  23
ENDBRANCH  16  22
ENDBRANCH   1  16
TORSDOF 8
ENDMDL
MODEL 5
REMARK VINA RESULT:      -7.6      5.138     10.613
REMARK  Name = 
REMARK  9 active torsions:
REMARK  status: ('A' for Active; 'I' for Inactive)
REMARK    1  A    between atoms: C_1  and  C_2
REMARK    2  A    between atoms: C_4  and  C_5
REMARK    3  A    between atoms: C_13  and  C_14
REMARK    4  A    between atoms: C_14  and  O_15
REMARK    5  A    between atoms: O_15  and  C_16
REMARK    6  A    between atoms: C_19  and  S_20
REMARK    7  A    between atoms: S_20  and  C_23
REMARK    8  A    between atoms: C_23  and  C_24
REMARK    9  A    between atoms: C_24  and  O_26
REMARK                            x       y       z     vdW  Elec       q    Type
REMARK                         _______ _______ _______ _____ _____    ______ ____
ROOT
ATOM      1  O   UNL     1       2.441   6.172  19.306  0.00  0.00    +0.000 OA
ENDROOT
BRANCH   1   2
ATOM      2  C   UNL     1       1.976   7.437  19.534  0.00  0.00    +0.000 A 
ATOM      3  C   UNL     1       2.042   8.283  18.423  0.00  0.00    +0.000 A 
ATOM      4  C   UNL     1       1.579   9.595  18.491  0.00  0.00    +0.000 A 
ATOM      5  C   UNL     1       1.011  10.061  19.671  0.00  0.00    +0.000 A 
ATOM      6  C   UNL     1       0.944   9.242  20.800  0.00  0.00    +0.000 A 
ATOM      7  C   UNL     1       1.426   7.923  20.726  0.00  0.00    +0.000 A 
BRANCH   5   8
ATOM      8  S   UNL     1       0.405  11.728  19.678  0.00  0.00    +0.000 S 
ATOM      9  O   UNL     1       0.576  12.277  21.010  0.00  0.00    +0.000 OA
ATOM     10  O   UNL     1       0.989  12.388  18.530  0.00  0.00    +0.000 OA
BRANCH   8  11
ATOM     11  C   UNL     1      -1.332  11.612  19.400  0.00  0.00    +0.000 C 
BRANCH  11  12
ATOM     12  C   UNL     1      -1.601  11.339  17.964  0.00  0.00    +0.000 C 
ATOM     13  O   UNL     1      -1.811  10.228  17.511  0.00  0.00    +0.000 OA
BRANCH  12  14
ATOM     14  O   UNL     1      -1.493  12.422  17.158  0.00  0.00    +0.000 OA
ATOM     15  H   UNL     1      -1.606  13.296  17.601  0.00  0.00    +0.000 HD
ENDBRANCH  12  14
ENDBRANCH  11  12
ENDBRANCH   8  11
ENDBRANCH   5   8
ENDBRANCH   1   2
BRANCH   1  16
ATOM     16  C   UNL     1       3.840   5.948  19.471  0.00  0.00    +0.000 C 
BRANCH  16  22
ATOM     17  C   UNL     1       3.656   2.724  18.885  0.00  0.00    +0.000 C 
ATOM     18  C   UNL     1       4.214   3.791  18.014  0.00  0.00    +0.000 A 
ATOM     19  N   UNL     1       4.714   3.406  16.778  0.00  0.00    +0.000 NA
ATOM     20  C   UNL     1       5.190   4.443  16.123  0.00  0.00    +0.000 A 
ATOM     21  S   UNL     1       5.073   5.936  16.970  0.00  0.00    +0.000 S 
ATOM     22  C   UNL     1       4.302   5.149  18.287  0.00  0.00    +0.000 A 
BRANCH  20  23
ATOM     23  C   UNL     1       5.827   4.365  14.797  0.00  0.00    +0.000 A 
ATOM     24  C   UNL     1       5.275   3.603  13.751  0.00  0.00    +0.000 A 
ATOM     25  C   UNL     1       5.886   3.568  12.496  0.00  0.00    +0.000 A 
ATOM     26  C   UNL     1       7.057   4.283  12.281  0.00  0.00    +0.000 A 
ATOM     27  F   UNL     1       7.633   4.256  11.072  0.00  0.00    +0.000 F 
ATOM     28  C   UNL     1       7.630   5.036  13.298  0.00  0.00    +0.000 A 
ATOM     29  C   UNL     1       7.018   5.074  14.554  0.00  0.00    +0.000 A 
ENDBRANCH  20  23
ENDBRANCH  16  22
ENDBRANCH   1  16
TORSDOF 8
ENDMDL
MODEL 6
REMARK VINA RESULT:      -7.6      1.502      2.450
REMARK  Name = 
REMARK  9 active torsions:
REMARK  status: ('A' for Active; 'I' for Inactive)
REMARK    1  A    between atoms: C_1  and  C_2
REMARK    2  A    between atoms: C_4  and  C_5
REMARK    3  A    between atoms: C_13  and  C_14
REMARK    4  A    between atoms: C_14  and  O_15
REMARK    5  A    between atoms: O_15  and  C_16
REMARK    6  A    between atoms: C_19  and  S_20
REMARK    7  A    between atoms: S_20  and  C_23
REMARK    8  A    between atoms: C_23  and  C_24
REMARK    9  A    between atoms: C_24  and  O_26
REMARK                            x       y       z     vdW  Elec       q    Type
REMARK                         _______ _______ _______ _____ _____    ______ ____
ROOT
ATOM      1  O   UNL     1       1.387   8.733  19.628  0.00  0.00    +0.000 OA
ENDROOT
BRANCH   1   2
ATOM      2  C   UNL     1       2.142   7.607  19.448  0.00  0.00    +0.000 A 
ATOM      3  C   UNL     1       1.935   6.617  20.412  0.00  0.00    +0.000 A 
ATOM      4  C   UNL     1       2.611   5.400  20.347  0.00  0.00    +0.000 A 
ATOM      5  C   UNL     1       3.481   5.154  19.291  0.00  0.00    +0.000 A 
ATOM      6  C   UNL     1       3.716   6.131  18.322  0.00  0.00    +0.000 A 
ATOM      7  C   UNL     1       3.039   7.361  18.402  0.00  0.00    +0.000 A 
BRANCH   5   8
ATOM      8  S   UNL     1       4.279   3.571  19.247  0.00  0.00    +0.000 S 
ATOM      9  O   UNL     1       5.709   3.777  19.117  0.00  0.00    +0.000 OA
ATOM     10  O   UNL     1       3.743   2.804  20.352  0.00  0.00    +0.000 OA
BRANCH   8  11
ATOM     11  C   UNL     1       3.743   2.801  17.754  0.00  0.00    +0.000 C 
BRANCH  11  12
ATOM     12  C   UNL     1       2.259   2.730  17.722  0.00  0.00    +0.000 C 
ATOM     13  O   UNL     1       1.552   3.540  17.149  0.00  0.00    +0.000 OA
BRANCH  12  14
ATOM     14  O   UNL     1       1.729   1.738  18.476  0.00  0.00    +0.000 OA
ATOM     15  H   UNL     1       2.001   1.731  19.425  0.00  0.00    +0.000 HD
ENDBRANCH  12  14
ENDBRANCH  11  12
ENDBRANCH   8  11
ENDBRANCH   5   8
ENDBRANCH   1   2
BRANCH   1  16
ATOM     16  C   UNL     1       1.172   9.566  18.490  0.00  0.00    +0.000 C 
BRANCH  16  22
ATOM     17  C   UNL     1       0.744  12.027  20.618  0.00  0.00    +0.000 C 
ATOM     18  C   UNL     1      -0.235  11.457  19.657  0.00  0.00    +0.000 A 
ATOM     19  N   UNL     1      -1.497  12.031  19.619  0.00  0.00    +0.000 NA
ATOM     20  C   UNL     1      -2.264  11.420  18.741  0.00  0.00    +0.000 A 
ATOM     21  S   UNL     1      -1.504  10.109  17.925  0.00  0.00    +0.000 S 
ATOM     22  C   UNL     1      -0.043  10.401  18.778  0.00  0.00    +0.000 A 
BRANCH  20  23
ATOM     23  C   UNL     1      -3.673  11.763  18.489  0.00  0.00    +0.000 A 
ATOM     24  C   UNL     1      -4.495  12.313  19.490  0.00  0.00    +0.000 A 
ATOM     25  C   UNL     1      -5.821  12.654  19.217  0.00  0.00    +0.000 A 
ATOM     26  C   UNL     1      -6.338  12.439  17.947  0.00  0.00    +0.000 A 
ATOM     27  F   UNL     1      -7.607  12.779  17.685  0.00  0.00    +0.000 F 
ATOM     28  C   UNL     1      -5.553  11.889  16.940  0.00  0.00    +0.000 A 
ATOM     29  C   UNL     1      -4.225  11.549  17.213  0.00  0.00    +0.000 A 
ENDBRANCH  20  23
ENDBRANCH  16  22
ENDBRANCH   1  16
TORSDOF 8
ENDMDL
MODEL 7
REMARK VINA RESULT:      -7.6      2.634      3.416
REMARK  Name = 
REMARK  9 active torsions:
REMARK  status: ('A' for Active; 'I' for Inactive)
REMARK    1  A    between atoms: C_1  and  C_2
REMARK    2  A    between atoms: C_4  and  C_5
REMARK    3  A    between atoms: C_13  and  C_14
REMARK    4  A    between atoms: C_14  and  O_15
REMARK    5  A    between atoms: O_15  and  C_16
REMARK    6  A    between atoms: C_19  and  S_20
REMARK    7  A    between atoms: S_20  and  C_23
REMARK    8  A    between atoms: C_23  and  C_24
REMARK    9  A    between atoms: C_24  and  O_26
REMARK                            x       y       z     vdW  Elec       q    Type
REMARK                         _______ _______ _______ _____ _____    ______ ____
ROOT
ATOM      1  O   UNL     1       1.059   8.563  18.899  0.00  0.00    +0.000 OA
ENDROOT
BRANCH   1   2
ATOM      2  C   UNL     1       2.147   7.745  18.765  0.00  0.00    +0.000 A 
ATOM      3  C   UNL     1       2.257   6.767  19.757  0.00  0.00    +0.000 A 
ATOM      4  C   UNL     1       3.297   5.840  19.740  0.00  0.00    +0.000 A 
ATOM      5  C   UNL     1       4.221   5.867  18.702  0.00  0.00    +0.000 A 
ATOM      6  C   UNL     1       4.143   6.841  17.704  0.00  0.00    +0.000 A 
ATOM      7  C   UNL     1       3.096   7.780  17.737  0.00  0.00    +0.000 A 
BRANCH   5   8
ATOM      8  S   UNL     1       5.497   4.635  18.718  0.00  0.00    +0.000 S 
ATOM      9  O   UNL     1       6.704   5.226  19.262  0.00  0.00    +0.000 OA
ATOM     10  O   UNL     1       4.923   3.450  19.318  0.00  0.00    +0.000 OA
BRANCH   8  11
ATOM     11  C   UNL     1       5.834   4.266  17.027  0.00  0.00    +0.000 C 
BRANCH  11  12
ATOM     12  C   UNL     1       7.213   4.699  16.677  0.00  0.00    +0.000 C 
ATOM     13  O   UNL     1       7.467   5.532  15.826  0.00  0.00    +0.000 OA
BRANCH  12  14
ATOM     14  O   UNL     1       8.193   4.014  17.312  0.00  0.00    +0.000 OA
ATOM     15  H   UNL     1       8.593   4.467  18.092  0.00  0.00    +0.000 HD
ENDBRANCH  12  14
ENDBRANCH  11  12
ENDBRANCH   8  11
ENDBRANCH   5   8
ENDBRANCH   1   2
BRANCH   1  16
ATOM     16  C   UNL     1       1.231   9.941  18.574  0.00  0.00    +0.000 C 
BRANCH  16  22
ATOM     17  C   UNL     1      -1.776  10.719  17.515  0.00  0.00    +0.000 C 
ATOM     18  C   UNL     1      -1.155  11.016  18.832  0.00  0.00    +0.000 A 
ATOM     19  N   UNL     1      -1.930  11.694  19.761  0.00  0.00    +0.000 NA
ATOM     20  C   UNL     1      -1.253  11.905  20.870  0.00  0.00    +0.000 A 
ATOM     21  S   UNL     1       0.361  11.309  20.843  0.00  0.00    +0.000 S 
ATOM     22  C   UNL     1       0.127  10.697  19.256  0.00  0.00    +0.000 A 
BRANCH  20  23
ATOM     23  C   UNL     1      -1.779  12.635  22.037  0.00  0.00    +0.000 A 
ATOM     24  C   UNL     1      -0.960  13.462  22.827  0.00  0.00    +0.000 A 
ATOM     25  C   UNL     1      -1.491  14.163  23.911  0.00  0.00    +0.000 A 
ATOM     26  C   UNL     1      -2.838  14.035  24.220  0.00  0.00    +0.000 A 
ATOM     27  F   UNL     1      -3.346  14.719  25.254  0.00  0.00    +0.000 F 
ATOM     28  C   UNL     1      -3.669  13.217  23.464  0.00  0.00    +0.000 A 
ATOM     29  C   UNL     1      -3.139  12.517  22.376  0.00  0.00    +0.000 A 
ENDBRANCH  20  23
ENDBRANCH  16  22
ENDBRANCH   1  16
TORSDOF 8
ENDMDL
MODEL 8
REMARK VINA RESULT:      -7.6      5.292     10.898
REMARK  Name = 
REMARK  9 active torsions:
REMARK  status: ('A' for Active; 'I' for Inactive)
REMARK    1  A    between atoms: C_1  and  C_2
REMARK    2  A    between atoms: C_4  and  C_5
REMARK    3  A    between atoms: C_13  and  C_14
REMARK    4  A    between atoms: C_14  and  O_15
REMARK    5  A    between atoms: O_15  and  C_16
REMARK    6  A    between atoms: C_19  and  S_20
REMARK    7  A    between atoms: S_20  and  C_23
REMARK    8  A    between atoms: C_23  and  C_24
REMARK    9  A    between atoms: C_24  and  O_26
REMARK                            x       y       z     vdW  Elec       q    Type
REMARK                         _______ _______ _______ _____ _____    ______ ____
ROOT
ATOM      1  O   UNL     1       1.606   8.276  20.954  0.00  0.00    +0.000 OA
ENDROOT
BRANCH   1   2
ATOM      2  C   UNL     1       0.695   9.246  21.269  0.00  0.00    +0.000 A 
ATOM      3  C   UNL     1       0.349   9.291  22.623  0.00  0.00    +0.000 A 
ATOM      4  C   UNL     1      -0.546  10.244  23.103  0.00  0.00    +0.000 A 
ATOM      5  C   UNL     1      -1.079  11.185  22.230  0.00  0.00    +0.000 A 
ATOM      6  C   UNL     1      -0.761  11.155  20.871  0.00  0.00    +0.000 A 
ATOM      7  C   UNL     1       0.134  10.181  20.392  0.00  0.00    +0.000 A 
BRANCH   5   8
ATOM      8  S   UNL     1      -2.182  12.395  22.914  0.00  0.00    +0.000 S 
ATOM      9  O   UNL     1      -3.155  11.716  23.748  0.00  0.00    +0.000 OA
ATOM     10  O   UNL     1      -1.356  13.451  23.459  0.00  0.00    +0.000 OA
BRANCH   8  11
ATOM     11  C   UNL     1      -3.071  13.066  21.547  0.00  0.00    +0.000 C 
BRANCH  11  12
ATOM     12  C   UNL     1      -4.483  13.324  21.936  0.00  0.00    +0.000 C 
ATOM     13  O   UNL     1      -4.876  14.380  22.399  0.00  0.00    +0.000 OA
BRANCH  12  14
ATOM     14  O   UNL     1      -5.299  12.249  21.831  0.00  0.00    +0.000 OA
ATOM     15  H   UNL     1      -4.852  11.393  21.628  0.00  0.00    +0.000 HD
ENDBRANCH  12  14
ENDBRANCH  11  12
ENDBRANCH   8  11
ENDBRANCH   5   8
ENDBRANCH   1   2
BRANCH   1  16
ATOM     16  C   UNL     1       1.187   6.919  21.077  0.00  0.00    +0.000 C 
BRANCH  16  22
ATOM     17  C   UNL     1       2.161   3.798  21.366  0.00  0.00    +0.000 C 
ATOM     18  C   UNL     1       2.493   4.773  20.295  0.00  0.00    +0.000 A 
ATOM     19  N   UNL     1       3.304   4.330  19.261  0.00  0.00    +0.000 NA
ATOM     20  C   UNL     1       3.531   5.297  18.397  0.00  0.00    +0.000 A 
ATOM     21  S   UNL     1       2.788   6.797  18.797  0.00  0.00    +0.000 S 
ATOM     22  C   UNL     1       2.088   6.097  20.200  0.00  0.00    +0.000 A 
BRANCH  20  23
ATOM     23  C   UNL     1       4.388   5.162  17.206  0.00  0.00    +0.000 A 
ATOM     24  C   UNL     1       4.764   6.273  16.431  0.00  0.00    +0.000 A 
ATOM     25  C   UNL     1       5.599   6.120  15.322  0.00  0.00    +0.000 A 
ATOM     26  C   UNL     1       6.054   4.855  14.975  0.00  0.00    +0.000 A 
ATOM     27  F   UNL     1       6.864   4.713  13.918  0.00  0.00    +0.000 F 
ATOM     28  C   UNL     1       5.691   3.737  15.716  0.00  0.00    +0.000 A 
ATOM     29  C   UNL     1       4.857   3.891  16.828  0.00  0.00    +0.000 A 
ENDBRANCH  20  23
ENDBRANCH  16  22
ENDBRANCH   1  16
TORSDOF 8
ENDMDL
MODEL 9
REMARK VINA RESULT:      -7.6      2.946      4.030
REMARK  Name = 
REMARK  9 active torsions:
REMARK  status: ('A' for Active; 'I' for Inactive)
REMARK    1  A    between atoms: C_1  and  C_2
REMARK    2  A    between atoms: C_4  and  C_5
REMARK    3  A    between atoms: C_13  and  C_14
REMARK    4  A    between atoms: C_14  and  O_15
REMARK    5  A    between atoms: O_15  and  C_16
REMARK    6  A    between atoms: C_19  and  S_20
REMARK    7  A    between atoms: S_20  and  C_23
REMARK    8  A    between atoms: C_23  and  C_24
REMARK    9  A    between atoms: C_24  and  O_26
REMARK                            x       y       z     vdW  Elec       q    Type
REMARK                         _______ _______ _______ _____ _____    ______ ____
ROOT
ATOM      1  O   UNL     1       1.336   8.616  19.691  0.00  0.00    +0.000 OA
ENDROOT
BRANCH   1   2
ATOM      2  C   UNL     1       2.193   7.649  19.241  0.00  0.00    +0.000 A 
ATOM      3  C   UNL     1       2.294   6.537  20.080  0.00  0.00    +0.000 A 
ATOM      4  C   UNL     1       3.106   5.455  19.743  0.00  0.00    +0.000 A 
ATOM      5  C   UNL     1       3.799   5.468  18.538  0.00  0.00    +0.000 A 
ATOM      6  C   UNL     1       3.726   6.572  17.687  0.00  0.00    +0.000 A 
ATOM      7  C   UNL     1       2.914   7.665  18.042  0.00  0.00    +0.000 A 
BRANCH   5   8
ATOM      8  S   UNL     1       4.782   4.043  18.152  0.00  0.00    +0.000 S 
ATOM      9  O   UNL     1       5.738   4.406  17.123  0.00  0.00    +0.000 OA
ATOM     10  O   UNL     1       5.232   3.493  19.412  0.00  0.00    +0.000 OA
BRANCH   8  11
ATOM     11  C   UNL     1       3.678   2.877  17.425  0.00  0.00    +0.000 C 
BRANCH  11  12
ATOM     12  C   UNL     1       3.358   1.802  18.400  0.00  0.00    +0.000 C 
ATOM     13  O   UNL     1       2.402   1.832  19.154  0.00  0.00    +0.000 OA
BRANCH  12  14
ATOM     14  O   UNL     1       4.280   0.812  18.466  0.00  0.00    +0.000 OA
ATOM     15  H   UNL     1       3.920  -0.107  18.463  0.00  0.00    +0.000 HD
ENDBRANCH  12  14
ENDBRANCH  11  12
ENDBRANCH   8  11
ENDBRANCH   5   8
ENDBRANCH   1   2
BRANCH   1  16
ATOM     16  C   UNL     1       1.173   9.776  18.877  0.00  0.00    +0.000 C 
BRANCH  16  22
ATOM     17  C   UNL     1      -1.756  10.679  17.704  0.00  0.00    +0.000 C 
ATOM     18  C   UNL     1      -1.162  10.979  19.032  0.00  0.00    +0.000 A 
ATOM     19  N   UNL     1      -1.928  11.720  19.919  0.00  0.00    +0.000 NA
ATOM     20  C   UNL     1      -1.275  11.926  21.043  0.00  0.00    +0.000 A 
ATOM     21  S   UNL     1       0.306  11.247  21.082  0.00  0.00    +0.000 S 
ATOM     22  C   UNL     1       0.089  10.606  19.504  0.00  0.00    +0.000 A 
BRANCH  20  23
ATOM     23  C   UNL     1      -1.798  12.713  22.173  0.00  0.00    +0.000 A 
ATOM     24  C   UNL     1      -0.983  13.600  22.901  0.00  0.00    +0.000 A 
ATOM     25  C   UNL     1      -1.511  14.353  23.951  0.00  0.00    +0.000 A 
ATOM     26  C   UNL     1      -2.851  14.218  24.289  0.00  0.00    +0.000 A 
ATOM     27  F   UNL     1      -3.356  14.951  25.289  0.00  0.00    +0.000 F 
ATOM     28  C   UNL     1      -3.677  13.342  23.594  0.00  0.00    +0.000 A 
ATOM     29  C   UNL     1      -3.150  12.590  22.541  0.00  0.00    +0.000 A 
ENDBRANCH  20  23
ENDBRANCH  16  22
ENDBRANCH   1  16
TORSDOF 8
ENDMDL
