MODEL 1
REMARK VINA RESULT:      -8.2      0.000      0.000
REMARK  Name = 
REMARK  6 active torsions:
REMARK  status: ('A' for Active; 'I' for Inactive)
REMARK    1  A    between atoms: C_1  and  O_2
REMARK    2  A    between atoms: O_2  and  C_3
REMARK    3  A    between atoms: C_5  and  C_6
REMARK    4  A    between atoms: C_6  and  C_7
REMARK    5  A    between atoms: C_7  and  C_8
REMARK    6  A    between atoms: C_13  and  C_14
REMARK                            x       y       z     vdW  Elec       q    Type
REMARK                         _______ _______ _______ _____ _____    ______ ____
ROOT
ATOM      1  C   UNL     1       6.804   4.331  16.302  0.00  0.00    +0.000 C 
ATOM      2  O   UNL     1       7.991   4.530  16.559  0.00  0.00    +0.000 OA
ATOM      3  N   UNL     1       5.772   4.840  17.080  0.00  0.00    +0.000 N 
ATOM      4  C   UNL     1       6.094   5.815  18.121  0.00  0.00    +0.000 C 
ATOM      5  C   UNL     1       5.437   5.450  19.448  0.00  0.00    +0.000 C 
ATOM      6  C   UNL     1       3.935   5.154  19.318  0.00  0.00    +0.000 C 
ATOM      7  C   UNL     1       3.673   4.164  18.177  0.00  0.00    +0.000 C 
ATOM      8  C   UNL     1       4.347   4.570  16.869  0.00  0.00    +0.000 C 
ENDROOT
BRANCH   6   9
ATOM      9  C   UNL     1       3.103   6.406  19.182  0.00  0.00    +0.000 A 
ATOM     10  C   UNL     1       2.887   7.268  18.127  0.00  0.00    +0.000 A 
ATOM     11  C   UNL     1       2.026   8.301  18.564  0.00  0.00    +0.000 A 
ATOM     12  N   UNL     1       1.557   9.363  17.868  0.00  0.00    +0.000 NA
ATOM     13  C   UNL     1       0.761  10.189  18.576  0.00  0.00    +0.000 A 
ATOM     14  C   UNL     1       0.405  10.015  19.908  0.00  0.00    +0.000 A 
ATOM     15  C   UNL     1       0.889   8.915  20.612  0.00  0.00    +0.000 A 
ATOM     16  C   UNL     1       1.720   8.057  19.896  0.00  0.00    +0.000 A 
ATOM     17  N   UNL     1       2.374   6.899  20.252  0.00  0.00    +0.000 N 
ATOM     18  H   UNL     1       2.326   6.477  21.169  0.00  0.00    +0.000 HD
ENDBRANCH   6   9
BRANCH   1  19
ATOM     19  C   UNL     1       6.390   3.516  15.097  0.00  0.00    +0.000 C 
BRANCH  19  20
ATOM     20  C   UNL     1       6.547   4.299  13.799  0.00  0.00    +0.000 C 
BRANCH  20  23
ATOM     21  C   UNL     1       4.308   3.033  11.199  0.00  0.00    +0.000 A 
ATOM     22  C   UNL     1       4.553   4.092  12.087  0.00  0.00    +0.000 A 
ATOM     23  C   UNL     1       5.701   3.710  12.739  0.00  0.00    +0.000 A 
ATOM     24  O   UNL     1       6.105   2.498  12.266  0.00  0.00    +0.000 OA
ATOM     25  N   UNL     1       5.219   2.062  11.303  0.00  0.00    +0.000 NA
BRANCH  21  27
ATOM     26  C   UNL     1       2.979   4.195   9.692  0.00  0.00    +0.000 C 
ATOM     27  O   UNL     1       3.289   2.951  10.317  0.00  0.00    +0.000 OA
ENDBRANCH  21  27
ENDBRANCH  20  23
ENDBRANCH  19  20
ENDBRANCH   1  19
TORSDOF 5
ENDMDL
MODEL 2
REMARK VINA RESULT:      -8.0      3.097      6.091
REMARK  Name = 
REMARK  6 active torsions:
REMARK  status: ('A' for Active; 'I' for Inactive)
REMARK    1  A    between atoms: C_1  and  O_2
REMARK    2  A    between atoms: O_2  and  C_3
REMARK    3  A    between atoms: C_5  and  C_6
REMARK    4  A    between atoms: C_6  and  C_7
REMARK    5  A    between atoms: C_7  and  C_8
REMARK    6  A    between atoms: C_13  and  C_14
REMARK                            x       y       z     vdW  Elec       q    Type
REMARK                         _______ _______ _______ _____ _____    ______ ____
ROOT
ATOM      1  C   UNL     1       2.278   6.464  19.830  0.00  0.00    +0.000 C 
ATOM      2  O   UNL     1       1.891   5.853  20.826  0.00  0.00    +0.000 OA
ATOM      3  N   UNL     1       1.971   7.800  19.604  0.00  0.00    +0.000 N 
ATOM      4  C   UNL     1       1.342   8.567  20.678  0.00  0.00    +0.000 C 
ATOM      5  C   UNL     1       0.133   9.346  20.172  0.00  0.00    +0.000 C 
ATOM      6  C   UNL     1       0.430  10.171  18.910  0.00  0.00    +0.000 C 
ATOM      7  C   UNL     1       1.132   9.313  17.852  0.00  0.00    +0.000 C 
ATOM      8  C   UNL     1       2.336   8.555  18.401  0.00  0.00    +0.000 C 
ENDROOT
BRANCH   6   9
ATOM      9  C   UNL     1       1.194  11.438  19.210  0.00  0.00    +0.000 A 
ATOM     10  C   UNL     1       1.364  12.170  20.367  0.00  0.00    +0.000 A 
ATOM     11  C   UNL     1       2.170  13.292  20.072  0.00  0.00    +0.000 A 
ATOM     12  N   UNL     1       2.581  14.281  20.900  0.00  0.00    +0.000 NA
ATOM     13  C   UNL     1       3.335  15.229  20.308  0.00  0.00    +0.000 A 
ATOM     14  C   UNL     1       3.703  15.243  18.968  0.00  0.00    +0.000 A 
ATOM     15  C   UNL     1       3.278  14.217  18.127  0.00  0.00    +0.000 A 
ATOM     16  C   UNL     1       2.492  13.235  18.722  0.00  0.00    +0.000 A 
ATOM     17  N   UNL     1       1.900  12.098  18.218  0.00  0.00    +0.000 N 
ATOM     18  H   UNL     1       1.971  11.799  17.254  0.00  0.00    +0.000 HD
ENDBRANCH   6   9
BRANCH   1  19
ATOM     19  C   UNL     1       3.134   5.790  18.782  0.00  0.00    +0.000 C 
BRANCH  19  20
ATOM     20  C   UNL     1       4.239   4.947  19.405  0.00  0.00    +0.000 C 
BRANCH  20  23
ATOM     21  C   UNL     1       6.943   4.750  16.949  0.00  0.00    +0.000 A 
ATOM     22  C   UNL     1       5.566   4.959  17.126  0.00  0.00    +0.000 A 
ATOM     23  C   UNL     1       5.394   4.853  18.486  0.00  0.00    +0.000 A 
ATOM     24  O   UNL     1       6.596   4.594  19.073  0.00  0.00    +0.000 OA
ATOM     25  N   UNL     1       7.573   4.514  18.103  0.00  0.00    +0.000 NA
BRANCH  21  27
ATOM     26  C   UNL     1       6.786   4.476  14.650  0.00  0.00    +0.000 C 
ATOM     27  O   UNL     1       7.609   4.777  15.775  0.00  0.00    +0.000 OA
ENDBRANCH  21  27
ENDBRANCH  20  23
ENDBRANCH  19  20
ENDBRANCH   1  19
TORSDOF 5
ENDMDL
MODEL 3
REMARK VINA RESULT:      -8.0      1.941      3.203
REMARK  Name = 
REMARK  6 active torsions:
REMARK  status: ('A' for Active; 'I' for Inactive)
REMARK    1  A    between atoms: C_1  and  O_2
REMARK    2  A    between atoms: O_2  and  C_3
REMARK    3  A    between atoms: C_5  and  C_6
REMARK    4  A    between atoms: C_6  and  C_7
REMARK    5  A    between atoms: C_7  and  C_8
REMARK    6  A    between atoms: C_13  and  C_14
REMARK                            x       y       z     vdW  Elec       q    Type
REMARK                         _______ _______ _______ _____ _____    ______ ____
ROOT
ATOM      1  C   UNL     1       5.859   4.964  19.059  0.00  0.00    +0.000 C 
ATOM      2  O   UNL     1       5.708   3.896  19.653  0.00  0.00    +0.000 OA
ATOM      3  N   UNL     1       4.805   5.829  18.794  0.00  0.00    +0.000 N 
ATOM      4  C   UNL     1       3.508   5.566  19.416  0.00  0.00    +0.000 C 
ATOM      5  C   UNL     1       2.377   5.638  18.396  0.00  0.00    +0.000 C 
ATOM      6  C   UNL     1       2.410   6.916  17.544  0.00  0.00    +0.000 C 
ATOM      7  C   UNL     1       3.811   7.149  16.968  0.00  0.00    +0.000 C 
ATOM      8  C   UNL     1       4.911   7.071  18.023  0.00  0.00    +0.000 C 
ENDROOT
BRANCH   6   9
ATOM      9  C   UNL     1       1.896   8.126  18.287  0.00  0.00    +0.000 A 
ATOM     10  C   UNL     1       1.626   9.417  17.886  0.00  0.00    +0.000 A 
ATOM     11  C   UNL     1       1.180  10.150  19.009  0.00  0.00    +0.000 A 
ATOM     12  N   UNL     1       0.815  11.451  19.081  0.00  0.00    +0.000 NA
ATOM     13  C   UNL     1       0.449  11.863  20.312  0.00  0.00    +0.000 A 
ATOM     14  C   UNL     1       0.419  11.066  21.450  0.00  0.00    +0.000 A 
ATOM     15  C   UNL     1       0.792   9.727  21.362  0.00  0.00    +0.000 A 
ATOM     16  C   UNL     1       1.180   9.289  20.099  0.00  0.00    +0.000 A 
ATOM     17  N   UNL     1       1.607   8.063  19.640  0.00  0.00    +0.000 N 
ATOM     18  H   UNL     1       1.699   7.239  20.219  0.00  0.00    +0.000 HD
ENDBRANCH   6   9
BRANCH   1  19
ATOM     19  C   UNL     1       7.224   5.410  18.586  0.00  0.00    +0.000 C 
BRANCH  19  20
ATOM     20  C   UNL     1       7.847   4.411  17.620  0.00  0.00    +0.000 C 
BRANCH  20  23
ATOM     21  C   UNL     1       6.084   4.411  14.414  0.00  0.00    +0.000 A 
ATOM     22  C   UNL     1       6.216   3.761  15.652  0.00  0.00    +0.000 A 
ATOM     23  C   UNL     1       7.184   4.491  16.300  0.00  0.00    +0.000 A 
ATOM     24  O   UNL     1       7.599   5.506  15.492  0.00  0.00    +0.000 OA
ATOM     25  N   UNL     1       6.916   5.449  14.295  0.00  0.00    +0.000 NA
BRANCH  21  27
ATOM     26  C   UNL     1       5.849   3.341  12.368  0.00  0.00    +0.000 C 
ATOM     27  O   UNL     1       5.231   4.073  13.424  0.00  0.00    +0.000 OA
ENDBRANCH  21  27
ENDBRANCH  20  23
ENDBRANCH  19  20
ENDBRANCH   1  19
TORSDOF 5
ENDMDL
MODEL 4
REMARK VINA RESULT:      -7.8      3.735      8.973
REMARK  Name = 
REMARK  6 active torsions:
REMARK  status: ('A' for Active; 'I' for Inactive)
REMARK    1  A    between atoms: C_1  and  O_2
REMARK    2  A    between atoms: O_2  and  C_3
REMARK    3  A    between atoms: C_5  and  C_6
REMARK    4  A    between atoms: C_6  and  C_7
REMARK    5  A    between atoms: C_7  and  C_8
REMARK    6  A    between atoms: C_13  and  C_14
REMARK                            x       y       z     vdW  Elec       q    Type
REMARK                         _______ _______ _______ _____ _____    ______ ____
ROOT
ATOM      1  C   UNL     1       2.619   6.070  19.493  0.00  0.00    +0.000 C 
ATOM      2  O   UNL     1       2.105   5.220  20.220  0.00  0.00    +0.000 OA
ATOM      3  N   UNL     1       3.676   5.784  18.639  0.00  0.00    +0.000 N 
ATOM      4  C   UNL     1       4.060   4.387  18.440  0.00  0.00    +0.000 C 
ATOM      5  C   UNL     1       5.567   4.198  18.582  0.00  0.00    +0.000 C 
ATOM      6  C   UNL     1       6.383   5.193  17.742  0.00  0.00    +0.000 C 
ATOM      7  C   UNL     1       5.890   6.627  17.966  0.00  0.00    +0.000 C 
ATOM      8  C   UNL     1       4.379   6.770  17.812  0.00  0.00    +0.000 C 
ENDROOT
BRANCH   6   9
ATOM      9  C   UNL     1       6.416   4.829  16.277  0.00  0.00    +0.000 A 
ATOM     10  C   UNL     1       5.701   3.915  15.531  0.00  0.00    +0.000 A 
ATOM     11  C   UNL     1       6.157   3.975  14.194  0.00  0.00    +0.000 A 
ATOM     12  N   UNL     1       5.746   3.253  13.126  0.00  0.00    +0.000 NA
ATOM     13  C   UNL     1       6.394   3.535  11.978  0.00  0.00    +0.000 A 
ATOM     14  C   UNL     1       7.400   4.483  11.834  0.00  0.00    +0.000 A 
ATOM     15  C   UNL     1       7.810   5.224  12.940  0.00  0.00    +0.000 A 
ATOM     16  C   UNL     1       7.156   4.939  14.135  0.00  0.00    +0.000 A 
ATOM     17  N   UNL     1       7.292   5.452  15.405  0.00  0.00    +0.000 N 
ATOM     18  H   UNL     1       7.948   6.180  15.657  0.00  0.00    +0.000 HD
ENDBRANCH   6   9
BRANCH   1  19
ATOM     19  C   UNL     1       2.116   7.496  19.478  0.00  0.00    +0.000 C 
BRANCH  19  20
ATOM     20  C   UNL     1       1.495   7.895  20.811  0.00  0.00    +0.000 C 
BRANCH  20  23
ATOM     21  C   UNL     1       0.001  11.207  20.387  0.00  0.00    +0.000 A 
ATOM     22  C   UNL     1       0.140   9.929  19.822  0.00  0.00    +0.000 A 
ATOM     23  C   UNL     1       0.929   9.259  20.725  0.00  0.00    +0.000 A 
ATOM     24  O   UNL     1       1.240  10.092  21.757  0.00  0.00    +0.000 OA
ATOM     25  N   UNL     1       0.667  11.327  21.539  0.00  0.00    +0.000 NA
BRANCH  21  27
ATOM     26  C   UNL     1      -1.790  11.814  19.041  0.00  0.00    +0.000 C 
ATOM     27  O   UNL     1      -0.711  12.233  19.874  0.00  0.00    +0.000 OA
ENDBRANCH  21  27
ENDBRANCH  20  23
ENDBRANCH  19  20
ENDBRANCH   1  19
TORSDOF 5
ENDMDL
MODEL 5
REMARK VINA RESULT:      -7.7      3.799      9.174
REMARK  Name = 
REMARK  6 active torsions:
REMARK  status: ('A' for Active; 'I' for Inactive)
REMARK    1  A    between atoms: C_1  and  O_2
REMARK    2  A    between atoms: O_2  and  C_3
REMARK    3  A    between atoms: C_5  and  C_6
REMARK    4  A    between atoms: C_6  and  C_7
REMARK    5  A    between atoms: C_7  and  C_8
REMARK    6  A    between atoms: C_13  and  C_14
REMARK                            x       y       z     vdW  Elec       q    Type
REMARK                         _______ _______ _______ _____ _____    ______ ____
ROOT
ATOM      1  C   UNL     1       2.258   5.800  19.382  0.00  0.00    +0.000 C 
ATOM      2  O   UNL     1       1.314   5.031  19.561  0.00  0.00    +0.000 OA
ATOM      3  N   UNL     1       3.406   5.430  18.693  0.00  0.00    +0.000 N 
ATOM      4  C   UNL     1       3.415   4.154  17.978  0.00  0.00    +0.000 C 
ATOM      5  C   UNL     1       4.671   3.349  18.290  0.00  0.00    +0.000 C 
ATOM      6  C   UNL     1       5.966   4.161  18.128  0.00  0.00    +0.000 C 
ATOM      7  C   UNL     1       5.862   5.503  18.863  0.00  0.00    +0.000 C 
ATOM      8  C   UNL     1       4.592   6.275  18.518  0.00  0.00    +0.000 C 
ENDROOT
BRANCH   6   9
ATOM      9  C   UNL     1       6.366   4.337  16.683  0.00  0.00    +0.000 A 
ATOM     10  C   UNL     1       7.259   5.186  16.063  0.00  0.00    +0.000 A 
ATOM     11  C   UNL     1       7.223   4.934  14.673  0.00  0.00    +0.000 A 
ATOM     12  N   UNL     1       7.924   5.537  13.685  0.00  0.00    +0.000 NA
ATOM     13  C   UNL     1       7.651   5.080  12.446  0.00  0.00    +0.000 A 
ATOM     14  C   UNL     1       6.745   4.071  12.143  0.00  0.00    +0.000 A 
ATOM     15  C   UNL     1       6.034   3.454  13.169  0.00  0.00    +0.000 A 
ATOM     16  C   UNL     1       6.299   3.921  14.454  0.00  0.00    +0.000 A 
ATOM     17  N   UNL     1       5.797   3.564  15.685  0.00  0.00    +0.000 N 
ATOM     18  H   UNL     1       5.105   2.841  15.830  0.00  0.00    +0.000 HD
ENDBRANCH   6   9
BRANCH   1  19
ATOM     19  C   UNL     1       2.220   7.221  19.899  0.00  0.00    +0.000 C 
BRANCH  19  20
ATOM     20  C   UNL     1       1.242   7.379  21.057  0.00  0.00    +0.000 C 
BRANCH  20  23
ATOM     21  C   UNL     1       0.218  10.837  21.668  0.00  0.00    +0.000 A 
ATOM     22  C   UNL     1       0.324   9.555  22.230  0.00  0.00    +0.000 A 
ATOM     23  C   UNL     1       0.858   8.799  21.214  0.00  0.00    +0.000 A 
ATOM     24  O   UNL     1       1.051   9.586  20.119  0.00  0.00    +0.000 OA
ATOM     25  N   UNL     1       0.634  10.871  20.399  0.00  0.00    +0.000 NA
BRANCH  21  27
ATOM     26  C   UNL     1      -1.442  11.727  23.024  0.00  0.00    +0.000 C 
ATOM     27  O   UNL     1      -0.240  11.945  22.289  0.00  0.00    +0.000 OA
ENDBRANCH  21  27
ENDBRANCH  20  23
ENDBRANCH  19  20
ENDBRANCH   1  19
TORSDOF 5
ENDMDL
MODEL 6
REMARK VINA RESULT:      -7.5      5.305      7.974
REMARK  Name = 
REMARK  6 active torsions:
REMARK  status: ('A' for Active; 'I' for Inactive)
REMARK    1  A    between atoms: C_1  and  O_2
REMARK    2  A    between atoms: O_2  and  C_3
REMARK    3  A    between atoms: C_5  and  C_6
REMARK    4  A    between atoms: C_6  and  C_7
REMARK    5  A    between atoms: C_7  and  C_8
REMARK    6  A    between atoms: C_13  and  C_14
REMARK                            x       y       z     vdW  Elec       q    Type
REMARK                         _______ _______ _______ _____ _____    ______ ____
ROOT
ATOM      1  C   UNL     1       8.213   8.250  18.387  0.00  0.00    +0.000 C 
ATOM      2  O   UNL     1       9.059   8.255  19.281  0.00  0.00    +0.000 OA
ATOM      3  N   UNL     1       7.469   7.122  18.066  0.00  0.00    +0.000 N 
ATOM      4  C   UNL     1       7.541   5.959  18.949  0.00  0.00    +0.000 C 
ATOM      5  C   UNL     1       7.778   4.675  18.162  0.00  0.00    +0.000 C 
ATOM      6  C   UNL     1       6.807   4.501  16.983  0.00  0.00    +0.000 C 
ATOM      7  C   UNL     1       6.750   5.775  16.134  0.00  0.00    +0.000 C 
ATOM      8  C   UNL     1       6.509   7.034  16.962  0.00  0.00    +0.000 C 
ENDROOT
BRANCH   6   9
ATOM      9  C   UNL     1       5.435   4.049  17.420  0.00  0.00    +0.000 A 
ATOM     10  C   UNL     1       4.202   4.090  16.801  0.00  0.00    +0.000 A 
ATOM     11  C   UNL     1       3.242   3.544  17.683  0.00  0.00    +0.000 A 
ATOM     12  N   UNL     1       1.910   3.394  17.496  0.00  0.00    +0.000 NA
ATOM     13  C   UNL     1       1.256   2.850  18.542  0.00  0.00    +0.000 A 
ATOM     14  C   UNL     1       1.843   2.446  19.735  0.00  0.00    +0.000 A 
ATOM     15  C   UNL     1       3.216   2.601  19.913  0.00  0.00    +0.000 A 
ATOM     16  C   UNL     1       3.904   3.169  18.845  0.00  0.00    +0.000 A 
ATOM     17  N   UNL     1       5.234   3.474  18.664  0.00  0.00    +0.000 N 
ATOM     18  H   UNL     1       5.956   3.302  19.351  0.00  0.00    +0.000 HD
ENDBRANCH   6   9
BRANCH   1  19
ATOM     19  C   UNL     1       7.921   9.494  17.579  0.00  0.00    +0.000 C 
BRANCH  19  20
ATOM     20  C   UNL     1       9.082  10.480  17.612  0.00  0.00    +0.000 C 
BRANCH  20  23
ATOM     21  C   UNL     1       7.717  13.853  17.991  0.00  0.00    +0.000 A 
ATOM     22  C   UNL     1       7.694  12.686  17.209  0.00  0.00    +0.000 A 
ATOM     23  C   UNL     1       8.583  11.853  17.846  0.00  0.00    +0.000 A 
ATOM     24  O   UNL     1       9.100  12.491  18.933  0.00  0.00    +0.000 OA
ATOM     25  N   UNL     1       8.565  13.760  19.018  0.00  0.00    +0.000 NA
BRANCH  21  27
ATOM     26  C   UNL     1       5.580  14.749  17.854  0.00  0.00    +0.000 C 
ATOM     27  O   UNL     1       6.987  14.969  17.778  0.00  0.00    +0.000 OA
ENDBRANCH  21  27
ENDBRANCH  20  23
ENDBRANCH  19  20
ENDBRANCH   1  19
TORSDOF 5
ENDMDL
MODEL 7
REMARK VINA RESULT:      -7.5      4.304      6.510
REMARK  Name = 
REMARK  6 active torsions:
REMARK  status: ('A' for Active; 'I' for Inactive)
REMARK    1  A    between atoms: C_1  and  O_2
REMARK    2  A    between atoms: O_2  and  C_3
REMARK    3  A    between atoms: C_5  and  C_6
REMARK    4  A    between atoms: C_6  and  C_7
REMARK    5  A    between atoms: C_7  and  C_8
REMARK    6  A    between atoms: C_13  and  C_14
REMARK                            x       y       z     vdW  Elec       q    Type
REMARK                         _______ _______ _______ _____ _____    ______ ____
ROOT
ATOM      1  C   UNL     1       2.427   6.393  19.158  0.00  0.00    +0.000 C 
ATOM      2  O   UNL     1       2.293   5.662  20.138  0.00  0.00    +0.000 OA
ATOM      3  N   UNL     1       2.059   7.733  19.167  0.00  0.00    +0.000 N 
ATOM      4  C   UNL     1       1.692   8.351  20.440  0.00  0.00    +0.000 C 
ATOM      5  C   UNL     1       0.388   9.133  20.325  0.00  0.00    +0.000 C 
ATOM      6  C   UNL     1       0.369  10.104  19.134  0.00  0.00    +0.000 C 
ATOM      7  C   UNL     1       0.812   9.396  17.848  0.00  0.00    +0.000 C 
ATOM      8  C   UNL     1       2.121   8.630  18.009  0.00  0.00    +0.000 C 
ENDROOT
BRANCH   6   9
ATOM      9  C   UNL     1       1.167  11.359  19.392  0.00  0.00    +0.000 A 
ATOM     10  C   UNL     1       1.399  12.092  20.537  0.00  0.00    +0.000 A 
ATOM     11  C   UNL     1       2.210  13.200  20.201  0.00  0.00    +0.000 A 
ATOM     12  N   UNL     1       2.674  14.185  21.005  0.00  0.00    +0.000 NA
ATOM     13  C   UNL     1       3.416  15.118  20.376  0.00  0.00    +0.000 A 
ATOM     14  C   UNL     1       3.724  15.121  19.020  0.00  0.00    +0.000 A 
ATOM     15  C   UNL     1       3.245  14.099  18.204  0.00  0.00    +0.000 A 
ATOM     16  C   UNL     1       2.470  13.132  18.838  0.00  0.00    +0.000 A 
ATOM     17  N   UNL     1       1.837  12.003  18.366  0.00  0.00    +0.000 N 
ATOM     18  H   UNL     1       1.861  11.699  17.403  0.00  0.00    +0.000 HD
ENDBRANCH   6   9
BRANCH   1  19
ATOM     19  C   UNL     1       3.020   5.874  17.868  0.00  0.00    +0.000 C 
BRANCH  19  20
ATOM     20  C   UNL     1       4.015   4.745  18.112  0.00  0.00    +0.000 C 
BRANCH  20  23
ATOM     21  C   UNL     1       7.304   6.293  18.524  0.00  0.00    +0.000 A 
ATOM     22  C   UNL     1       6.024   6.446  17.965  0.00  0.00    +0.000 A 
ATOM     23  C   UNL     1       5.370   5.295  18.333  0.00  0.00    +0.000 A 
ATOM     24  O   UNL     1       6.213   4.509  19.060  0.00  0.00    +0.000 OA
ATOM     25  N   UNL     1       7.439   5.131  19.170  0.00  0.00    +0.000 NA
BRANCH  21  27
ATOM     26  C   UNL     1       7.988   8.358  17.716  0.00  0.00    +0.000 C 
ATOM     27  O   UNL     1       8.317   7.182  18.453  0.00  0.00    +0.000 OA
ENDBRANCH  21  27
ENDBRANCH  20  23
ENDBRANCH  19  20
ENDBRANCH   1  19
TORSDOF 5
ENDMDL
MODEL 8
REMARK VINA RESULT:      -7.5      4.431      6.465
REMARK  Name = 
REMARK  6 active torsions:
REMARK  status: ('A' for Active; 'I' for Inactive)
REMARK    1  A    between atoms: C_1  and  O_2
REMARK    2  A    between atoms: O_2  and  C_3
REMARK    3  A    between atoms: C_5  and  C_6
REMARK    4  A    between atoms: C_6  and  C_7
REMARK    5  A    between atoms: C_7  and  C_8
REMARK    6  A    between atoms: C_13  and  C_14
REMARK                            x       y       z     vdW  Elec       q    Type
REMARK                         _______ _______ _______ _____ _____    ______ ____
ROOT
ATOM      1  C   UNL     1       2.413   6.376  19.240  0.00  0.00    +0.000 C 
ATOM      2  O   UNL     1       2.333   5.710  20.271  0.00  0.00    +0.000 OA
ATOM      3  N   UNL     1       2.065   7.719  19.186  0.00  0.00    +0.000 N 
ATOM      4  C   UNL     1       1.788   8.423  20.438  0.00  0.00    +0.000 C 
ATOM      5  C   UNL     1       0.490   9.218  20.354  0.00  0.00    +0.000 C 
ATOM      6  C   UNL     1       0.407  10.112  19.107  0.00  0.00    +0.000 C 
ATOM      7  C   UNL     1       0.757   9.317  17.844  0.00  0.00    +0.000 C 
ATOM      8  C   UNL     1       2.064   8.540  17.971  0.00  0.00    +0.000 C 
ENDROOT
BRANCH   6   9
ATOM      9  C   UNL     1       1.236  11.367  19.234  0.00  0.00    +0.000 A 
ATOM     10  C   UNL     1       2.044  12.041  18.342  0.00  0.00    +0.000 A 
ATOM     11  C   UNL     1       2.604  13.158  19.002  0.00  0.00    +0.000 A 
ATOM     12  N   UNL     1       3.459  14.088  18.516  0.00  0.00    +0.000 NA
ATOM     13  C   UNL     1       3.826  15.030  19.408  0.00  0.00    +0.000 A 
ATOM     14  C   UNL     1       3.392  15.103  20.726  0.00  0.00    +0.000 A 
ATOM     15  C   UNL     1       2.507  14.143  21.213  0.00  0.00    +0.000 A 
ATOM     16  C   UNL     1       2.125  13.158  20.306  0.00  0.00    +0.000 A 
ATOM     17  N   UNL     1       1.289  12.071  20.426  0.00  0.00    +0.000 N 
ATOM     18  H   UNL     1       0.792  11.825  21.271  0.00  0.00    +0.000 HD
ENDBRANCH   6   9
BRANCH   1  19
ATOM     19  C   UNL     1       2.916   5.765  17.951  0.00  0.00    +0.000 C 
BRANCH  19  20
ATOM     20  C   UNL     1       3.934   4.660  18.203  0.00  0.00    +0.000 C 
BRANCH  20  23
ATOM     21  C   UNL     1       7.198   6.237  18.697  0.00  0.00    +0.000 A 
ATOM     22  C   UNL     1       6.045   6.210  17.895  0.00  0.00    +0.000 A 
ATOM     23  C   UNL     1       5.265   5.243  18.482  0.00  0.00    +0.000 A 
ATOM     24  O   UNL     1       5.919   4.728  19.560  0.00  0.00    +0.000 OA
ATOM     25  N   UNL     1       7.147   5.344  19.689  0.00  0.00    +0.000 NA
BRANCH  21  27
ATOM     26  C   UNL     1       7.977   8.211  17.759  0.00  0.00    +0.000 C 
ATOM     27  O   UNL     1       8.264   7.049  18.534  0.00  0.00    +0.000 OA
ENDBRANCH  21  27
ENDBRANCH  20  23
ENDBRANCH  19  20
ENDBRANCH   1  19
TORSDOF 5
ENDMDL
MODEL 9
REMARK VINA RESULT:      -7.4      3.435      8.522
REMARK  Name = 
REMARK  6 active torsions:
REMARK  status: ('A' for Active; 'I' for Inactive)
REMARK    1  A    between atoms: C_1  and  O_2
REMARK    2  A    between atoms: O_2  and  C_3
REMARK    3  A    between atoms: C_5  and  C_6
REMARK    4  A    between atoms: C_6  and  C_7
REMARK    5  A    between atoms: C_7  and  C_8
REMARK    6  A    between atoms: C_13  and  C_14
REMARK                            x       y       z     vdW  Elec       q    Type
REMARK                         _______ _______ _______ _____ _____    ______ ____
ROOT
ATOM      1  C   UNL     1       2.809   4.919  19.798  0.00  0.00    +0.000 C 
ATOM      2  O   UNL     1       2.848   4.048  20.666  0.00  0.00    +0.000 OA
ATOM      3  N   UNL     1       3.779   5.037  18.810  0.00  0.00    +0.000 N 
ATOM      4  C   UNL     1       4.769   3.970  18.668  0.00  0.00    +0.000 C 
ATOM      5  C   UNL     1       6.184   4.531  18.580  0.00  0.00    +0.000 C 
ATOM      6  C   UNL     1       6.326   5.654  17.539  0.00  0.00    +0.000 C 
ATOM      7  C   UNL     1       5.226   6.706  17.721  0.00  0.00    +0.000 C 
ATOM      8  C   UNL     1       3.828   6.100  17.802  0.00  0.00    +0.000 C 
ENDROOT
BRANCH   6   9
ATOM      9  C   UNL     1       6.381   5.132  16.124  0.00  0.00    +0.000 A 
ATOM     10  C   UNL     1       5.680   4.138  15.472  0.00  0.00    +0.000 A 
ATOM     11  C   UNL     1       6.155   4.055  14.143  0.00  0.00    +0.000 A 
ATOM     12  N   UNL     1       5.762   3.218  13.154  0.00  0.00    +0.000 NA
ATOM     13  C   UNL     1       6.426   3.376  11.992  0.00  0.00    +0.000 A 
ATOM     14  C   UNL     1       7.431   4.307  11.760  0.00  0.00    +0.000 A 
ATOM     15  C   UNL     1       7.823   5.166  12.783  0.00  0.00    +0.000 A 
ATOM     16  C   UNL     1       7.152   5.010  13.993  0.00  0.00    +0.000 A 
ATOM     17  N   UNL     1       7.269   5.660  15.202  0.00  0.00    +0.000 N 
ATOM     18  H   UNL     1       7.918   6.413  15.382  0.00  0.00    +0.000 HD
ENDBRANCH   6   9
BRANCH   1  19
ATOM     19  C   UNL     1       1.680   5.923  19.746  0.00  0.00    +0.000 C 
BRANCH  19  20
ATOM     20  C   UNL     1       1.761   6.931  20.885  0.00  0.00    +0.000 C 
BRANCH  20  23
ATOM     21  C   UNL     1       0.821  10.325  19.896  0.00  0.00    +0.000 A 
ATOM     22  C   UNL     1       0.831   9.398  20.951  0.00  0.00    +0.000 A 
ATOM     23  C   UNL     1       1.419   8.285  20.398  0.00  0.00    +0.000 A 
ATOM     24  O   UNL     1       1.732   8.540  19.097  0.00  0.00    +0.000 OA
ATOM     25  N   UNL     1       1.342   9.823  18.773  0.00  0.00    +0.000 NA
BRANCH  21  27
ATOM     26  C   UNL     1       1.358  12.551  20.277  0.00  0.00    +0.000 C 
ATOM     27  O   UNL     1       0.355  11.591  19.953  0.00  0.00    +0.000 OA
ENDBRANCH  21  27
ENDBRANCH  20  23
ENDBRANCH  19  20
ENDBRANCH   1  19
TORSDOF 5
ENDMDL
