MODEL 1
REMARK VINA RESULT:      -8.9      0.000      0.000
REMARK  Name = 
REMARK  7 active torsions:
REMARK  status: ('A' for Active; 'I' for Inactive)
REMARK    1  A    between atoms: C_1  and  O_2
REMARK    2  A    between atoms: O_2  and  C_3
REMARK    3  A    between atoms: C_8  and  C_9
REMARK    4  A    between atoms: C_9  and  C_10
REMARK    5  A    between atoms: N_12  and  C_13
REMARK    6  A    between atoms: N_19  and  C_20
REMARK    7  A    between atoms: C_28  and  C_29
REMARK                            x       y       z     vdW  Elec       q    Type
REMARK                         _______ _______ _______ _____ _____    ______ ____
ROOT
ATOM      1  C   UNL     1       0.468   8.775  21.373  0.00  0.00    +0.000 A 
ATOM      2  C   UNL     1      -0.052   8.916  22.660  0.00  0.00    +0.000 A 
ATOM      3  C   UNL     1      -0.560  10.143  23.066  0.00  0.00    +0.000 A 
ATOM      4  C   UNL     1      -0.577  11.224  22.200  0.00  0.00    +0.000 A 
ATOM      5  N   UNL     1      -0.521  12.482  22.688  0.00  0.00    +0.000 NA
ATOM      6  C   UNL     1      -0.304  13.433  21.775  0.00  0.00    +0.000 A 
ATOM      7  N   UNL     1       1.081  13.617  21.381  0.00  0.00    +0.000 N 
ATOM      8  C   UNL     1      -1.197  13.347  20.757  0.00  0.00    +0.000 A 
ATOM      9  C   UNL     1      -1.054  12.141  20.069  0.00  0.00    +0.000 A 
ATOM     10  C   UNL     1      -1.357  12.281  18.611  0.00  0.00    +0.000 C 
ATOM     11  C   UNL     1      -0.531  11.007  20.815  0.00  0.00    +0.000 A 
ATOM     12  C   UNL     1       0.111   9.765  20.421  0.00  0.00    +0.000 A 
ATOM     13  H   UNL     1       1.545  12.746  21.623  0.00  0.00    +0.000 HD
ENDROOT
BRANCH   7  14
ATOM     14  C   UNL     1       1.600  14.182  20.179  0.00  0.00    +0.000 A 
ATOM     15  C   UNL     1       2.527  13.474  19.387  0.00  0.00    +0.000 A 
ATOM     16  C   UNL     1       3.166  14.077  18.291  0.00  0.00    +0.000 A 
ATOM     17  C   UNL     1       2.876  15.398  17.963  0.00  0.00    +0.000 A 
ATOM     18  C   UNL     1       1.916  16.087  18.702  0.00  0.00    +0.000 A 
ATOM     19 CL   UNL     1       1.571  17.728  18.307  0.00  0.00    +0.000 Cl
ATOM     20  C   UNL     1       1.264  15.482  19.785  0.00  0.00    +0.000 A 
ENDBRANCH   7  14
BRANCH   1  23
ATOM     21  C   UNL     1       2.060   7.509  19.836  0.00  0.00    +0.000 C 
ATOM     22  O   UNL     1       1.934   8.221  18.840  0.00  0.00    +0.000 OA
ATOM     23  N   UNL     1       1.468   7.774  21.083  0.00  0.00    +0.000 N 
ATOM     24  H   UNL     1       1.613   7.086  21.816  0.00  0.00    +0.000 HD
BRANCH  21  25
ATOM     25  C   UNL     1       2.984   6.267  19.803  0.00  0.00    +0.000 C 
BRANCH  25  31
ATOM     26  C   UNL     1       2.507   4.254  18.246  0.00  0.00    +0.000 A 
ATOM     27  C   UNL     1       1.810   3.060  17.972  0.00  0.00    +0.000 A 
ATOM     28  C   UNL     1       0.948   2.500  18.910  0.00  0.00    +0.000 A 
ATOM     29  C   UNL     1       0.763   3.138  20.128  0.00  0.00    +0.000 A 
ATOM     30  C   UNL     1       1.437   4.335  20.409  0.00  0.00    +0.000 A 
ATOM     31  C   UNL     1       2.333   4.913  19.488  0.00  0.00    +0.000 A 
BRANCH  26  33
ATOM     32  C   UNL     1       4.524   4.150  16.996  0.00  0.00    +0.000 C 
ATOM     33  O   UNL     1       3.328   4.858  17.325  0.00  0.00    +0.000 OA
ENDBRANCH  26  33
ENDBRANCH  25  31
ENDBRANCH  21  25
ENDBRANCH   1  23
TORSDOF 5
ENDMDL
MODEL 2
REMARK VINA RESULT:      -8.7      1.337      2.395
REMARK  Name = 
REMARK  7 active torsions:
REMARK  status: ('A' for Active; 'I' for Inactive)
REMARK    1  A    between atoms: C_1  and  O_2
REMARK    2  A    between atoms: O_2  and  C_3
REMARK    3  A    between atoms: C_8  and  C_9
REMARK    4  A    between atoms: C_9  and  C_10
REMARK    5  A    between atoms: N_12  and  C_13
REMARK    6  A    between atoms: N_19  and  C_20
REMARK    7  A    between atoms: C_28  and  C_29
REMARK                            x       y       z     vdW  Elec       q    Type
REMARK                         _______ _______ _______ _____ _____    ______ ____
ROOT
ATOM      1  C   UNL     1       1.328   8.247  20.456  0.00  0.00    +0.000 A 
ATOM      2  C   UNL     1       0.804   8.121  21.741  0.00  0.00    +0.000 A 
ATOM      3  C   UNL     1       0.120   9.186  22.314  0.00  0.00    +0.000 A 
ATOM      4  C   UNL     1      -0.066  10.366  21.613  0.00  0.00    +0.000 A 
ATOM      5  N   UNL     1      -0.196  11.534  22.278  0.00  0.00    +0.000 NA
ATOM      6  C   UNL     1      -0.132  12.629  21.516  0.00  0.00    +0.000 A 
ATOM      7  N   UNL     1       1.207  13.074  21.172  0.00  0.00    +0.000 N 
ATOM      8  C   UNL     1      -1.010  12.559  20.483  0.00  0.00    +0.000 A 
ATOM      9  C   UNL     1      -0.692  11.500  19.631  0.00  0.00    +0.000 A 
ATOM     10  C   UNL     1      -1.025  11.803  18.204  0.00  0.00    +0.000 C 
ATOM     11  C   UNL     1       0.001  10.362  20.212  0.00  0.00    +0.000 A 
ATOM     12  C   UNL     1       0.819   9.301  19.652  0.00  0.00    +0.000 A 
ATOM     13  H   UNL     1       1.799  12.257  21.292  0.00  0.00    +0.000 HD
ENDROOT
BRANCH   7  14
ATOM     14  C   UNL     1       1.626  13.879  20.072  0.00  0.00    +0.000 A 
ATOM     15  C   UNL     1       2.463  13.352  19.066  0.00  0.00    +0.000 A 
ATOM     16  C   UNL     1       3.010  14.172  18.066  0.00  0.00    +0.000 A 
ATOM     17  C   UNL     1       2.718  15.532  18.050  0.00  0.00    +0.000 A 
ATOM     18  C   UNL     1       1.843  16.051  19.003  0.00  0.00    +0.000 A 
ATOM     19 CL   UNL     1       1.496  17.739  18.993  0.00  0.00    +0.000 Cl
ATOM     20  C   UNL     1       1.280  15.233  19.991  0.00  0.00    +0.000 A 
ENDBRANCH   7  14
BRANCH   1  23
ATOM     21  C   UNL     1       2.508   6.067  19.861  0.00  0.00    +0.000 C 
ATOM     22  O   UNL     1       1.520   5.333  19.869  0.00  0.00    +0.000 OA
ATOM     23  N   UNL     1       2.465   7.460  20.038  0.00  0.00    +0.000 N 
ATOM     24  H   UNL     1       3.355   7.949  20.052  0.00  0.00    +0.000 HD
BRANCH  21  25
ATOM     25  C   UNL     1       3.913   5.490  19.561  0.00  0.00    +0.000 C 
BRANCH  25  31
ATOM     26  C   UNL     1       4.418   4.162  17.396  0.00  0.00    +0.000 A 
ATOM     27  C   UNL     1       4.904   4.120  16.074  0.00  0.00    +0.000 A 
ATOM     28  C   UNL     1       5.303   5.281  15.418  0.00  0.00    +0.000 A 
ATOM     29  C   UNL     1       5.235   6.496  16.086  0.00  0.00    +0.000 A 
ATOM     30  C   UNL     1       4.768   6.551  17.407  0.00  0.00    +0.000 A 
ATOM     31  C   UNL     1       4.336   5.395  18.087  0.00  0.00    +0.000 A 
BRANCH  26  33
ATOM     32  C   UNL     1       2.821   2.431  17.707  0.00  0.00    +0.000 C 
ATOM     33  O   UNL     1       4.060   3.029  18.087  0.00  0.00    +0.000 OA
ENDBRANCH  26  33
ENDBRANCH  25  31
ENDBRANCH  21  25
ENDBRANCH   1  23
TORSDOF 5
ENDMDL
MODEL 3
REMARK VINA RESULT:      -8.7      0.940      1.622
REMARK  Name = 
REMARK  7 active torsions:
REMARK  status: ('A' for Active; 'I' for Inactive)
REMARK    1  A    between atoms: C_1  and  O_2
REMARK    2  A    between atoms: O_2  and  C_3
REMARK    3  A    between atoms: C_8  and  C_9
REMARK    4  A    between atoms: C_9  and  C_10
REMARK    5  A    between atoms: N_12  and  C_13
REMARK    6  A    between atoms: N_19  and  C_20
REMARK    7  A    between atoms: C_28  and  C_29
REMARK                            x       y       z     vdW  Elec       q    Type
REMARK                         _______ _______ _______ _____ _____    ______ ____
ROOT
ATOM      1  C   UNL     1       0.627   8.740  21.225  0.00  0.00    +0.000 A 
ATOM      2  C   UNL     1       0.052   8.883  22.487  0.00  0.00    +0.000 A 
ATOM      3  C   UNL     1      -0.499  10.103  22.858  0.00  0.00    +0.000 A 
ATOM      4  C   UNL     1      -0.503  11.175  21.980  0.00  0.00    +0.000 A 
ATOM      5  N   UNL     1      -0.494  12.438  22.455  0.00  0.00    +0.000 NA
ATOM      6  C   UNL     1      -0.259  13.385  21.542  0.00  0.00    +0.000 A 
ATOM      7  N   UNL     1       1.137  13.595  21.204  0.00  0.00    +0.000 N 
ATOM      8  C   UNL     1      -1.107  13.269  20.489  0.00  0.00    +0.000 A 
ATOM      9  C   UNL     1      -0.909  12.059  19.821  0.00  0.00    +0.000 A 
ATOM     10  C   UNL     1      -1.154  12.178  18.350  0.00  0.00    +0.000 C 
ATOM     11  C   UNL     1      -0.394  10.944  20.601  0.00  0.00    +0.000 A 
ATOM     12  C   UNL     1       0.290   9.713  20.248  0.00  0.00    +0.000 A 
ATOM     13  H   UNL     1       1.609  12.737  21.475  0.00  0.00    +0.000 HD
ENDROOT
BRANCH   7  14
ATOM     14  C   UNL     1       1.694  14.158  20.019  0.00  0.00    +0.000 A 
ATOM     15  C   UNL     1       2.656  13.455  19.265  0.00  0.00    +0.000 A 
ATOM     16  C   UNL     1       3.328  14.058  18.189  0.00  0.00    +0.000 A 
ATOM     17  C   UNL     1       3.038  15.375  17.844  0.00  0.00    +0.000 A 
ATOM     18  C   UNL     1       2.045  16.058  18.543  0.00  0.00    +0.000 A 
ATOM     19 CL   UNL     1       1.698  17.694  18.126  0.00  0.00    +0.000 Cl
ATOM     20  C   UNL     1       1.359  15.453  19.605  0.00  0.00    +0.000 A 
ENDBRANCH   7  14
BRANCH   1  23
ATOM     21  C   UNL     1       2.184   7.369  19.743  0.00  0.00    +0.000 C 
ATOM     22  O   UNL     1       1.956   7.945  18.680  0.00  0.00    +0.000 OA
ATOM     23  N   UNL     1       1.660   7.758  20.988  0.00  0.00    +0.000 N 
ATOM     24  H   UNL     1       1.890   7.175  21.786  0.00  0.00    +0.000 HD
BRANCH  21  25
ATOM     25  C   UNL     1       3.170   6.177  19.796  0.00  0.00    +0.000 C 
BRANCH  25  31
ATOM     26  C   UNL     1       1.970   3.899  19.522  0.00  0.00    +0.000 A 
ATOM     27  C   UNL     1       1.738   2.721  18.783  0.00  0.00    +0.000 A 
ATOM     28  C   UNL     1       2.307   2.538  17.526  0.00  0.00    +0.000 A 
ATOM     29  C   UNL     1       3.127   3.527  17.001  0.00  0.00    +0.000 A 
ATOM     30  C   UNL     1       3.379   4.697  17.731  0.00  0.00    +0.000 A 
ATOM     31  C   UNL     1       2.799   4.919  18.995  0.00  0.00    +0.000 A 
BRANCH  26  33
ATOM     32  C   UNL     1       1.927   3.187  21.788  0.00  0.00    +0.000 C 
ATOM     33  O   UNL     1       1.462   4.090  20.784  0.00  0.00    +0.000 OA
ENDBRANCH  26  33
ENDBRANCH  25  31
ENDBRANCH  21  25
ENDBRANCH   1  23
TORSDOF 5
ENDMDL
MODEL 4
REMARK VINA RESULT:      -8.5      1.106      1.270
REMARK  Name = 
REMARK  7 active torsions:
REMARK  status: ('A' for Active; 'I' for Inactive)
REMARK    1  A    between atoms: C_1  and  O_2
REMARK    2  A    between atoms: O_2  and  C_3
REMARK    3  A    between atoms: C_8  and  C_9
REMARK    4  A    between atoms: C_9  and  C_10
REMARK    5  A    between atoms: N_12  and  C_13
REMARK    6  A    between atoms: N_19  and  C_20
REMARK    7  A    between atoms: C_28  and  C_29
REMARK                            x       y       z     vdW  Elec       q    Type
REMARK                         _______ _______ _______ _____ _____    ______ ____
ROOT
ATOM      1  C   UNL     1       1.126   8.576  20.268  0.00  0.00    +0.000 A 
ATOM      2  C   UNL     1       0.672   8.427  21.578  0.00  0.00    +0.000 A 
ATOM      3  C   UNL     1       0.066   9.499  22.223  0.00  0.00    +0.000 A 
ATOM      4  C   UNL     1      -0.111  10.708  21.571  0.00  0.00    +0.000 A 
ATOM      5  N   UNL     1      -0.154  11.857  22.278  0.00  0.00    +0.000 NA
ATOM      6  C   UNL     1      -0.088  12.974  21.548  0.00  0.00    +0.000 A 
ATOM      7  N   UNL     1       1.246  13.377  21.140  0.00  0.00    +0.000 N 
ATOM      8  C   UNL     1      -1.026  12.973  20.567  0.00  0.00    +0.000 A 
ATOM      9  C   UNL     1      -0.801  11.932  19.665  0.00  0.00    +0.000 A 
ATOM     10  C   UNL     1      -1.202  12.295  18.270  0.00  0.00    +0.000 C 
ATOM     11  C   UNL     1      -0.124  10.748  20.169  0.00  0.00    +0.000 A 
ATOM     12  C   UNL     1       0.616   9.675  19.529  0.00  0.00    +0.000 A 
ATOM     13  H   UNL     1       1.810  12.533  21.200  0.00  0.00    +0.000 HD
ENDROOT
BRANCH   7  14
ATOM     14  C   UNL     1       1.634  14.201  20.043  0.00  0.00    +0.000 A 
ATOM     15  C   UNL     1       2.487  13.708  19.033  0.00  0.00    +0.000 A 
ATOM     16  C   UNL     1       3.003  14.551  18.035  0.00  0.00    +0.000 A 
ATOM     17  C   UNL     1       2.665  15.901  18.027  0.00  0.00    +0.000 A 
ATOM     18  C   UNL     1       1.774  16.384  18.984  0.00  0.00    +0.000 A 
ATOM     19 CL   UNL     1       1.370  18.059  18.983  0.00  0.00    +0.000 Cl
ATOM     20  C   UNL     1       1.243  15.542  19.970  0.00  0.00    +0.000 A 
ENDBRANCH   7  14
BRANCH   1  23
ATOM     21  C   UNL     1       2.560   7.574  18.414  0.00  0.00    +0.000 C 
ATOM     22  O   UNL     1       2.106   8.231  17.477  0.00  0.00    +0.000 OA
ATOM     23  N   UNL     1       2.204   7.759  19.760  0.00  0.00    +0.000 N 
ATOM     24  H   UNL     1       2.617   7.124  20.437  0.00  0.00    +0.000 HD
BRANCH  21  25
ATOM     25  C   UNL     1       3.660   6.513  18.170  0.00  0.00    +0.000 C 
BRANCH  25  31
ATOM     26  C   UNL     1       4.129   3.984  17.869  0.00  0.00    +0.000 A 
ATOM     27  C   UNL     1       3.660   2.661  17.740  0.00  0.00    +0.000 A 
ATOM     28  C   UNL     1       2.306   2.364  17.863  0.00  0.00    +0.000 A 
ATOM     29  C   UNL     1       1.405   3.392  18.102  0.00  0.00    +0.000 A 
ATOM     30  C   UNL     1       1.855   4.715  18.219  0.00  0.00    +0.000 A 
ATOM     31  C   UNL     1       3.222   5.042  18.121  0.00  0.00    +0.000 A 
BRANCH  26  33
ATOM     32  C   UNL     1       5.953   4.255  16.371  0.00  0.00    +0.000 C 
ATOM     33  O   UNL     1       5.453   4.317  17.707  0.00  0.00    +0.000 OA
ENDBRANCH  26  33
ENDBRANCH  25  31
ENDBRANCH  21  25
ENDBRANCH   1  23
TORSDOF 5
ENDMDL
MODEL 5
REMARK VINA RESULT:      -8.3      0.948      1.275
REMARK  Name = 
REMARK  7 active torsions:
REMARK  status: ('A' for Active; 'I' for Inactive)
REMARK    1  A    between atoms: C_1  and  O_2
REMARK    2  A    between atoms: O_2  and  C_3
REMARK    3  A    between atoms: C_8  and  C_9
REMARK    4  A    between atoms: C_9  and  C_10
REMARK    5  A    between atoms: N_12  and  C_13
REMARK    6  A    between atoms: N_19  and  C_20
REMARK    7  A    between atoms: C_28  and  C_29
REMARK                            x       y       z     vdW  Elec       q    Type
REMARK                         _______ _______ _______ _____ _____    ______ ____
ROOT
ATOM      1  C   UNL     1       0.446   8.972  21.341  0.00  0.00    +0.000 A 
ATOM      2  C   UNL     1      -0.135   8.976  22.609  0.00  0.00    +0.000 A 
ATOM      3  C   UNL     1      -0.692  10.147  23.108  0.00  0.00    +0.000 A 
ATOM      4  C   UNL     1      -0.696  11.307  22.350  0.00  0.00    +0.000 A 
ATOM      5  N   UNL     1      -0.694  12.512  22.959  0.00  0.00    +0.000 NA
ATOM      6  C   UNL     1      -0.459  13.552  22.155  0.00  0.00    +0.000 A 
ATOM      7  N   UNL     1       0.939  13.802  21.847  0.00  0.00    +0.000 N 
ATOM      8  C   UNL     1      -1.302  13.549  21.091  0.00  0.00    +0.000 A 
ATOM      9  C   UNL     1      -1.097  12.418  20.298  0.00  0.00    +0.000 A 
ATOM     10  C   UNL     1      -1.336  12.694  18.847  0.00  0.00    +0.000 C 
ATOM     11  C   UNL     1      -0.581  11.228  20.954  0.00  0.00    +0.000 A 
ATOM     12  C   UNL     1       0.109  10.044  20.473  0.00  0.00    +0.000 A 
ATOM     13  H   UNL     1       1.412  12.921  22.026  0.00  0.00    +0.000 HD
ENDROOT
BRANCH   7  14
ATOM     14  C   UNL     1       1.498  14.492  20.732  0.00  0.00    +0.000 A 
ATOM     15  C   UNL     1       0.916  15.683  20.251  0.00  0.00    +0.000 A 
ATOM     16  C   UNL     1       1.358  16.287  19.063  0.00  0.00    +0.000 A 
ATOM     17  C   UNL     1       2.401  15.712  18.342  0.00  0.00    +0.000 A 
ATOM     18  C   UNL     1       3.024  14.570  18.842  0.00  0.00    +0.000 A 
ATOM     19 CL   UNL     1       4.303  13.849  17.939  0.00  0.00    +0.000 Cl
ATOM     20  C   UNL     1       2.597  13.976  20.037  0.00  0.00    +0.000 A 
ENDBRANCH   7  14
BRANCH   1  23
ATOM     21  C   UNL     1       1.977   7.736  19.720  0.00  0.00    +0.000 C 
ATOM     22  O   UNL     1       1.712   8.386  18.710  0.00  0.00    +0.000 OA
ATOM     23  N   UNL     1       1.483   8.025  21.004  0.00  0.00    +0.000 N 
ATOM     24  H   UNL     1       1.742   7.387  21.751  0.00  0.00    +0.000 HD
BRANCH  21  25
ATOM     25  C   UNL     1       2.978   6.557  19.657  0.00  0.00    +0.000 C 
BRANCH  25  31
ATOM     26  C   UNL     1       2.674   4.419  18.228  0.00  0.00    +0.000 A 
ATOM     27  C   UNL     1       2.043   3.179  18.004  0.00  0.00    +0.000 A 
ATOM     28  C   UNL     1       1.152   2.649  18.932  0.00  0.00    +0.000 A 
ATOM     29  C   UNL     1       0.870   3.363  20.088  0.00  0.00    +0.000 A 
ATOM     30  C   UNL     1       1.478   4.605  20.317  0.00  0.00    +0.000 A 
ATOM     31  C   UNL     1       2.402   5.156  19.407  0.00  0.00    +0.000 A 
BRANCH  26  33
ATOM     32  C   UNL     1       4.517   4.130  16.757  0.00  0.00    +0.000 C 
ATOM     33  O   UNL     1       3.522   4.992  17.311  0.00  0.00    +0.000 OA
ENDBRANCH  26  33
ENDBRANCH  25  31
ENDBRANCH  21  25
ENDBRANCH   1  23
TORSDOF 5
ENDMDL
MODEL 6
REMARK VINA RESULT:      -8.3      2.238      3.517
REMARK  Name = 
REMARK  7 active torsions:
REMARK  status: ('A' for Active; 'I' for Inactive)
REMARK    1  A    between atoms: C_1  and  O_2
REMARK    2  A    between atoms: O_2  and  C_3
REMARK    3  A    between atoms: C_8  and  C_9
REMARK    4  A    between atoms: C_9  and  C_10
REMARK    5  A    between atoms: N_12  and  C_13
REMARK    6  A    between atoms: N_19  and  C_20
REMARK    7  A    between atoms: C_28  and  C_29
REMARK                            x       y       z     vdW  Elec       q    Type
REMARK                         _______ _______ _______ _____ _____    ______ ____
ROOT
ATOM      1  C   UNL     1       1.965   8.394  18.693  0.00  0.00    +0.000 A 
ATOM      2  C   UNL     1       1.784   7.878  19.976  0.00  0.00    +0.000 A 
ATOM      3  C   UNL     1       1.229   8.676  20.968  0.00  0.00    +0.000 A 
ATOM      4  C   UNL     1       0.833   9.975  20.692  0.00  0.00    +0.000 A 
ATOM      5  N   UNL     1       0.834  10.904  21.671  0.00  0.00    +0.000 NA
ATOM      6  C   UNL     1       0.667  12.163  21.257  0.00  0.00    +0.000 A 
ATOM      7  N   UNL     1       1.861  12.819  20.753  0.00  0.00    +0.000 N 
ATOM      8  C   UNL     1      -0.438  12.280  20.479  0.00  0.00    +0.000 A 
ATOM      9  C   UNL     1      -0.308  11.524  19.312  0.00  0.00    +0.000 A 
ATOM     10  C   UNL     1      -0.997  12.159  18.146  0.00  0.00    +0.000 C 
ATOM     11  C   UNL     1       0.548  10.349  19.371  0.00  0.00    +0.000 A 
ATOM     12  C   UNL     1       1.235   9.565  18.360  0.00  0.00    +0.000 A 
ATOM     13  H   UNL     1       2.492  12.064  20.497  0.00  0.00    +0.000 HD
ENDROOT
BRANCH   7  14
ATOM     14  C   UNL     1       1.963  13.925  19.860  0.00  0.00    +0.000 A 
ATOM     15  C   UNL     1       2.649  13.805  18.633  0.00  0.00    +0.000 A 
ATOM     16  C   UNL     1       2.894  14.923  17.819  0.00  0.00    +0.000 A 
ATOM     17  C   UNL     1       2.445  16.179  18.216  0.00  0.00    +0.000 A 
ATOM     18  C   UNL     1       1.713  16.298  19.396  0.00  0.00    +0.000 A 
ATOM     19 CL   UNL     1       1.172  17.856  19.895  0.00  0.00    +0.000 Cl
ATOM     20  C   UNL     1       1.451  15.182  20.201  0.00  0.00    +0.000 A 
ENDBRANCH   7  14
BRANCH   1  23
ATOM     21  C   UNL     1       3.221   6.517  17.512  0.00  0.00    +0.000 C 
ATOM     22  O   UNL     1       2.466   5.593  17.812  0.00  0.00    +0.000 OA
ATOM     23  N   UNL     1       2.987   7.868  17.819  0.00  0.00    +0.000 N 
ATOM     24  H   UNL     1       3.708   8.532  17.553  0.00  0.00    +0.000 HD
BRANCH  21  25
ATOM     25  C   UNL     1       4.492   6.250  16.668  0.00  0.00    +0.000 C 
BRANCH  25  31
ATOM     26  C   UNL     1       6.312   5.249  18.214  0.00  0.00    +0.000 A 
ATOM     27  C   UNL     1       7.515   5.389  18.934  0.00  0.00    +0.000 A 
ATOM     28  C   UNL     1       8.270   6.556  18.852  0.00  0.00    +0.000 A 
ATOM     29  C   UNL     1       7.819   7.602  18.058  0.00  0.00    +0.000 A 
ATOM     30  C   UNL     1       6.617   7.482  17.348  0.00  0.00    +0.000 A 
ATOM     31  C   UNL     1       5.844   6.305  17.394  0.00  0.00    +0.000 A 
BRANCH  26  33
ATOM     32  C   UNL     1       4.902   3.909  19.577  0.00  0.00    +0.000 C 
ATOM     33  O   UNL     1       5.521   4.130  18.309  0.00  0.00    +0.000 OA
ENDBRANCH  26  33
ENDBRANCH  25  31
ENDBRANCH  21  25
ENDBRANCH   1  23
TORSDOF 5
ENDMDL
MODEL 7
REMARK VINA RESULT:      -8.2      1.626      2.680
REMARK  Name = 
REMARK  7 active torsions:
REMARK  status: ('A' for Active; 'I' for Inactive)
REMARK    1  A    between atoms: C_1  and  O_2
REMARK    2  A    between atoms: O_2  and  C_3
REMARK    3  A    between atoms: C_8  and  C_9
REMARK    4  A    between atoms: C_9  and  C_10
REMARK    5  A    between atoms: N_12  and  C_13
REMARK    6  A    between atoms: N_19  and  C_20
REMARK    7  A    between atoms: C_28  and  C_29
REMARK                            x       y       z     vdW  Elec       q    Type
REMARK                         _______ _______ _______ _____ _____    ______ ____
ROOT
ATOM      1  C   UNL     1       1.179   8.345  20.364  0.00  0.00    +0.000 A 
ATOM      2  C   UNL     1       0.538   8.065  21.571  0.00  0.00    +0.000 A 
ATOM      3  C   UNL     1      -0.242   9.041  22.179  0.00  0.00    +0.000 A 
ATOM      4  C   UNL     1      -0.408  10.283  21.588  0.00  0.00    +0.000 A 
ATOM      5  N   UNL     1      -0.651  11.368  22.355  0.00  0.00    +0.000 NA
ATOM      6  C   UNL     1      -0.559  12.540  21.721  0.00  0.00    +0.000 A 
ATOM      7  N   UNL     1       0.787  13.061  21.561  0.00  0.00    +0.000 N 
ATOM      8  C   UNL     1      -1.329  12.554  20.603  0.00  0.00    +0.000 A 
ATOM      9  C   UNL     1      -0.886  11.603  19.682  0.00  0.00    +0.000 A 
ATOM     10  C   UNL     1      -1.090  12.047  18.268  0.00  0.00    +0.000 C 
ATOM     11  C   UNL     1      -0.205  10.431  20.209  0.00  0.00    +0.000 A 
ATOM     12  C   UNL     1       0.707   9.463  19.627  0.00  0.00    +0.000 A 
ATOM     13  H   UNL     1       1.398  12.255  21.655  0.00  0.00    +0.000 HD
ENDROOT
BRANCH   7  14
ATOM     14  C   UNL     1       1.277  13.992  20.599  0.00  0.00    +0.000 A 
ATOM     15  C   UNL     1       0.511  15.116  20.223  0.00  0.00    +0.000 A 
ATOM     16  C   UNL     1       0.908  15.951  19.166  0.00  0.00    +0.000 A 
ATOM     17  C   UNL     1       2.085  15.681  18.475  0.00  0.00    +0.000 A 
ATOM     18  C   UNL     1       2.879  14.610  18.879  0.00  0.00    +0.000 A 
ATOM     19 CL   UNL     1       4.328  14.265  18.011  0.00  0.00    +0.000 Cl
ATOM     20  C   UNL     1       2.497  13.785  19.945  0.00  0.00    +0.000 A 
ENDBRANCH   7  14
BRANCH   1  23
ATOM     21  C   UNL     1       2.508   6.273  19.703  0.00  0.00    +0.000 C 
ATOM     22  O   UNL     1       1.560   5.500  19.571  0.00  0.00    +0.000 OA
ATOM     23  N   UNL     1       2.383   7.644  19.984  0.00  0.00    +0.000 N 
ATOM     24  H   UNL     1       3.244   8.167  20.112  0.00  0.00    +0.000 HD
BRANCH  21  25
ATOM     25  C   UNL     1       3.960   5.782  19.479  0.00  0.00    +0.000 C 
BRANCH  25  31
ATOM     26  C   UNL     1       4.575   4.208  17.518  0.00  0.00    +0.000 A 
ATOM     27  C   UNL     1       5.071   4.019  16.212  0.00  0.00    +0.000 A 
ATOM     28  C   UNL     1       5.387   5.104  15.400  0.00  0.00    +0.000 A 
ATOM     29  C   UNL     1       5.225   6.391  15.893  0.00  0.00    +0.000 A 
ATOM     30  C   UNL     1       4.747   6.594  17.195  0.00  0.00    +0.000 A 
ATOM     31  C   UNL     1       4.397   5.515  18.031  0.00  0.00    +0.000 A 
BRANCH  26  33
ATOM     32  C   UNL     1       3.229   2.301  17.960  0.00  0.00    +0.000 C 
ATOM     33  O   UNL     1       4.298   3.158  18.361  0.00  0.00    +0.000 OA
ENDBRANCH  26  33
ENDBRANCH  25  31
ENDBRANCH  21  25
ENDBRANCH   1  23
TORSDOF 5
ENDMDL
MODEL 8
REMARK VINA RESULT:      -8.2      1.511      2.034
REMARK  Name = 
REMARK  7 active torsions:
REMARK  status: ('A' for Active; 'I' for Inactive)
REMARK    1  A    between atoms: C_1  and  O_2
REMARK    2  A    between atoms: O_2  and  C_3
REMARK    3  A    between atoms: C_8  and  C_9
REMARK    4  A    between atoms: C_9  and  C_10
REMARK    5  A    between atoms: N_12  and  C_13
REMARK    6  A    between atoms: N_19  and  C_20
REMARK    7  A    between atoms: C_28  and  C_29
REMARK                            x       y       z     vdW  Elec       q    Type
REMARK                         _______ _______ _______ _____ _____    ______ ____
ROOT
ATOM      1  C   UNL     1       0.983   8.705  20.252  0.00  0.00    +0.000 A 
ATOM      2  C   UNL     1       0.679   8.333  21.561  0.00  0.00    +0.000 A 
ATOM      3  C   UNL     1       0.011   9.223  22.393  0.00  0.00    +0.000 A 
ATOM      4  C   UNL     1      -0.378  10.469  21.929  0.00  0.00    +0.000 A 
ATOM      5  N   UNL     1      -0.495  11.504  22.788  0.00  0.00    +0.000 NA
ATOM      6  C   UNL     1      -0.639  12.702  22.215  0.00  0.00    +0.000 A 
ATOM      7  N   UNL     1       0.589  13.330  21.762  0.00  0.00    +0.000 N 
ATOM      8  C   UNL     1      -1.660  12.697  21.321  0.00  0.00    +0.000 A 
ATOM      9  C   UNL     1      -1.396  11.817  20.270  0.00  0.00    +0.000 A 
ATOM     10  C   UNL     1      -1.972  12.295  18.974  0.00  0.00    +0.000 C 
ATOM     11  C   UNL     1      -0.531  10.682  20.551  0.00  0.00    +0.000 A 
ATOM     12  C   UNL     1       0.271   9.809  19.713  0.00  0.00    +0.000 A 
ATOM     13  H   UNL     1       1.256  12.570  21.661  0.00  0.00    +0.000 HD
ENDROOT
BRANCH   7  14
ATOM     14  C   UNL     1       0.763  14.330  20.761  0.00  0.00    +0.000 A 
ATOM     15  C   UNL     1      -0.189  15.356  20.588  0.00  0.00    +0.000 A 
ATOM     16  C   UNL     1      -0.113  16.252  19.509  0.00  0.00    +0.000 A 
ATOM     17  C   UNL     1       0.927  16.141  18.591  0.00  0.00    +0.000 A 
ATOM     18  C   UNL     1       1.907  15.170  18.788  0.00  0.00    +0.000 A 
ATOM     19 CL   UNL     1       3.185  15.023  17.640  0.00  0.00    +0.000 Cl
ATOM     20  C   UNL     1       1.845  14.287  19.873  0.00  0.00    +0.000 A 
ENDBRANCH   7  14
BRANCH   1  23
ATOM     21  C   UNL     1       2.374   8.197  18.177  0.00  0.00    +0.000 C 
ATOM     22  O   UNL     1       1.788   8.943  17.394  0.00  0.00    +0.000 OA
ATOM     23  N   UNL     1       2.100   8.113  19.553  0.00  0.00    +0.000 N 
ATOM     24  H   UNL     1       2.625   7.426  20.086  0.00  0.00    +0.000 HD
BRANCH  21  25
ATOM     25  C   UNL     1       3.558   7.324  17.694  0.00  0.00    +0.000 C 
BRANCH  25  31
ATOM     26  C   UNL     1       4.635   5.065  18.361  0.00  0.00    +0.000 A 
ATOM     27  C   UNL     1       4.539   3.669  18.533  0.00  0.00    +0.000 A 
ATOM     28  C   UNL     1       3.328   3.006  18.358  0.00  0.00    +0.000 A 
ATOM     29  C   UNL     1       2.203   3.731  17.993  0.00  0.00    +0.000 A 
ATOM     30  C   UNL     1       2.286   5.118  17.804  0.00  0.00    +0.000 A 
ATOM     31  C   UNL     1       3.493   5.819  17.996  0.00  0.00    +0.000 A 
BRANCH  26  33
ATOM     32  C   UNL     1       6.909   5.244  17.697  0.00  0.00    +0.000 C 
ATOM     33  O   UNL     1       5.824   5.743  18.480  0.00  0.00    +0.000 OA
ENDBRANCH  26  33
ENDBRANCH  25  31
ENDBRANCH  21  25
ENDBRANCH   1  23
TORSDOF 5
ENDMDL
MODEL 9
REMARK VINA RESULT:      -8.1      1.066      1.168
REMARK  Name = 
REMARK  7 active torsions:
REMARK  status: ('A' for Active; 'I' for Inactive)
REMARK    1  A    between atoms: C_1  and  O_2
REMARK    2  A    between atoms: O_2  and  C_3
REMARK    3  A    between atoms: C_8  and  C_9
REMARK    4  A    between atoms: C_9  and  C_10
REMARK    5  A    between atoms: N_12  and  C_13
REMARK    6  A    between atoms: N_19  and  C_20
REMARK    7  A    between atoms: C_28  and  C_29
REMARK                            x       y       z     vdW  Elec       q    Type
REMARK                         _______ _______ _______ _____ _____    ______ ____
ROOT
ATOM      1  C   UNL     1       0.778   8.540  21.146  0.00  0.00    +0.000 A 
ATOM      2  C   UNL     1       0.283   8.565  22.449  0.00  0.00    +0.000 A 
ATOM      3  C   UNL     1      -0.306   9.723  22.941  0.00  0.00    +0.000 A 
ATOM      4  C   UNL     1      -0.427  10.849  22.142  0.00  0.00    +0.000 A 
ATOM      5  N   UNL     1      -0.453  12.076  22.705  0.00  0.00    +0.000 NA
ATOM      6  C   UNL     1      -0.332  13.094  21.848  0.00  0.00    +0.000 A 
ATOM      7  N   UNL     1       1.025  13.407  21.436  0.00  0.00    +0.000 N 
ATOM      8  C   UNL     1      -1.242  13.000  20.845  0.00  0.00    +0.000 A 
ATOM      9  C   UNL     1      -1.026  11.851  20.082  0.00  0.00    +0.000 A 
ATOM     10  C   UNL     1      -1.377  12.053  18.642  0.00  0.00    +0.000 C 
ATOM     11  C   UNL     1      -0.400  10.718  20.746  0.00  0.00    +0.000 A 
ATOM     12  C   UNL     1       0.323   9.555  20.264  0.00  0.00    +0.000 A 
ATOM     13  H   UNL     1       1.559  12.561  21.615  0.00  0.00    +0.000 HD
ENDROOT
BRANCH   7  14
ATOM     14  C   UNL     1       1.468  14.080  20.260  0.00  0.00    +0.000 A 
ATOM     15  C   UNL     1       2.234  13.407  19.285  0.00  0.00    +0.000 A 
ATOM     16  C   UNL     1       2.811  14.094  18.204  0.00  0.00    +0.000 A 
ATOM     17  C   UNL     1       2.619  15.467  18.076  0.00  0.00    +0.000 A 
ATOM     18  C   UNL     1       1.813  16.130  19.000  0.00  0.00    +0.000 A 
ATOM     19 CL   UNL     1       1.591  17.832  18.850  0.00  0.00    +0.000 Cl
ATOM     20  C   UNL     1       1.221  15.444  20.069  0.00  0.00    +0.000 A 
ENDBRANCH   7  14
BRANCH   1  23
ATOM     21  C   UNL     1       1.747   6.248  20.596  0.00  0.00    +0.000 C 
ATOM     22  O   UNL     1       0.689   5.621  20.561  0.00  0.00    +0.000 OA
ATOM     23  N   UNL     1       1.843   7.638  20.774  0.00  0.00    +0.000 N 
ATOM     24  H   UNL     1       2.778   8.032  20.827  0.00  0.00    +0.000 HD
BRANCH  21  25
ATOM     25  C   UNL     1       3.096   5.527  20.353  0.00  0.00    +0.000 C 
BRANCH  25  31
ATOM     26  C   UNL     1       3.192   4.495  17.980  0.00  0.00    +0.000 A 
ATOM     27  C   UNL     1       3.089   3.376  17.130  0.00  0.00    +0.000 A 
ATOM     28  C   UNL     1       2.897   2.097  17.645  0.00  0.00    +0.000 A 
ATOM     29  C   UNL     1       2.791   1.927  19.018  0.00  0.00    +0.000 A 
ATOM     30  C   UNL     1       2.877   3.033  19.876  0.00  0.00    +0.000 A 
ATOM     31  C   UNL     1       3.094   4.335  19.384  0.00  0.00    +0.000 A 
BRANCH  26  33
ATOM     32  C   UNL     1       4.611   6.095  16.947  0.00  0.00    +0.000 C 
ATOM     33  O   UNL     1       3.335   5.775  17.502  0.00  0.00    +0.000 OA
ENDBRANCH  26  33
ENDBRANCH  25  31
ENDBRANCH  21  25
ENDBRANCH   1  23
TORSDOF 5
ENDMDL
