MODEL 1
REMARK VINA RESULT:      -7.1      0.000      0.000
REMARK  Name = 
REMARK  5 active torsions:
REMARK  status: ('A' for Active; 'I' for Inactive)
REMARK    1  A    between atoms: CB_1  and  CA_2
REMARK    2  A    between atoms: CA_2  and  C_3
REMARK    3  A    between atoms: CA_2  and  N_5
REMARK    4  A    between atoms: C_6  and  C_8
REMARK    5  A    between atoms: C_12  and  C_13
REMARK                            x       y       z     vdW  Elec       q    Type
REMARK                         _______ _______ _______ _____ _____    ______ ____
ROOT
ATOM      1  C   UNK A   0       4.332   4.627  17.358  0.00  0.00    +0.000 A 
ATOM      2  C   UNK A   0       4.145   6.013  17.519  0.00  0.00    +0.000 A 
ATOM      3  C   UNK A   0       3.068   6.515  18.244  0.00  0.00    +0.000 A 
ATOM      4  C   UNK A   0       2.156   5.636  18.819  0.00  0.00    +0.000 A 
ATOM      5  C   UNK A   0       2.321   4.244  18.698  0.00  0.00    +0.000 A 
ATOM      6  C   UNK A   0       3.426   3.740  17.978  0.00  0.00    +0.000 A 
ATOM      7 CL   UNK A   0       3.655   2.019  17.914  0.00  0.00    +0.000 Cl
ENDROOT
BRANCH   1   9
ATOM      8  N   ALA A   1       5.284   4.206  15.127  0.00  0.00    +0.000 N 
ATOM      9  C   UNK A   0       5.487   4.241  16.484  0.00  0.00    +0.000 C 
ATOM     10  O   UNK A   0       6.594   4.049  16.977  0.00  0.00    +0.000 OA
ATOM     11  H   ALA A   1       4.362   4.399  14.755  0.00  0.00    +0.000 HD
BRANCH   8  13
ATOM     12  CB  ALA A   1       5.791   3.571  12.817  0.00  0.00    +0.000 C 
ATOM     13  CA  ALA A   1       6.360   3.936  14.179  0.00  0.00    +0.000 C 
BRANCH  13  14
ATOM     14  C   ALA A   1       7.254   5.170  14.092  0.00  0.00    +0.000 C 
ATOM     15  O   ALA A   1       7.856   5.514  13.076  0.00  0.00    +0.000 OA
ENDBRANCH  13  14
ENDBRANCH   8  13
ENDBRANCH   1   9
BRANCH   5  16
ATOM     16  C   UNK A   0       1.294   3.329  19.321  0.00  0.00    +0.000 C 
ATOM     17  F   UNK A   0       0.565   2.636  18.399  0.00  0.00    +0.000 F 
ATOM     18  F   UNK A   0       1.856   2.380  20.120  0.00  0.00    +0.000 F 
ATOM     19  F   UNK A   0       0.380   3.987  20.082  0.00  0.00    +0.000 F 
ENDBRANCH   5  16
TORSDOF 4
ENDMDL
MODEL 2
REMARK VINA RESULT:      -7.1      2.364      2.997
REMARK  Name = 
REMARK  5 active torsions:
REMARK  status: ('A' for Active; 'I' for Inactive)
REMARK    1  A    between atoms: CB_1  and  CA_2
REMARK    2  A    between atoms: CA_2  and  C_3
REMARK    3  A    between atoms: CA_2  and  N_5
REMARK    4  A    between atoms: C_6  and  C_8
REMARK    5  A    between atoms: C_12  and  C_13
REMARK                            x       y       z     vdW  Elec       q    Type
REMARK                         _______ _______ _______ _____ _____    ______ ____
ROOT
ATOM      1  C   UNK A   0       3.533   5.392  18.947  0.00  0.00    +0.000 A 
ATOM      2  C   UNK A   0       2.776   6.513  19.338  0.00  0.00    +0.000 A 
ATOM      3  C   UNK A   0       1.771   6.406  20.294  0.00  0.00    +0.000 A 
ATOM      4  C   UNK A   0       1.503   5.171  20.876  0.00  0.00    +0.000 A 
ATOM      5  C   UNK A   0       2.253   4.032  20.527  0.00  0.00    +0.000 A 
ATOM      6  C   UNK A   0       3.285   4.151  19.571  0.00  0.00    +0.000 A 
ATOM      7 CL   UNK A   0       4.252   2.750  19.221  0.00  0.00    +0.000 Cl
ENDROOT
BRANCH   1   9
ATOM      8  N   ALA A   1       5.748   6.160  18.194  0.00  0.00    +0.000 N 
ATOM      9  C   UNK A   0       4.522   5.646  17.850  0.00  0.00    +0.000 C 
ATOM     10  O   UNK A   0       4.258   5.321  16.697  0.00  0.00    +0.000 OA
ATOM     11  H   ALA A   1       5.939   6.390  19.162  0.00  0.00    +0.000 HD
BRANCH   8  13
ATOM     12  CB  ALA A   1       7.710   7.515  17.638  0.00  0.00    +0.000 C 
ATOM     13  CA  ALA A   1       6.818   6.357  17.222  0.00  0.00    +0.000 C 
BRANCH  13  14
ATOM     14  C   ALA A   1       7.614   5.061  17.102  0.00  0.00    +0.000 C 
ATOM     15  O   ALA A   1       7.807   4.466  16.043  0.00  0.00    +0.000 OA
ENDBRANCH  13  14
ENDBRANCH   8  13
ENDBRANCH   1   9
BRANCH   5  16
ATOM     16  C   UNK A   0       1.913   2.709  21.170  0.00  0.00    +0.000 C 
ATOM     17  F   UNK A   0       0.826   2.776  21.991  0.00  0.00    +0.000 F 
ATOM     18  F   UNK A   0       1.612   1.746  20.256  0.00  0.00    +0.000 F 
ATOM     19  F   UNK A   0       2.917   2.212  21.941  0.00  0.00    +0.000 F 
ENDBRANCH   5  16
TORSDOF 4
ENDMDL
MODEL 3
REMARK VINA RESULT:      -7.0      0.935      1.036
REMARK  Name = 
REMARK  5 active torsions:
REMARK  status: ('A' for Active; 'I' for Inactive)
REMARK    1  A    between atoms: CB_1  and  CA_2
REMARK    2  A    between atoms: CA_2  and  C_3
REMARK    3  A    between atoms: CA_2  and  N_5
REMARK    4  A    between atoms: C_6  and  C_8
REMARK    5  A    between atoms: C_12  and  C_13
REMARK                            x       y       z     vdW  Elec       q    Type
REMARK                         _______ _______ _______ _____ _____    ______ ____
ROOT
ATOM      1  C   UNK A   0       4.850   5.053  16.673  0.00  0.00    +0.000 A 
ATOM      2  C   UNK A   0       4.818   6.460  16.694  0.00  0.00    +0.000 A 
ATOM      3  C   UNK A   0       3.877   7.149  17.453  0.00  0.00    +0.000 A 
ATOM      4  C   UNK A   0       2.947   6.439  18.205  0.00  0.00    +0.000 A 
ATOM      5  C   UNK A   0       2.960   5.032  18.227  0.00  0.00    +0.000 A 
ATOM      6  C   UNK A   0       3.930   4.339  17.471  0.00  0.00    +0.000 A 
ATOM      7 CL   UNK A   0       3.980   2.605  17.582  0.00  0.00    +0.000 Cl
ENDROOT
BRANCH   1   9
ATOM      8  N   ALA A   1       5.573   4.424  14.405  0.00  0.00    +0.000 N 
ATOM      9  C   UNK A   0       5.865   4.455  15.747  0.00  0.00    +0.000 C 
ATOM     10  O   UNK A   0       6.951   4.085  16.180  0.00  0.00    +0.000 OA
ATOM     11  H   ALA A   1       4.675   4.765  14.082  0.00  0.00    +0.000 HD
BRANCH   8  13
ATOM     12  CB  ALA A   1       5.798   3.276  12.255  0.00  0.00    +0.000 C 
ATOM     13  CA  ALA A   1       6.525   3.953  13.405  0.00  0.00    +0.000 C 
BRANCH  13  14
ATOM     14  C   ALA A   1       7.348   5.141  12.917  0.00  0.00    +0.000 C 
ATOM     15  O   ALA A   1       8.291   5.629  13.538  0.00  0.00    +0.000 OA
ENDBRANCH  13  14
ENDBRANCH   8  13
ENDBRANCH   1   9
BRANCH   5  16
ATOM     16  C   UNK A   0       1.918   4.304  19.042  0.00  0.00    +0.000 C 
ATOM     17  F   UNK A   0       0.986   3.669  18.274  0.00  0.00    +0.000 F 
ATOM     18  F   UNK A   0       2.455   3.333  19.830  0.00  0.00    +0.000 F 
ATOM     19  F   UNK A   0       1.209   5.124  19.864  0.00  0.00    +0.000 F 
ENDBRANCH   5  16
TORSDOF 4
ENDMDL
MODEL 4
REMARK VINA RESULT:      -6.9      0.868      1.260
REMARK  Name = 
REMARK  5 active torsions:
REMARK  status: ('A' for Active; 'I' for Inactive)
REMARK    1  A    between atoms: CB_1  and  CA_2
REMARK    2  A    between atoms: CA_2  and  C_3
REMARK    3  A    between atoms: CA_2  and  N_5
REMARK    4  A    between atoms: C_6  and  C_8
REMARK    5  A    between atoms: C_12  and  C_13
REMARK                            x       y       z     vdW  Elec       q    Type
REMARK                         _______ _______ _______ _____ _____    ______ ____
ROOT
ATOM      1  C   UNK A   0       4.595   5.128  17.127  0.00  0.00    +0.000 A 
ATOM      2  C   UNK A   0       4.465   6.524  17.006  0.00  0.00    +0.000 A 
ATOM      3  C   UNK A   0       3.504   7.224  17.729  0.00  0.00    +0.000 A 
ATOM      4  C   UNK A   0       2.651   6.536  18.585  0.00  0.00    +0.000 A 
ATOM      5  C   UNK A   0       2.764   5.143  18.749  0.00  0.00    +0.000 A 
ATOM      6  C   UNK A   0       3.754   4.441  18.029  0.00  0.00    +0.000 A 
ATOM      7 CL   UNK A   0       3.929   2.735  18.313  0.00  0.00    +0.000 Cl
ENDROOT
BRANCH   1   9
ATOM      8  N   ALA A   1       5.369   4.501  14.875  0.00  0.00    +0.000 N 
ATOM      9  C   UNK A   0       5.618   4.506  16.225  0.00  0.00    +0.000 C 
ATOM     10  O   UNK A   0       6.676   4.093  16.689  0.00  0.00    +0.000 OA
ATOM     11  H   ALA A   1       4.495   4.878  14.528  0.00  0.00    +0.000 HD
BRANCH   8  13
ATOM     12  CB  ALA A   1       5.623   3.395  12.706  0.00  0.00    +0.000 C 
ATOM     13  CA  ALA A   1       6.336   4.009  13.900  0.00  0.00    +0.000 C 
BRANCH  13  14
ATOM     14  C   ALA A   1       7.232   5.168  13.473  0.00  0.00    +0.000 C 
ATOM     15  O   ALA A   1       8.162   5.605  14.150  0.00  0.00    +0.000 OA
ENDBRANCH  13  14
ENDBRANCH   8  13
ENDBRANCH   1   9
BRANCH   5  16
ATOM     16  C   UNK A   0       1.802   4.436  19.675  0.00  0.00    +0.000 C 
ATOM     17  F   UNK A   0       1.011   5.294  20.381  0.00  0.00    +0.000 F 
ATOM     18  F   UNK A   0       0.940   3.620  19.008  0.00  0.00    +0.000 F 
ATOM     19  F   UNK A   0       2.423   3.667  20.608  0.00  0.00    +0.000 F 
ENDBRANCH   5  16
TORSDOF 4
ENDMDL
MODEL 5
REMARK VINA RESULT:      -6.9      2.014      2.760
REMARK  Name = 
REMARK  5 active torsions:
REMARK  status: ('A' for Active; 'I' for Inactive)
REMARK    1  A    between atoms: CB_1  and  CA_2
REMARK    2  A    between atoms: CA_2  and  C_3
REMARK    3  A    between atoms: CA_2  and  N_5
REMARK    4  A    between atoms: C_6  and  C_8
REMARK    5  A    between atoms: C_12  and  C_13
REMARK                            x       y       z     vdW  Elec       q    Type
REMARK                         _______ _______ _______ _____ _____    ______ ____
ROOT
ATOM      1  C   UNK A   0       3.218   5.816  18.723  0.00  0.00    +0.000 A 
ATOM      2  C   UNK A   0       2.677   6.683  19.691  0.00  0.00    +0.000 A 
ATOM      3  C   UNK A   0       1.722   6.242  20.601  0.00  0.00    +0.000 A 
ATOM      4  C   UNK A   0       1.287   4.921  20.555  0.00  0.00    +0.000 A 
ATOM      5  C   UNK A   0       1.820   4.018  19.616  0.00  0.00    +0.000 A 
ATOM      6  C   UNK A   0       2.805   4.467  18.709  0.00  0.00    +0.000 A 
ATOM      7 CL   UNK A   0       3.509   3.314  17.617  0.00  0.00    +0.000 Cl
ENDROOT
BRANCH   1   9
ATOM      8  N   ALA A   1       5.474   6.013  17.756  0.00  0.00    +0.000 N 
ATOM      9  C   UNK A   0       4.175   6.456  17.763  0.00  0.00    +0.000 C 
ATOM     10  O   UNK A   0       3.772   7.290  16.958  0.00  0.00    +0.000 OA
ATOM     11  H   ALA A   1       5.762   5.302  18.418  0.00  0.00    +0.000 HD
BRANCH   8  13
ATOM     12  CB  ALA A   1       7.580   7.238  17.518  0.00  0.00    +0.000 C 
ATOM     13  CA  ALA A   1       6.464   6.497  16.800  0.00  0.00    +0.000 C 
BRANCH  13  14
ATOM     14  C   ALA A   1       7.007   5.307  16.014  0.00  0.00    +0.000 C 
ATOM     15  O   ALA A   1       7.683   5.407  14.991  0.00  0.00    +0.000 OA
ENDBRANCH  13  14
ENDBRANCH   8  13
ENDBRANCH   1   9
BRANCH   5  16
ATOM     16  C   UNK A   0       1.304   2.600  19.591  0.00  0.00    +0.000 C 
ATOM     17  F   UNK A   0       2.296   1.671  19.473  0.00  0.00    +0.000 F 
ATOM     18  F   UNK A   0       0.635   2.267  20.729  0.00  0.00    +0.000 F 
ATOM     19  F   UNK A   0       0.456   2.355  18.556  0.00  0.00    +0.000 F 
ENDBRANCH   5  16
TORSDOF 4
ENDMDL
MODEL 6
REMARK VINA RESULT:      -6.9      2.206      2.913
REMARK  Name = 
REMARK  5 active torsions:
REMARK  status: ('A' for Active; 'I' for Inactive)
REMARK    1  A    between atoms: CB_1  and  CA_2
REMARK    2  A    between atoms: CA_2  and  C_3
REMARK    3  A    between atoms: CA_2  and  N_5
REMARK    4  A    between atoms: C_6  and  C_8
REMARK    5  A    between atoms: C_12  and  C_13
REMARK                            x       y       z     vdW  Elec       q    Type
REMARK                         _______ _______ _______ _____ _____    ______ ____
ROOT
ATOM      1  C   UNK A   0       3.826   3.826  17.983  0.00  0.00    +0.000 A 
ATOM      2  C   UNK A   0       3.570   2.564  17.415  0.00  0.00    +0.000 A 
ATOM      3  C   UNK A   0       2.642   1.694  17.979  0.00  0.00    +0.000 A 
ATOM      4  C   UNK A   0       1.955   2.073  19.128  0.00  0.00    +0.000 A 
ATOM      5  C   UNK A   0       2.168   3.334  19.713  0.00  0.00    +0.000 A 
ATOM      6  C   UNK A   0       3.096   4.221  19.124  0.00  0.00    +0.000 A 
ATOM      7 CL   UNK A   0       3.278   5.805  19.815  0.00  0.00    +0.000 Cl
ENDROOT
BRANCH   1   9
ATOM      8  N   ALA A   1       6.204   4.181  17.450  0.00  0.00    +0.000 N 
ATOM      9  C   UNK A   0       4.909   4.616  17.311  0.00  0.00    +0.000 C 
ATOM     10  O   UNK A   0       4.621   5.569  16.595  0.00  0.00    +0.000 OA
ATOM     11  H   ALA A   1       6.399   3.372  18.028  0.00  0.00    +0.000 HD
BRANCH   8  13
ATOM     12  CB  ALA A   1       7.104   4.800  15.260  0.00  0.00    +0.000 C 
ATOM     13  CA  ALA A   1       7.323   4.816  16.764  0.00  0.00    +0.000 C 
BRANCH  13  14
ATOM     14  C   ALA A   1       7.471   6.243  17.286  0.00  0.00    +0.000 C 
ATOM     15  O   ALA A   1       7.801   7.201  16.589  0.00  0.00    +0.000 OA
ENDBRANCH  13  14
ENDBRANCH   8  13
ENDBRANCH   1   9
BRANCH   5  16
ATOM     16  C   UNK A   0       1.414   3.693  20.972  0.00  0.00    +0.000 C 
ATOM     17  F   UNK A   0       0.543   4.729  20.797  0.00  0.00    +0.000 F 
ATOM     18  F   UNK A   0       0.657   2.663  21.438  0.00  0.00    +0.000 F 
ATOM     19  F   UNK A   0       2.226   4.074  21.994  0.00  0.00    +0.000 F 
ENDBRANCH   5  16
TORSDOF 4
ENDMDL
MODEL 7
REMARK VINA RESULT:      -6.8      4.211      6.229
REMARK  Name = 
REMARK  5 active torsions:
REMARK  status: ('A' for Active; 'I' for Inactive)
REMARK    1  A    between atoms: CB_1  and  CA_2
REMARK    2  A    between atoms: CA_2  and  C_3
REMARK    3  A    between atoms: CA_2  and  N_5
REMARK    4  A    between atoms: C_6  and  C_8
REMARK    5  A    between atoms: C_12  and  C_13
REMARK                            x       y       z     vdW  Elec       q    Type
REMARK                         _______ _______ _______ _____ _____    ______ ____
ROOT
ATOM      1  C   UNK A   0       5.329   4.208  18.627  0.00  0.00    +0.000 A 
ATOM      2  C   UNK A   0       6.224   5.047  19.318  0.00  0.00    +0.000 A 
ATOM      3  C   UNK A   0       7.166   5.812  18.638  0.00  0.00    +0.000 A 
ATOM      4  C   UNK A   0       7.232   5.747  17.250  0.00  0.00    +0.000 A 
ATOM      5  C   UNK A   0       6.341   4.937  16.522  0.00  0.00    +0.000 A 
ATOM      6  C   UNK A   0       5.373   4.179  17.217  0.00  0.00    +0.000 A 
ATOM      7 CL   UNK A   0       4.229   3.253  16.293  0.00  0.00    +0.000 Cl
ENDROOT
BRANCH   1   9
ATOM      8  N   ALA A   1       3.089   3.684  19.504  0.00  0.00    +0.000 N 
ATOM      9  C   UNK A   0       4.429   3.386  19.500  0.00  0.00    +0.000 C 
ATOM     10  O   UNK A   0       4.880   2.428  20.119  0.00  0.00    +0.000 OA
ATOM     11  H   ALA A   1       2.750   4.467  18.957  0.00  0.00    +0.000 HD
BRANCH   8  13
ATOM     12  CB  ALA A   1       1.999   3.380  21.675  0.00  0.00    +0.000 C 
ATOM     13  CA  ALA A   1       2.110   2.891  20.240  0.00  0.00    +0.000 C 
BRANCH  13  14
ATOM     14  C   ALA A   1       0.768   2.980  19.520  0.00  0.00    +0.000 C 
ATOM     15  O   ALA A   1       0.423   2.228  18.610  0.00  0.00    +0.000 OA
ENDBRANCH  13  14
ENDBRANCH   8  13
ENDBRANCH   1   9
BRANCH   5  16
ATOM     16  C   UNK A   0       6.463   4.883  15.018  0.00  0.00    +0.000 C 
ATOM     17  F   UNK A   0       6.519   3.610  14.531  0.00  0.00    +0.000 F 
ATOM     18  F   UNK A   0       5.405   5.462  14.387  0.00  0.00    +0.000 F 
ATOM     19  F   UNK A   0       7.580   5.498  14.548  0.00  0.00    +0.000 F 
ENDBRANCH   5  16
TORSDOF 4
ENDMDL
MODEL 8
REMARK VINA RESULT:      -6.8      2.233      3.060
REMARK  Name = 
REMARK  5 active torsions:
REMARK  status: ('A' for Active; 'I' for Inactive)
REMARK    1  A    between atoms: CB_1  and  CA_2
REMARK    2  A    between atoms: CA_2  and  C_3
REMARK    3  A    between atoms: CA_2  and  N_5
REMARK    4  A    between atoms: C_6  and  C_8
REMARK    5  A    between atoms: C_12  and  C_13
REMARK                            x       y       z     vdW  Elec       q    Type
REMARK                         _______ _______ _______ _____ _____    ______ ____
ROOT
ATOM      1  C   UNK A   0       3.354   5.937  18.995  0.00  0.00    +0.000 A 
ATOM      2  C   UNK A   0       2.483   6.881  19.571  0.00  0.00    +0.000 A 
ATOM      3  C   UNK A   0       1.545   6.506  20.528  0.00  0.00    +0.000 A 
ATOM      4  C   UNK A   0       1.459   5.175  20.923  0.00  0.00    +0.000 A 
ATOM      5  C   UNK A   0       2.326   4.206  20.386  0.00  0.00    +0.000 A 
ATOM      6  C   UNK A   0       3.290   4.596  19.431  0.00  0.00    +0.000 A 
ATOM      7 CL   UNK A   0       4.405   3.398  18.846  0.00  0.00    +0.000 Cl
ENDROOT
BRANCH   1   9
ATOM      8  N   ALA A   1       5.595   6.205  18.011  0.00  0.00    +0.000 N 
ATOM      9  C   UNK A   0       4.251   6.474  17.922  0.00  0.00    +0.000 C 
ATOM     10  O   UNK A   0       3.773   7.062  16.957  0.00  0.00    +0.000 OA
ATOM     11  H   ALA A   1       5.949   5.692  18.810  0.00  0.00    +0.000 HD
BRANCH   8  13
ATOM     12  CB  ALA A   1       7.689   7.397  17.577  0.00  0.00    +0.000 C 
ATOM     13  CA  ALA A   1       6.545   6.597  16.976  0.00  0.00    +0.000 C 
BRANCH  13  14
ATOM     14  C   ALA A   1       7.056   5.338  16.281  0.00  0.00    +0.000 C 
ATOM     15  O   ALA A   1       7.606   5.333  15.181  0.00  0.00    +0.000 OA
ENDBRANCH  13  14
ENDBRANCH   8  13
ENDBRANCH   1   9
BRANCH   5  16
ATOM     16  C   UNK A   0       2.183   2.770  20.831  0.00  0.00    +0.000 C 
ATOM     17  F   UNK A   0       3.275   2.307  21.504  0.00  0.00    +0.000 F 
ATOM     18  F   UNK A   0       1.134   2.589  21.680  0.00  0.00    +0.000 F 
ATOM     19  F   UNK A   0       2.002   1.904  19.798  0.00  0.00    +0.000 F 
ENDBRANCH   5  16
TORSDOF 4
ENDMDL
MODEL 9
REMARK VINA RESULT:      -6.8      4.210      6.150
REMARK  Name = 
REMARK  5 active torsions:
REMARK  status: ('A' for Active; 'I' for Inactive)
REMARK    1  A    between atoms: CB_1  and  CA_2
REMARK    2  A    between atoms: CA_2  and  C_3
REMARK    3  A    between atoms: CA_2  and  N_5
REMARK    4  A    between atoms: C_6  and  C_8
REMARK    5  A    between atoms: C_12  and  C_13
REMARK                            x       y       z     vdW  Elec       q    Type
REMARK                         _______ _______ _______ _____ _____    ______ ____
ROOT
ATOM      1  C   UNK A   0       5.423   4.340  18.537  0.00  0.00    +0.000 A 
ATOM      2  C   UNK A   0       6.350   5.164  19.204  0.00  0.00    +0.000 A 
ATOM      3  C   UNK A   0       7.315   5.878  18.500  0.00  0.00    +0.000 A 
ATOM      4  C   UNK A   0       7.370   5.779  17.114  0.00  0.00    +0.000 A 
ATOM      5  C   UNK A   0       6.447   4.983  16.411  0.00  0.00    +0.000 A 
ATOM      6  C   UNK A   0       5.458   4.276  17.128  0.00  0.00    +0.000 A 
ATOM      7 CL   UNK A   0       4.277   3.369  16.232  0.00  0.00    +0.000 Cl
ENDROOT
BRANCH   1   9
ATOM      8  N   ALA A   1       3.160   3.867  19.385  0.00  0.00    +0.000 N 
ATOM      9  C   UNK A   0       4.500   3.571  19.433  0.00  0.00    +0.000 C 
ATOM     10  O   UNK A   0       4.934   2.653  20.121  0.00  0.00    +0.000 OA
ATOM     11  H   ALA A   1       2.836   4.615  18.783  0.00  0.00    +0.000 HD
BRANCH   8  13
ATOM     12  CB  ALA A   1       1.111   4.057  20.712  0.00  0.00    +0.000 C 
ATOM     13  CA  ALA A   1       2.162   3.119  20.141  0.00  0.00    +0.000 C 
BRANCH  13  14
ATOM     14  C   ALA A   1       1.533   2.077  19.221  0.00  0.00    +0.000 C 
ATOM     15  O   ALA A   1       0.642   2.323  18.409  0.00  0.00    +0.000 OA
ENDBRANCH  13  14
ENDBRANCH   8  13
ENDBRANCH   1   9
BRANCH   5  16
ATOM     16  C   UNK A   0       6.559   4.890  14.908  0.00  0.00    +0.000 C 
ATOM     17  F   UNK A   0       7.677   5.496  14.415  0.00  0.00    +0.000 F 
ATOM     18  F   UNK A   0       6.626   3.603  14.468  0.00  0.00    +0.000 F 
ATOM     19  F   UNK A   0       5.517   5.470  14.254  0.00  0.00    +0.000 F 
ENDBRANCH   5  16
TORSDOF 4
ENDMDL
