MODEL 1
REMARK VINA RESULT:      -7.2      0.000      0.000
REMARK  Name = 
REMARK  12 active torsions:
REMARK  status: ('A' for Active; 'I' for Inactive)
REMARK    1  A    between atoms: C_2  and  C_3
REMARK    2  A    between atoms: C_3  and  C_4
REMARK    3  A    between atoms: N_9  and  C_10
REMARK    4  A    between atoms: C_13  and  C_14
REMARK    5  A    between atoms: C_14  and  C_15
REMARK    6  A    between atoms: C_15  and  N_16
REMARK    7  A    between atoms: N_16  and  C_17
REMARK    8  A    between atoms: C_17  and  C_18
REMARK    9  A    between atoms: C_18  and  O_19
REMARK   10  A    between atoms: C_18  and  C_20
REMARK   11  A    between atoms: C_20  and  O_21
REMARK   12  A    between atoms: O_21  and  C_22
REMARK                            x       y       z     vdW  Elec       q    Type
REMARK                         _______ _______ _______ _____ _____    ______ ____
ROOT
ATOM      1  C   UNL     1       7.583   7.762  17.714  0.00  0.00    +0.000 A 
ATOM      2  C   UNL     1       8.110   6.864  18.644  0.00  0.00    +0.000 A 
ATOM      3  C   UNL     1       7.440   5.677  18.954  0.00  0.00    +0.000 A 
ATOM      4  C   UNL     1       6.217   5.366  18.353  0.00  0.00    +0.000 A 
ATOM      5  C   UNL     1       5.712   6.239  17.382  0.00  0.00    +0.000 A 
ATOM      6  C   UNL     1       6.386   7.431  17.072  0.00  0.00    +0.000 A 
ENDROOT
BRANCH   1   9
ATOM      7  O   UNL     1       9.053   9.548  19.522  0.00  0.00    +0.000 OA
ATOM      8  C   UNL     1       8.800   9.844  18.350  0.00  0.00    +0.000 C 
ATOM      9  N   UNL     1       8.179   9.012  17.438  0.00  0.00    +0.000 N 
ATOM     10  H   UNL     1       8.184   9.322  16.463  0.00  0.00    +0.000 HD
BRANCH   8  11
ATOM     11  C   UNL     1       9.131  11.249  17.880  0.00  0.00    +0.000 C 
BRANCH  11  12
ATOM     12  C   UNL     1      10.139  11.945  18.720  0.00  0.00    +0.000 A 
ATOM     13  N   UNL     1       9.955  13.053  19.411  0.00  0.00    +0.000 NA
ATOM     14  C   UNL     1      11.113  13.243  20.121  0.00  0.00    +0.000 A 
ATOM     15  C   UNL     1      12.028  12.259  19.831  0.00  0.00    +0.000 A 
ATOM     16  N   UNL     1      11.402  11.445  18.927  0.00  0.00    +0.000 N 
ATOM     17  H   UNL     1      11.787  10.609  18.508  0.00  0.00    +0.000 HD
ENDBRANCH  11  12
ENDBRANCH   8  11
ENDBRANCH   1   9
BRANCH   4  18
ATOM     18  C   UNL     1       5.461   4.124  18.766  0.00  0.00    +0.000 C 
BRANCH  18  19
ATOM     19  C   UNL     1       4.560   3.600  17.632  0.00  0.00    +0.000 C 
BRANCH  19  20
ATOM     20  N   UNL     1       3.943   2.311  17.986  0.00  0.00    +0.000 NA
ATOM     21  H   UNL     1       4.047   2.185  18.992  0.00  0.00    +0.000 HD
BRANCH  20  22
ATOM     22  C   UNL     1       2.506   2.330  17.646  0.00  0.00    +0.000 C 
BRANCH  22  23
ATOM     23  C   UNL     1       1.594   2.290  18.891  0.00  0.00    +0.000 C 
BRANCH  23  24
ATOM     24  O   UNL     1       0.498   1.401  18.634  0.00  0.00    +0.000 OA
ATOM     25  H   UNL     1       0.307   1.454  17.684  0.00  0.00    +0.000 HD
ENDBRANCH  23  24
BRANCH  23  26
ATOM     26  C   UNL     1       1.114   3.695  19.290  0.00  0.00    +0.000 C 
BRANCH  26  27
ATOM     27  O   UNL     1       2.214   4.466  19.796  0.00  0.00    +0.000 OA
BRANCH  27  28
ATOM     28  C   UNL     1       2.134   5.808  19.540  0.00  0.00    +0.000 A 
ATOM     29  C   UNL     1       1.756   6.621  20.610  0.00  0.00    +0.000 A 
ATOM     30  C   UNL     1       1.628   8.002  20.439  0.00  0.00    +0.000 A 
ATOM     31  C   UNL     1       1.900   8.576  19.198  0.00  0.00    +0.000 A 
ATOM     32  C   UNL     1       2.314   7.776  18.137  0.00  0.00    +0.000 A 
ATOM     33  C   UNL     1       2.439   6.396  18.305  0.00  0.00    +0.000 A 
ENDBRANCH  27  28
ENDBRANCH  26  27
ENDBRANCH  23  26
ENDBRANCH  22  23
ENDBRANCH  20  22
ENDBRANCH  19  20
ENDBRANCH  18  19
ENDBRANCH   4  18
TORSDOF 12
ENDMDL
MODEL 2
REMARK VINA RESULT:      -7.1      4.836      7.625
REMARK  Name = 
REMARK  12 active torsions:
REMARK  status: ('A' for Active; 'I' for Inactive)
REMARK    1  A    between atoms: C_2  and  C_3
REMARK    2  A    between atoms: C_3  and  C_4
REMARK    3  A    between atoms: N_9  and  C_10
REMARK    4  A    between atoms: C_13  and  C_14
REMARK    5  A    between atoms: C_14  and  C_15
REMARK    6  A    between atoms: C_15  and  N_16
REMARK    7  A    between atoms: N_16  and  C_17
REMARK    8  A    between atoms: C_17  and  C_18
REMARK    9  A    between atoms: C_18  and  O_19
REMARK   10  A    between atoms: C_18  and  C_20
REMARK   11  A    between atoms: C_20  and  O_21
REMARK   12  A    between atoms: O_21  and  C_22
REMARK                            x       y       z     vdW  Elec       q    Type
REMARK                         _______ _______ _______ _____ _____    ______ ____
ROOT
ATOM      1  C   UNL     1       1.045   9.154  19.179  0.00  0.00    +0.000 A 
ATOM      2  C   UNL     1       0.966   8.606  20.460  0.00  0.00    +0.000 A 
ATOM      3  C   UNL     1       1.658   7.435  20.783  0.00  0.00    +0.000 A 
ATOM      4  C   UNL     1       2.434   6.774  19.826  0.00  0.00    +0.000 A 
ATOM      5  C   UNL     1       2.557   7.350  18.556  0.00  0.00    +0.000 A 
ATOM      6  C   UNL     1       1.860   8.525  18.234  0.00  0.00    +0.000 A 
ENDROOT
BRANCH   1   9
ATOM      7  O   UNL     1       1.907  11.949  18.918  0.00  0.00    +0.000 OA
ATOM      8  C   UNL     1       0.737  11.591  18.747  0.00  0.00    +0.000 C 
ATOM      9  N   UNL     1       0.294  10.283  18.784  0.00  0.00    +0.000 N 
ATOM     10  H   UNL     1      -0.662  10.118  18.461  0.00  0.00    +0.000 HD
BRANCH   8  11
ATOM     11  C   UNL     1      -0.317  12.666  18.547  0.00  0.00    +0.000 C 
BRANCH  11  12
ATOM     12  C   UNL     1      -1.665  12.135  18.220  0.00  0.00    +0.000 A 
ATOM     13  N   UNL     1      -2.646  11.904  19.071  0.00  0.00    +0.000 NA
ATOM     14  C   UNL     1      -3.724  11.543  18.303  0.00  0.00    +0.000 A 
ATOM     15  C   UNL     1      -3.387  11.520  16.972  0.00  0.00    +0.000 A 
ATOM     16  N   UNL     1      -2.069  11.884  16.930  0.00  0.00    +0.000 N 
ATOM     17  H   UNL     1      -1.501  11.982  16.100  0.00  0.00    +0.000 HD
ENDBRANCH  11  12
ENDBRANCH   8  11
ENDBRANCH   1   9
BRANCH   4  18
ATOM     18  C   UNL     1       3.102   5.460  20.165  0.00  0.00    +0.000 C 
BRANCH  18  19
ATOM     19  C   UNL     1       2.220   4.590  21.079  0.00  0.00    +0.000 C 
BRANCH  19  20
ATOM     20  N   UNL     1       2.047   3.235  20.529  0.00  0.00    +0.000 NA
ATOM     21  H   UNL     1       1.566   2.675  21.233  0.00  0.00    +0.000 HD
BRANCH  20  22
ATOM     22  C   UNL     1       1.220   3.290  19.306  0.00  0.00    +0.000 C 
BRANCH  22  23
ATOM     23  C   UNL     1       1.853   2.532  18.119  0.00  0.00    +0.000 C 
BRANCH  23  24
ATOM     24  O   UNL     1       2.606   1.422  18.626  0.00  0.00    +0.000 OA
ATOM     25  H   UNL     1       3.113   1.748  19.388  0.00  0.00    +0.000 HD
ENDBRANCH  23  24
BRANCH  23  26
ATOM     26  C   UNL     1       2.713   3.460  17.246  0.00  0.00    +0.000 C 
BRANCH  26  27
ATOM     27  O   UNL     1       4.042   2.931  17.127  0.00  0.00    +0.000 OA
BRANCH  27  28
ATOM     28  C   UNL     1       5.004   3.864  16.844  0.00  0.00    +0.000 A 
ATOM     29  C   UNL     1       5.665   4.423  17.939  0.00  0.00    +0.000 A 
ATOM     30  C   UNL     1       6.648   5.398  17.750  0.00  0.00    +0.000 A 
ATOM     31  C   UNL     1       6.986   5.802  16.460  0.00  0.00    +0.000 A 
ATOM     32  C   UNL     1       6.358   5.222  15.362  0.00  0.00    +0.000 A 
ATOM     33  C   UNL     1       5.373   4.250  15.549  0.00  0.00    +0.000 A 
ENDBRANCH  27  28
ENDBRANCH  26  27
ENDBRANCH  23  26
ENDBRANCH  22  23
ENDBRANCH  20  22
ENDBRANCH  19  20
ENDBRANCH  18  19
ENDBRANCH   4  18
TORSDOF 12
ENDMDL
MODEL 3
REMARK VINA RESULT:      -7.1      4.646      7.961
REMARK  Name = 
REMARK  12 active torsions:
REMARK  status: ('A' for Active; 'I' for Inactive)
REMARK    1  A    between atoms: C_2  and  C_3
REMARK    2  A    between atoms: C_3  and  C_4
REMARK    3  A    between atoms: N_9  and  C_10
REMARK    4  A    between atoms: C_13  and  C_14
REMARK    5  A    between atoms: C_14  and  C_15
REMARK    6  A    between atoms: C_15  and  N_16
REMARK    7  A    between atoms: N_16  and  C_17
REMARK    8  A    between atoms: C_17  and  C_18
REMARK    9  A    between atoms: C_18  and  O_19
REMARK   10  A    between atoms: C_18  and  C_20
REMARK   11  A    between atoms: C_20  and  O_21
REMARK   12  A    between atoms: O_21  and  C_22
REMARK                            x       y       z     vdW  Elec       q    Type
REMARK                         _______ _______ _______ _____ _____    ______ ____
ROOT
ATOM      1  C   UNL     1       1.043   8.696  19.934  0.00  0.00    +0.000 A 
ATOM      2  C   UNL     1       1.244   9.311  18.698  0.00  0.00    +0.000 A 
ATOM      3  C   UNL     1       2.151   8.784  17.774  0.00  0.00    +0.000 A 
ATOM      4  C   UNL     1       2.893   7.637  18.072  0.00  0.00    +0.000 A 
ATOM      5  C   UNL     1       2.654   6.989  19.290  0.00  0.00    +0.000 A 
ATOM      6  C   UNL     1       1.743   7.520  20.216  0.00  0.00    +0.000 A 
ENDROOT
BRANCH   1   9
ATOM      7  O   UNL     1       1.331  11.218  21.411  0.00  0.00    +0.000 OA
ATOM      8  C   UNL     1       0.429  10.406  21.644  0.00  0.00    +0.000 C 
ATOM      9  N   UNL     1       0.205   9.243  20.931  0.00  0.00    +0.000 N 
ATOM     10  H   UNL     1      -0.671   8.753  21.125  0.00  0.00    +0.000 HD
BRANCH   8  11
ATOM     11  C   UNL     1      -0.467  10.657  22.844  0.00  0.00    +0.000 C 
BRANCH  11  12
ATOM     12  C   UNL     1      -1.612  11.560  22.563  0.00  0.00    +0.000 A 
ATOM     13  N   UNL     1      -1.885  12.148  21.414  0.00  0.00    +0.000 NA
ATOM     14  C   UNL     1      -3.092  12.774  21.597  0.00  0.00    +0.000 A 
ATOM     15  C   UNL     1      -3.542  12.596  22.883  0.00  0.00    +0.000 A 
ATOM     16  N   UNL     1      -2.585  11.833  23.494  0.00  0.00    +0.000 N 
ATOM     17  H   UNL     1      -2.603  11.503  24.450  0.00  0.00    +0.000 HD
ENDBRANCH  11  12
ENDBRANCH   8  11
ENDBRANCH   1   9
BRANCH   4  18
ATOM     18  C   UNL     1       3.935   7.132  17.101  0.00  0.00    +0.000 C 
BRANCH  18  19
ATOM     19  C   UNL     1       5.353   7.200  17.698  0.00  0.00    +0.000 C 
BRANCH  19  20
ATOM     20  N   UNL     1       6.310   6.413  16.904  0.00  0.00    +0.000 NA
ATOM     21  H   UNL     1       6.916   7.069  16.410  0.00  0.00    +0.000 HD
BRANCH  20  22
ATOM     22  C   UNL     1       7.134   5.572  17.796  0.00  0.00    +0.000 C 
BRANCH  22  23
ATOM     23  C   UNL     1       6.544   5.447  19.217  0.00  0.00    +0.000 C 
BRANCH  23  24
ATOM     24  O   UNL     1       7.609   5.559  20.172  0.00  0.00    +0.000 OA
ATOM     25  H   UNL     1       8.351   5.992  19.720  0.00  0.00    +0.000 HD
ENDBRANCH  23  24
BRANCH  23  26
ATOM     26  C   UNL     1       5.750   4.142  19.391  0.00  0.00    +0.000 C 
BRANCH  26  27
ATOM     27  O   UNL     1       4.895   3.932  18.257  0.00  0.00    +0.000 OA
BRANCH  27  28
ATOM     28  C   UNL     1       3.590   3.662  18.570  0.00  0.00    +0.000 A 
ATOM     29  C   UNL     1       3.325   3.353  19.904  0.00  0.00    +0.000 A 
ATOM     30  C   UNL     1       2.025   3.043  20.314  0.00  0.00    +0.000 A 
ATOM     31  C   UNL     1       0.983   3.063  19.390  0.00  0.00    +0.000 A 
ATOM     32  C   UNL     1       1.233   3.408  18.065  0.00  0.00    +0.000 A 
ATOM     33  C   UNL     1       2.531   3.713  17.653  0.00  0.00    +0.000 A 
ENDBRANCH  27  28
ENDBRANCH  26  27
ENDBRANCH  23  26
ENDBRANCH  22  23
ENDBRANCH  20  22
ENDBRANCH  19  20
ENDBRANCH  18  19
ENDBRANCH   4  18
TORSDOF 12
ENDMDL
MODEL 4
REMARK VINA RESULT:      -7.0      4.816      7.953
REMARK  Name = 
REMARK  12 active torsions:
REMARK  status: ('A' for Active; 'I' for Inactive)
REMARK    1  A    between atoms: C_2  and  C_3
REMARK    2  A    between atoms: C_3  and  C_4
REMARK    3  A    between atoms: N_9  and  C_10
REMARK    4  A    between atoms: C_13  and  C_14
REMARK    5  A    between atoms: C_14  and  C_15
REMARK    6  A    between atoms: C_15  and  N_16
REMARK    7  A    between atoms: N_16  and  C_17
REMARK    8  A    between atoms: C_17  and  C_18
REMARK    9  A    between atoms: C_18  and  O_19
REMARK   10  A    between atoms: C_18  and  C_20
REMARK   11  A    between atoms: C_20  and  O_21
REMARK   12  A    between atoms: O_21  and  C_22
REMARK                            x       y       z     vdW  Elec       q    Type
REMARK                         _______ _______ _______ _____ _____    ______ ____
ROOT
ATOM      1  C   UNL     1       0.865   9.444  18.999  0.00  0.00    +0.000 A 
ATOM      2  C   UNL     1       1.040   8.802  20.226  0.00  0.00    +0.000 A 
ATOM      3  C   UNL     1       1.929   7.732  20.355  0.00  0.00    +0.000 A 
ATOM      4  C   UNL     1       2.653   7.265  19.254  0.00  0.00    +0.000 A 
ATOM      5  C   UNL     1       2.519   7.939  18.035  0.00  0.00    +0.000 A 
ATOM      6  C   UNL     1       1.624   9.014  17.908  0.00  0.00    +0.000 A 
ENDROOT
BRANCH   1   9
ATOM      7  O   UNL     1       1.231  12.354  19.128  0.00  0.00    +0.000 OA
ATOM      8  C   UNL     1       0.129  11.827  18.946  0.00  0.00    +0.000 C 
ATOM      9  N   UNL     1      -0.087  10.469  18.803  0.00  0.00    +0.000 N 
ATOM     10  H   UNL     1      -1.019  10.188  18.492  0.00  0.00    +0.000 HD
BRANCH   8  11
ATOM     11  C   UNL     1      -1.100  12.719  18.944  0.00  0.00    +0.000 C 
BRANCH  11  12
ATOM     12  C   UNL     1      -2.270  12.132  18.244  0.00  0.00    +0.000 A 
ATOM     13  N   UNL     1      -2.247  11.429  17.128  0.00  0.00    +0.000 NA
ATOM     14  C   UNL     1      -3.535  10.998  16.935  0.00  0.00    +0.000 A 
ATOM     15  C   UNL     1      -4.360  11.475  17.925  0.00  0.00    +0.000 A 
ATOM     16  N   UNL     1      -3.548  12.207  18.746  0.00  0.00    +0.000 N 
ATOM     17  H   UNL     1      -3.828  12.693  19.587  0.00  0.00    +0.000 HD
ENDBRANCH  11  12
ENDBRANCH   8  11
ENDBRANCH   1   9
BRANCH   4  18
ATOM     18  C   UNL     1       3.542   6.049  19.388  0.00  0.00    +0.000 C 
BRANCH  18  19
ATOM     19  C   UNL     1       4.696   6.069  18.369  0.00  0.00    +0.000 C 
BRANCH  19  20
ATOM     20  N   UNL     1       5.531   4.862  18.477  0.00  0.00    +0.000 NA
ATOM     21  H   UNL     1       4.921   4.086  18.734  0.00  0.00    +0.000 HD
BRANCH  20  22
ATOM     22  C   UNL     1       6.164   4.569  17.174  0.00  0.00    +0.000 C 
BRANCH  22  23
ATOM     23  C   UNL     1       5.269   3.718  16.249  0.00  0.00    +0.000 C 
BRANCH  23  24
ATOM     24  O   UNL     1       5.209   4.342  14.959  0.00  0.00    +0.000 OA
ATOM     25  H   UNL     1       5.450   3.665  14.306  0.00  0.00    +0.000 HD
ENDBRANCH  23  24
BRANCH  23  26
ATOM     26  C   UNL     1       3.870   3.505  16.851  0.00  0.00    +0.000 C 
BRANCH  26  27
ATOM     27  O   UNL     1       3.923   2.507  17.881  0.00  0.00    +0.000 OA
BRANCH  27  28
ATOM     28  C   UNL     1       3.002   2.670  18.880  0.00  0.00    +0.000 A 
ATOM     29  C   UNL     1       3.474   2.529  20.186  0.00  0.00    +0.000 A 
ATOM     30  C   UNL     1       2.603   2.659  21.271  0.00  0.00    +0.000 A 
ATOM     31  C   UNL     1       1.258   2.951  21.051  0.00  0.00    +0.000 A 
ATOM     32  C   UNL     1       0.788   3.130  19.754  0.00  0.00    +0.000 A 
ATOM     33  C   UNL     1       1.656   2.998  18.668  0.00  0.00    +0.000 A 
ENDBRANCH  27  28
ENDBRANCH  26  27
ENDBRANCH  23  26
ENDBRANCH  22  23
ENDBRANCH  20  22
ENDBRANCH  19  20
ENDBRANCH  18  19
ENDBRANCH   4  18
TORSDOF 12
ENDMDL
MODEL 5
REMARK VINA RESULT:      -6.9      5.262      8.201
REMARK  Name = 
REMARK  12 active torsions:
REMARK  status: ('A' for Active; 'I' for Inactive)
REMARK    1  A    between atoms: C_2  and  C_3
REMARK    2  A    between atoms: C_3  and  C_4
REMARK    3  A    between atoms: N_9  and  C_10
REMARK    4  A    between atoms: C_13  and  C_14
REMARK    5  A    between atoms: C_14  and  C_15
REMARK    6  A    between atoms: C_15  and  N_16
REMARK    7  A    between atoms: N_16  and  C_17
REMARK    8  A    between atoms: C_17  and  C_18
REMARK    9  A    between atoms: C_18  and  O_19
REMARK   10  A    between atoms: C_18  and  C_20
REMARK   11  A    between atoms: C_20  and  O_21
REMARK   12  A    between atoms: O_21  and  C_22
REMARK                            x       y       z     vdW  Elec       q    Type
REMARK                         _______ _______ _______ _____ _____    ______ ____
ROOT
ATOM      1  C   UNL     1       0.415   9.530  20.256  0.00  0.00    +0.000 A 
ATOM      2  C   UNL     1       1.262   8.470  20.585  0.00  0.00    +0.000 A 
ATOM      3  C   UNL     1       2.085   7.883  19.620  0.00  0.00    +0.000 A 
ATOM      4  C   UNL     1       2.069   8.331  18.296  0.00  0.00    +0.000 A 
ATOM      5  C   UNL     1       1.260   9.427  17.974  0.00  0.00    +0.000 A 
ATOM      6  C   UNL     1       0.433  10.015  18.945  0.00  0.00    +0.000 A 
ENDROOT
BRANCH   1   9
ATOM      7  O   UNL     1       0.606  12.058  21.736  0.00  0.00    +0.000 OA
ATOM      8  C   UNL     1      -0.320  11.257  21.898  0.00  0.00    +0.000 C 
ATOM      9  N   UNL     1      -0.497  10.092  21.175  0.00  0.00    +0.000 N 
ATOM     10  H   UNL     1      -1.392   9.613  21.299  0.00  0.00    +0.000 HD
BRANCH   8  11
ATOM     11  C   UNL     1      -1.310  11.526  23.017  0.00  0.00    +0.000 C 
BRANCH  11  12
ATOM     12  C   UNL     1      -1.791  12.930  23.073  0.00  0.00    +0.000 A 
ATOM     13  N   UNL     1      -3.028  13.346  22.882  0.00  0.00    +0.000 NA
ATOM     14  C   UNL     1      -3.013  14.689  23.156  0.00  0.00    +0.000 A 
ATOM     15  C   UNL     1      -1.745  15.106  23.482  0.00  0.00    +0.000 A 
ATOM     16  N   UNL     1      -0.971  13.980  23.413  0.00  0.00    +0.000 N 
ATOM     17  H   UNL     1       0.020  13.923  23.605  0.00  0.00    +0.000 HD
ENDBRANCH  11  12
ENDBRANCH   8  11
ENDBRANCH   1   9
BRANCH   4  18
ATOM     18  C   UNL     1       2.897   7.627  17.245  0.00  0.00    +0.000 C 
BRANCH  18  19
ATOM     19  C   UNL     1       4.259   7.171  17.801  0.00  0.00    +0.000 C 
BRANCH  19  20
ATOM     20  N   UNL     1       5.232   6.941  16.721  0.00  0.00    +0.000 NA
ATOM     21  H   UNL     1       5.563   7.852  16.404  0.00  0.00    +0.000 HD
BRANCH  20  22
ATOM     22  C   UNL     1       6.378   6.161  17.233  0.00  0.00    +0.000 C 
BRANCH  22  23
ATOM     23  C   UNL     1       6.657   4.889  16.404  0.00  0.00    +0.000 C 
BRANCH  23  24
ATOM     24  O   UNL     1       7.523   5.229  15.312  0.00  0.00    +0.000 OA
ATOM     25  H   UNL     1       8.397   4.858  15.518  0.00  0.00    +0.000 HD
ENDBRANCH  23  24
BRANCH  23  26
ATOM     26  C   UNL     1       5.355   4.228  15.922  0.00  0.00    +0.000 C 
BRANCH  26  27
ATOM     27  O   UNL     1       4.952   3.205  16.845  0.00  0.00    +0.000 OA
BRANCH  27  28
ATOM     28  C   UNL     1       3.938   3.568  17.690  0.00  0.00    +0.000 A 
ATOM     29  C   UNL     1       2.679   3.733  17.111  0.00  0.00    +0.000 A 
ATOM     30  C   UNL     1       1.587   4.122  17.891  0.00  0.00    +0.000 A 
ATOM     31  C   UNL     1       1.749   4.328  19.260  0.00  0.00    +0.000 A 
ATOM     32  C   UNL     1       2.993   4.128  19.850  0.00  0.00    +0.000 A 
ATOM     33  C   UNL     1       4.086   3.743  19.072  0.00  0.00    +0.000 A 
ENDBRANCH  27  28
ENDBRANCH  26  27
ENDBRANCH  23  26
ENDBRANCH  22  23
ENDBRANCH  20  22
ENDBRANCH  19  20
ENDBRANCH  18  19
ENDBRANCH   4  18
TORSDOF 12
ENDMDL
MODEL 6
REMARK VINA RESULT:      -6.9      4.923      7.311
REMARK  Name = 
REMARK  12 active torsions:
REMARK  status: ('A' for Active; 'I' for Inactive)
REMARK    1  A    between atoms: C_2  and  C_3
REMARK    2  A    between atoms: C_3  and  C_4
REMARK    3  A    between atoms: N_9  and  C_10
REMARK    4  A    between atoms: C_13  and  C_14
REMARK    5  A    between atoms: C_14  and  C_15
REMARK    6  A    between atoms: C_15  and  N_16
REMARK    7  A    between atoms: N_16  and  C_17
REMARK    8  A    between atoms: C_17  and  C_18
REMARK    9  A    between atoms: C_18  and  O_19
REMARK   10  A    between atoms: C_18  and  C_20
REMARK   11  A    between atoms: C_20  and  O_21
REMARK   12  A    between atoms: O_21  and  C_22
REMARK                            x       y       z     vdW  Elec       q    Type
REMARK                         _______ _______ _______ _____ _____    ______ ____
ROOT
ATOM      1  C   UNL     1       1.049   9.702  19.367  0.00  0.00    +0.000 A 
ATOM      2  C   UNL     1       0.976   9.073  20.611  0.00  0.00    +0.000 A 
ATOM      3  C   UNL     1       1.529   7.804  20.806  0.00  0.00    +0.000 A 
ATOM      4  C   UNL     1       2.154   7.125  19.756  0.00  0.00    +0.000 A 
ATOM      5  C   UNL     1       2.275   7.775  18.522  0.00  0.00    +0.000 A 
ATOM      6  C   UNL     1       1.718   9.050  18.328  0.00  0.00    +0.000 A 
ENDROOT
BRANCH   1   9
ATOM      7  O   UNL     1      -1.726  10.246  18.575  0.00  0.00    +0.000 OA
ATOM      8  C   UNL     1      -0.869  11.132  18.663  0.00  0.00    +0.000 C 
ATOM      9  N   UNL     1       0.427  10.942  19.101  0.00  0.00    +0.000 N 
ATOM     10  H   UNL     1       0.974  11.787  19.281  0.00  0.00    +0.000 HD
BRANCH   8  11
ATOM     11  C   UNL     1      -1.235  12.529  18.192  0.00  0.00    +0.000 C 
BRANCH  11  12
ATOM     12  C   UNL     1      -0.862  13.604  19.146  0.00  0.00    +0.000 A 
ATOM     13  N   UNL     1      -0.678  13.472  20.446  0.00  0.00    +0.000 NA
ATOM     14  C   UNL     1      -0.229  14.693  20.881  0.00  0.00    +0.000 A 
ATOM     15  C   UNL     1      -0.173  15.589  19.842  0.00  0.00    +0.000 A 
ATOM     16  N   UNL     1      -0.592  14.890  18.744  0.00  0.00    +0.000 N 
ATOM     17  H   UNL     1      -0.663  15.245  17.799  0.00  0.00    +0.000 HD
ENDBRANCH  11  12
ENDBRANCH   8  11
ENDBRANCH   1   9
BRANCH   4  18
ATOM     18  C   UNL     1       2.666   5.717  19.958  0.00  0.00    +0.000 C 
BRANCH  18  19
ATOM     19  C   UNL     1       1.686   4.867  20.787  0.00  0.00    +0.000 C 
BRANCH  19  20
ATOM     20  N   UNL     1       1.143   3.748  19.998  0.00  0.00    +0.000 NA
ATOM     21  H   UNL     1       0.127   3.832  20.002  0.00  0.00    +0.000 HD
BRANCH  20  22
ATOM     22  C   UNL     1       1.631   3.831  18.606  0.00  0.00    +0.000 C 
BRANCH  22  23
ATOM     23  C   UNL     1       2.055   2.460  18.036  0.00  0.00    +0.000 C 
BRANCH  23  24
ATOM     24  O   UNL     1       1.411   1.425  18.791  0.00  0.00    +0.000 OA
ATOM     25  H   UNL     1       0.568   1.233  18.348  0.00  0.00    +0.000 HD
ENDBRANCH  23  24
BRANCH  23  26
ATOM     26  C   UNL     1       3.584   2.298  18.025  0.00  0.00    +0.000 C 
BRANCH  26  27
ATOM     27  O   UNL     1       4.212   3.525  18.425  0.00  0.00    +0.000 OA
BRANCH  27  28
ATOM     28  C   UNL     1       5.082   4.046  17.504  0.00  0.00    +0.000 A 
ATOM     29  C   UNL     1       6.308   4.495  17.996  0.00  0.00    +0.000 A 
ATOM     30  C   UNL     1       7.252   5.060  17.134  0.00  0.00    +0.000 A 
ATOM     31  C   UNL     1       6.977   5.159  15.772  0.00  0.00    +0.000 A 
ATOM     32  C   UNL     1       5.771   4.680  15.269  0.00  0.00    +0.000 A 
ATOM     33  C   UNL     1       4.826   4.118  16.128  0.00  0.00    +0.000 A 
ENDBRANCH  27  28
ENDBRANCH  26  27
ENDBRANCH  23  26
ENDBRANCH  22  23
ENDBRANCH  20  22
ENDBRANCH  19  20
ENDBRANCH  18  19
ENDBRANCH   4  18
TORSDOF 12
ENDMDL
MODEL 7
REMARK VINA RESULT:      -6.9      4.688      6.962
REMARK  Name = 
REMARK  12 active torsions:
REMARK  status: ('A' for Active; 'I' for Inactive)
REMARK    1  A    between atoms: C_2  and  C_3
REMARK    2  A    between atoms: C_3  and  C_4
REMARK    3  A    between atoms: N_9  and  C_10
REMARK    4  A    between atoms: C_13  and  C_14
REMARK    5  A    between atoms: C_14  and  C_15
REMARK    6  A    between atoms: C_15  and  N_16
REMARK    7  A    between atoms: N_16  and  C_17
REMARK    8  A    between atoms: C_17  and  C_18
REMARK    9  A    between atoms: C_18  and  O_19
REMARK   10  A    between atoms: C_18  and  C_20
REMARK   11  A    between atoms: C_20  and  O_21
REMARK   12  A    between atoms: O_21  and  C_22
REMARK                            x       y       z     vdW  Elec       q    Type
REMARK                         _______ _______ _______ _____ _____    ______ ____
ROOT
ATOM      1  C   UNL     1       1.274   9.620  19.189  0.00  0.00    +0.000 A 
ATOM      2  C   UNL     1       1.148   9.127  20.489  0.00  0.00    +0.000 A 
ATOM      3  C   UNL     1       1.577   7.837  20.811  0.00  0.00    +0.000 A 
ATOM      4  C   UNL     1       2.127   7.000  19.836  0.00  0.00    +0.000 A 
ATOM      5  C   UNL     1       2.303   7.510  18.544  0.00  0.00    +0.000 A 
ATOM      6  C   UNL     1       1.871   8.807  18.222  0.00  0.00    +0.000 A 
ENDROOT
BRANCH   1   9
ATOM      7  O   UNL     1      -1.506  10.563  19.118  0.00  0.00    +0.000 OA
ATOM      8  C   UNL     1      -0.558  11.247  18.720  0.00  0.00    +0.000 C 
ATOM      9  N   UNL     1       0.773  10.882  18.799  0.00  0.00    +0.000 N 
ATOM     10  H   UNL     1       1.457  11.611  18.586  0.00  0.00    +0.000 HD
BRANCH   8  11
ATOM     11  C   UNL     1      -0.866  12.562  18.026  0.00  0.00    +0.000 C 
BRANCH  11  12
ATOM     12  C   UNL     1      -0.115  13.722  18.571  0.00  0.00    +0.000 A 
ATOM     13  N   UNL     1       1.195  13.824  18.689  0.00  0.00    +0.000 NA
ATOM     14  C   UNL     1       1.428  15.106  19.118  0.00  0.00    +0.000 A 
ATOM     15  C   UNL     1       0.246  15.781  19.298  0.00  0.00    +0.000 A 
ATOM     16  N   UNL     1      -0.732  14.887  18.960  0.00  0.00    +0.000 N 
ATOM     17  H   UNL     1      -1.728  15.058  18.967  0.00  0.00    +0.000 HD
ENDBRANCH  11  12
ENDBRANCH   8  11
ENDBRANCH   1   9
BRANCH   4  18
ATOM     18  C   UNL     1       2.502   5.576  20.179  0.00  0.00    +0.000 C 
BRANCH  18  19
ATOM     19  C   UNL     1       1.708   4.558  19.340  0.00  0.00    +0.000 C 
BRANCH  19  20
ATOM     20  N   UNL     1       1.700   3.229  19.973  0.00  0.00    +0.000 NA
ATOM     21  H   UNL     1       1.727   2.532  19.228  0.00  0.00    +0.000 HD
BRANCH  20  22
ATOM     22  C   UNL     1       2.894   3.070  20.828  0.00  0.00    +0.000 C 
BRANCH  22  23
ATOM     23  C   UNL     1       3.919   2.072  20.248  0.00  0.00    +0.000 C 
BRANCH  23  24
ATOM     24  O   UNL     1       4.972   1.881  21.204  0.00  0.00    +0.000 OA
ATOM     25  H   UNL     1       5.718   2.432  20.917  0.00  0.00    +0.000 HD
ENDBRANCH  23  24
BRANCH  23  26
ATOM     26  C   UNL     1       4.457   2.537  18.885  0.00  0.00    +0.000 C 
BRANCH  26  27
ATOM     27  O   UNL     1       5.408   3.597  19.066  0.00  0.00    +0.000 OA
BRANCH  27  28
ATOM     28  C   UNL     1       5.387   4.554  18.088  0.00  0.00    +0.000 A 
ATOM     29  C   UNL     1       4.980   4.135  16.820  0.00  0.00    +0.000 A 
ATOM     30  C   UNL     1       4.946   5.037  15.754  0.00  0.00    +0.000 A 
ATOM     31  C   UNL     1       5.300   6.369  15.959  0.00  0.00    +0.000 A 
ATOM     32  C   UNL     1       5.671   6.803  17.229  0.00  0.00    +0.000 A 
ATOM     33  C   UNL     1       5.709   5.902  18.295  0.00  0.00    +0.000 A 
ENDBRANCH  27  28
ENDBRANCH  26  27
ENDBRANCH  23  26
ENDBRANCH  22  23
ENDBRANCH  20  22
ENDBRANCH  19  20
ENDBRANCH  18  19
ENDBRANCH   4  18
TORSDOF 12
ENDMDL
MODEL 8
REMARK VINA RESULT:      -6.9      4.672      6.630
REMARK  Name = 
REMARK  12 active torsions:
REMARK  status: ('A' for Active; 'I' for Inactive)
REMARK    1  A    between atoms: C_2  and  C_3
REMARK    2  A    between atoms: C_3  and  C_4
REMARK    3  A    between atoms: N_9  and  C_10
REMARK    4  A    between atoms: C_13  and  C_14
REMARK    5  A    between atoms: C_14  and  C_15
REMARK    6  A    between atoms: C_15  and  N_16
REMARK    7  A    between atoms: N_16  and  C_17
REMARK    8  A    between atoms: C_17  and  C_18
REMARK    9  A    between atoms: C_18  and  O_19
REMARK   10  A    between atoms: C_18  and  C_20
REMARK   11  A    between atoms: C_20  and  O_21
REMARK   12  A    between atoms: O_21  and  C_22
REMARK                            x       y       z     vdW  Elec       q    Type
REMARK                         _______ _______ _______ _____ _____    ______ ____
ROOT
ATOM      1  C   UNL     1       0.998   9.800  19.621  0.00  0.00    +0.000 A 
ATOM      2  C   UNL     1       1.690   9.099  18.633  0.00  0.00    +0.000 A 
ATOM      3  C   UNL     1       2.140   7.795  18.861  0.00  0.00    +0.000 A 
ATOM      4  C   UNL     1       1.923   7.167  20.090  0.00  0.00    +0.000 A 
ATOM      5  C   UNL     1       1.184   7.848  21.064  0.00  0.00    +0.000 A 
ATOM      6  C   UNL     1       0.733   9.158  20.834  0.00  0.00    +0.000 A 
ENDROOT
BRANCH   1   9
ATOM      7  O   UNL     1      -1.262  10.903  18.105  0.00  0.00    +0.000 OA
ATOM      8  C   UNL     1      -0.432  11.615  18.680  0.00  0.00    +0.000 C 
ATOM      9  N   UNL     1       0.604  11.148  19.467  0.00  0.00    +0.000 N 
ATOM     10  H   UNL     1       1.110  11.848  20.013  0.00  0.00    +0.000 HD
BRANCH   8  11
ATOM     11  C   UNL     1      -0.502  13.115  18.460  0.00  0.00    +0.000 C 
BRANCH  11  12
ATOM     12  C   UNL     1       0.816  13.797  18.523  0.00  0.00    +0.000 A 
ATOM     13  N   UNL     1       1.966  13.325  18.082  0.00  0.00    +0.000 NA
ATOM     14  C   UNL     1       2.869  14.345  18.240  0.00  0.00    +0.000 A 
ATOM     15  C   UNL     1       2.271  15.438  18.818  0.00  0.00    +0.000 A 
ATOM     16  N   UNL     1       0.967  15.074  19.008  0.00  0.00    +0.000 N 
ATOM     17  H   UNL     1       0.236  15.649  19.405  0.00  0.00    +0.000 HD
ENDBRANCH  11  12
ENDBRANCH   8  11
ENDBRANCH   1   9
BRANCH   4  18
ATOM     18  C   UNL     1       2.495   5.792  20.353  0.00  0.00    +0.000 C 
BRANCH  18  19
ATOM     19  C   UNL     1       1.421   4.694  20.237  0.00  0.00    +0.000 C 
BRANCH  19  20
ATOM     20  N   UNL     1       1.805   3.484  20.981  0.00  0.00    +0.000 NA
ATOM     21  H   UNL     1       1.084   3.310  21.681  0.00  0.00    +0.000 HD
BRANCH  20  22
ATOM     22  C   UNL     1       1.876   2.329  20.062  0.00  0.00    +0.000 C 
BRANCH  22  23
ATOM     23  C   UNL     1       2.515   2.682  18.702  0.00  0.00    +0.000 C 
BRANCH  23  24
ATOM     24  O   UNL     1       1.829   1.965  17.667  0.00  0.00    +0.000 OA
ATOM     25  H   UNL     1       1.207   2.587  17.256  0.00  0.00    +0.000 HD
ENDBRANCH  23  24
BRANCH  23  26
ATOM     26  C   UNL     1       4.027   2.399  18.694  0.00  0.00    +0.000 C 
BRANCH  26  27
ATOM     27  O   UNL     1       4.758   3.623  18.856  0.00  0.00    +0.000 OA
BRANCH  27  28
ATOM     28  C   UNL     1       4.957   4.324  17.696  0.00  0.00    +0.000 A 
ATOM     29  C   UNL     1       4.928   5.716  17.802  0.00  0.00    +0.000 A 
ATOM     30  C   UNL     1       5.101   6.515  16.669  0.00  0.00    +0.000 A 
ATOM     31  C   UNL     1       5.325   5.922  15.428  0.00  0.00    +0.000 A 
ATOM     32  C   UNL     1       5.394   4.536  15.322  0.00  0.00    +0.000 A 
ATOM     33  C   UNL     1       5.218   3.735  16.452  0.00  0.00    +0.000 A 
ENDBRANCH  27  28
ENDBRANCH  26  27
ENDBRANCH  23  26
ENDBRANCH  22  23
ENDBRANCH  20  22
ENDBRANCH  19  20
ENDBRANCH  18  19
ENDBRANCH   4  18
TORSDOF 12
ENDMDL
MODEL 9
REMARK VINA RESULT:      -6.8      4.538      7.288
REMARK  Name = 
REMARK  12 active torsions:
REMARK  status: ('A' for Active; 'I' for Inactive)
REMARK    1  A    between atoms: C_2  and  C_3
REMARK    2  A    between atoms: C_3  and  C_4
REMARK    3  A    between atoms: N_9  and  C_10
REMARK    4  A    between atoms: C_13  and  C_14
REMARK    5  A    between atoms: C_14  and  C_15
REMARK    6  A    between atoms: C_15  and  N_16
REMARK    7  A    between atoms: N_16  and  C_17
REMARK    8  A    between atoms: C_17  and  C_18
REMARK    9  A    between atoms: C_18  and  O_19
REMARK   10  A    between atoms: C_18  and  C_20
REMARK   11  A    between atoms: C_20  and  O_21
REMARK   12  A    between atoms: O_21  and  C_22
REMARK                            x       y       z     vdW  Elec       q    Type
REMARK                         _______ _______ _______ _____ _____    ______ ____
ROOT
ATOM      1  C   UNL     1       1.354   9.720  18.599  0.00  0.00    +0.000 A 
ATOM      2  C   UNL     1       2.068   8.878  17.744  0.00  0.00    +0.000 A 
ATOM      3  C   UNL     1       2.522   7.630  18.180  0.00  0.00    +0.000 A 
ATOM      4  C   UNL     1       2.287   7.200  19.489  0.00  0.00    +0.000 A 
ATOM      5  C   UNL     1       1.527   8.018  20.333  0.00  0.00    +0.000 A 
ATOM      6  C   UNL     1       1.072   9.272  19.893  0.00  0.00    +0.000 A 
ENDROOT
BRANCH   1   9
ATOM      7  O   UNL     1       1.290  12.163  20.226  0.00  0.00    +0.000 OA
ATOM      8  C   UNL     1       0.880  12.124  19.062  0.00  0.00    +0.000 C 
ATOM      9  N   UNL     1       0.955  11.023  18.230  0.00  0.00    +0.000 N 
ATOM     10  H   UNL     1       0.731  11.182  17.245  0.00  0.00    +0.000 HD
BRANCH   8  11
ATOM     11  C   UNL     1       0.175  13.351  18.511  0.00  0.00    +0.000 C 
BRANCH  11  12
ATOM     12  C   UNL     1      -0.592  14.115  19.528  0.00  0.00    +0.000 A 
ATOM     13  N   UNL     1      -0.506  15.409  19.768  0.00  0.00    +0.000 NA
ATOM     14  C   UNL     1      -1.481  15.678  20.694  0.00  0.00    +0.000 A 
ATOM     15  C   UNL     1      -2.146  14.529  21.049  0.00  0.00    +0.000 A 
ATOM     16  N   UNL     1      -1.562  13.537  20.311  0.00  0.00    +0.000 N 
ATOM     17  H   UNL     1      -1.816  12.558  20.317  0.00  0.00    +0.000 HD
ENDBRANCH  11  12
ENDBRANCH   8  11
ENDBRANCH   1   9
BRANCH   4  18
ATOM     18  C   UNL     1       2.862   5.888  19.972  0.00  0.00    +0.000 C 
BRANCH  18  19
ATOM     19  C   UNL     1       1.774   4.809  20.127  0.00  0.00    +0.000 C 
BRANCH  19  20
ATOM     20  N   UNL     1       2.179   3.542  19.497  0.00  0.00    +0.000 NA
ATOM     21  H   UNL     1       1.374   2.917  19.514  0.00  0.00    +0.000 HD
BRANCH  20  22
ATOM     22  C   UNL     1       2.577   3.781  18.094  0.00  0.00    +0.000 C 
BRANCH  22  23
ATOM     23  C   UNL     1       3.802   2.945  17.666  0.00  0.00    +0.000 C 
BRANCH  23  24
ATOM     24  O   UNL     1       4.431   2.410  18.838  0.00  0.00    +0.000 OA
ATOM     25  H   UNL     1       5.366   2.670  18.802  0.00  0.00    +0.000 HD
ENDBRANCH  23  24
BRANCH  23  26
ATOM     26  C   UNL     1       4.781   3.768  16.812  0.00  0.00    +0.000 C 
BRANCH  26  27
ATOM     27  O   UNL     1       4.660   5.162  17.132  0.00  0.00    +0.000 OA
BRANCH  27  28
ATOM     28  C   UNL     1       5.799   5.731  17.637  0.00  0.00    +0.000 A 
ATOM     29  C   UNL     1       6.218   6.918  17.035  0.00  0.00    +0.000 A 
ATOM     30  C   UNL     1       7.380   7.560  17.470  0.00  0.00    +0.000 A 
ATOM     31  C   UNL     1       8.115   7.025  18.526  0.00  0.00    +0.000 A 
ATOM     32  C   UNL     1       7.682   5.863  19.157  0.00  0.00    +0.000 A 
ATOM     33  C   UNL     1       6.524   5.217  18.721  0.00  0.00    +0.000 A 
ENDBRANCH  27  28
ENDBRANCH  26  27
ENDBRANCH  23  26
ENDBRANCH  22  23
ENDBRANCH  20  22
ENDBRANCH  19  20
ENDBRANCH  18  19
ENDBRANCH   4  18
TORSDOF 12
ENDMDL
