MODEL 1
REMARK VINA RESULT:      -7.2      0.000      0.000
REMARK  Name = 
REMARK  7 active torsions:
REMARK  status: ('A' for Active; 'I' for Inactive)
REMARK    1  A    between atoms: C_1  and  O_2
REMARK    2  A    between atoms: O_2  and  C_3
REMARK    3  A    between atoms: C_6  and  C_7
REMARK    4  A    between atoms: C_7  and  C_8
REMARK    5  A    between atoms: C_8  and  N_9
REMARK    6  A    between atoms: C_15  and  C_16
REMARK    7  A    between atoms: N_19  and  C_20
REMARK                            x       y       z     vdW  Elec       q    Type
REMARK                         _______ _______ _______ _____ _____    ______ ____
ROOT
ATOM      1  N   UNL     1       5.197   5.401  17.275  0.00  0.00    +0.000 NA
ATOM      2  C   UNL     1       6.665   5.658  17.312  0.00  0.00    +0.000 C 
ATOM      3  C   UNL     1       7.310   6.000  15.941  0.00  0.00    +0.000 C 
ATOM      4  C   UNL     1       6.775   5.052  14.935  0.00  0.00    +0.000 A 
ATOM      5  C   UNL     1       5.674   4.251  15.133  0.00  0.00    +0.000 A 
ATOM      6  N   UNL     1       5.409   3.518  14.007  0.00  0.00    +0.000 NA
ATOM      7  C   UNL     1       6.326   3.880  13.124  0.00  0.00    +0.000 A 
ATOM      8  N   UNL     1       7.178   4.825  13.652  0.00  0.00    +0.000 N 
ATOM      9  C   UNL     1       8.258   5.503  12.982  0.00  0.00    +0.000 C 
ATOM     10  C   UNL     1       4.907   4.199  16.420  0.00  0.00    +0.000 C 
ENDROOT
BRANCH   7  11
ATOM     11  C   UNL     1       6.381   3.318  11.702  0.00  0.00    +0.000 C 
ATOM     12  C   UNL     1       7.199   2.068  11.446  0.00  0.00    +0.000 C 
ATOM     13  C   UNL     1       5.713   1.982  11.444  0.00  0.00    +0.000 C 
ENDBRANCH   7  11
BRANCH   1  14
ATOM     14  C   UNL     1       4.404   6.563  16.813  0.00  0.00    +0.000 C 
BRANCH  14  15
ATOM     15  C   UNL     1       3.422   7.114  17.863  0.00  0.00    +0.000 C 
BRANCH  15  19
ATOM     16  C   UNL     1       1.353   3.978  20.009  0.00  0.00    +0.000 A 
ATOM     17  C   UNL     1       2.083   4.947  20.700  0.00  0.00    +0.000 A 
ATOM     18  C   UNL     1       2.750   5.963  20.012  0.00  0.00    +0.000 A 
ATOM     19  C   UNL     1       2.704   6.017  18.615  0.00  0.00    +0.000 A 
ATOM     20  C   UNL     1       1.998   5.023  17.922  0.00  0.00    +0.000 A 
ATOM     21  C   UNL     1       1.323   4.011  18.615  0.00  0.00    +0.000 A 
BRANCH  16  23
ATOM     22  C   UNL     1       1.554   2.459  21.811  0.00  0.00    +0.000 C 
ATOM     23  O   UNL     1       0.745   3.037  20.794  0.00  0.00    +0.000 OA
ENDBRANCH  16  23
ENDBRANCH  15  19
ENDBRANCH  14  15
ENDBRANCH   1  14
TORSDOF 5
ENDMDL
MODEL 2
REMARK VINA RESULT:      -7.1      2.396      3.134
REMARK  Name = 
REMARK  7 active torsions:
REMARK  status: ('A' for Active; 'I' for Inactive)
REMARK    1  A    between atoms: C_1  and  O_2
REMARK    2  A    between atoms: O_2  and  C_3
REMARK    3  A    between atoms: C_6  and  C_7
REMARK    4  A    between atoms: C_7  and  C_8
REMARK    5  A    between atoms: C_8  and  N_9
REMARK    6  A    between atoms: C_15  and  C_16
REMARK    7  A    between atoms: N_19  and  C_20
REMARK                            x       y       z     vdW  Elec       q    Type
REMARK                         _______ _______ _______ _____ _____    ______ ____
ROOT
ATOM      1  N   UNL     1       5.410   4.978  17.958  0.00  0.00    +0.000 NA
ATOM      2  C   UNL     1       6.890   5.123  17.868  0.00  0.00    +0.000 C 
ATOM      3  C   UNL     1       7.424   5.609  16.492  0.00  0.00    +0.000 C 
ATOM      4  C   UNL     1       6.714   4.854  15.434  0.00  0.00    +0.000 A 
ATOM      5  C   UNL     1       5.574   4.112  15.643  0.00  0.00    +0.000 A 
ATOM      6  N   UNL     1       5.138   3.566  14.464  0.00  0.00    +0.000 NA
ATOM      7  C   UNL     1       5.991   3.985  13.542  0.00  0.00    +0.000 A 
ATOM      8  N   UNL     1       6.967   4.784  14.096  0.00  0.00    +0.000 N 
ATOM      9  C   UNL     1       8.030   5.472  13.408  0.00  0.00    +0.000 C 
ATOM     10  C   UNL     1       4.936   3.932  16.987  0.00  0.00    +0.000 C 
ENDROOT
BRANCH   7  11
ATOM     11  C   UNL     1       5.857   3.627  12.061  0.00  0.00    +0.000 C 
ATOM     12  C   UNL     1       5.631   2.178  11.681  0.00  0.00    +0.000 C 
ATOM     13  C   UNL     1       4.507   3.147  11.568  0.00  0.00    +0.000 C 
ENDBRANCH   7  11
BRANCH   1  14
ATOM     14  C   UNL     1       4.677   6.246  17.745  0.00  0.00    +0.000 C 
BRANCH  14  15
ATOM     15  C   UNL     1       3.144   6.094  17.734  0.00  0.00    +0.000 C 
BRANCH  15  19
ATOM     16  C   UNL     1       1.163   9.287  19.879  0.00  0.00    +0.000 A 
ATOM     17  C   UNL     1       1.545   8.119  20.541  0.00  0.00    +0.000 A 
ATOM     18  C   UNL     1       2.188   7.088  19.854  0.00  0.00    +0.000 A 
ATOM     19  C   UNL     1       2.447   7.206  18.485  0.00  0.00    +0.000 A 
ATOM     20  C   UNL     1       2.031   8.366  17.815  0.00  0.00    +0.000 A 
ATOM     21  C   UNL     1       1.395   9.402  18.509  0.00  0.00    +0.000 A 
BRANCH  16  23
ATOM     22  C   UNL     1      -0.453  11.009  20.018  0.00  0.00    +0.000 C 
ATOM     23  O   UNL     1       0.543  10.223  20.661  0.00  0.00    +0.000 OA
ENDBRANCH  16  23
ENDBRANCH  15  19
ENDBRANCH  14  15
ENDBRANCH   1  14
TORSDOF 5
ENDMDL
MODEL 3
REMARK VINA RESULT:      -7.1      4.703      7.992
REMARK  Name = 
REMARK  7 active torsions:
REMARK  status: ('A' for Active; 'I' for Inactive)
REMARK    1  A    between atoms: C_1  and  O_2
REMARK    2  A    between atoms: O_2  and  C_3
REMARK    3  A    between atoms: C_6  and  C_7
REMARK    4  A    between atoms: C_7  and  C_8
REMARK    5  A    between atoms: C_8  and  N_9
REMARK    6  A    between atoms: C_15  and  C_16
REMARK    7  A    between atoms: N_19  and  C_20
REMARK                            x       y       z     vdW  Elec       q    Type
REMARK                         _______ _______ _______ _____ _____    ______ ____
ROOT
ATOM      1  N   UNL     1       7.447   5.875  17.459  0.00  0.00    +0.000 NA
ATOM      2  C   UNL     1       6.508   6.155  16.337  0.00  0.00    +0.000 C 
ATOM      3  C   UNL     1       5.142   6.766  16.755  0.00  0.00    +0.000 C 
ATOM      4  C   UNL     1       4.646   6.015  17.932  0.00  0.00    +0.000 A 
ATOM      5  C   UNL     1       5.418   5.165  18.691  0.00  0.00    +0.000 A 
ATOM      6  N   UNL     1       4.684   4.654  19.729  0.00  0.00    +0.000 NA
ATOM      7  C   UNL     1       3.484   5.200  19.617  0.00  0.00    +0.000 A 
ATOM      8  N   UNL     1       3.422   6.046  18.532  0.00  0.00    +0.000 N 
ATOM      9  C   UNL     1       2.309   6.865  18.122  0.00  0.00    +0.000 C 
ATOM     10  C   UNL     1       6.851   4.851  18.386  0.00  0.00    +0.000 C 
ENDROOT
BRANCH   7  11
ATOM     11  C   UNL     1       2.347   4.920  20.602  0.00  0.00    +0.000 C 
ATOM     12  C   UNL     1       1.264   3.938  20.202  0.00  0.00    +0.000 C 
ATOM     13  C   UNL     1       2.272   3.538  21.221  0.00  0.00    +0.000 C 
ENDBRANCH   7  11
BRANCH   1  14
ATOM     14  C   UNL     1       7.841   7.085  18.217  0.00  0.00    +0.000 C 
BRANCH  14  15
ATOM     15  C   UNL     1       7.691   8.399  17.427  0.00  0.00    +0.000 C 
BRANCH  15  19
ATOM     16  C   UNL     1       9.650  11.735  19.366  0.00  0.00    +0.000 A 
ATOM     17  C   UNL     1       9.647  10.472  19.961  0.00  0.00    +0.000 A 
ATOM     18  C   UNL     1       9.019   9.392  19.337  0.00  0.00    +0.000 A 
ATOM     19  C   UNL     1       8.372   9.564  18.109  0.00  0.00    +0.000 A 
ATOM     20  C   UNL     1       8.347  10.842  17.531  0.00  0.00    +0.000 A 
ATOM     21  C   UNL     1       8.985  11.921  18.155  0.00  0.00    +0.000 A 
BRANCH  16  23
ATOM     22  C   UNL     1       9.839  12.921  21.404  0.00  0.00    +0.000 C 
ATOM     23  O   UNL     1      10.297  12.710  20.074  0.00  0.00    +0.000 OA
ENDBRANCH  16  23
ENDBRANCH  15  19
ENDBRANCH  14  15
ENDBRANCH   1  14
TORSDOF 5
ENDMDL
MODEL 4
REMARK VINA RESULT:      -7.0      4.794      8.050
REMARK  Name = 
REMARK  7 active torsions:
REMARK  status: ('A' for Active; 'I' for Inactive)
REMARK    1  A    between atoms: C_1  and  O_2
REMARK    2  A    between atoms: O_2  and  C_3
REMARK    3  A    between atoms: C_6  and  C_7
REMARK    4  A    between atoms: C_7  and  C_8
REMARK    5  A    between atoms: C_8  and  N_9
REMARK    6  A    between atoms: C_15  and  C_16
REMARK    7  A    between atoms: N_19  and  C_20
REMARK                            x       y       z     vdW  Elec       q    Type
REMARK                         _______ _______ _______ _____ _____    ______ ____
ROOT
ATOM      1  N   UNL     1       7.706   5.945  17.442  0.00  0.00    +0.000 NA
ATOM      2  C   UNL     1       6.744   6.128  16.318  0.00  0.00    +0.000 C 
ATOM      3  C   UNL     1       5.296   6.500  16.742  0.00  0.00    +0.000 C 
ATOM      4  C   UNL     1       4.913   5.627  17.876  0.00  0.00    +0.000 A 
ATOM      5  C   UNL     1       5.801   4.871  18.608  0.00  0.00    +0.000 A 
ATOM      6  N   UNL     1       5.147   4.205  19.610  0.00  0.00    +0.000 NA
ATOM      7  C   UNL     1       3.877   4.562  19.503  0.00  0.00    +0.000 A 
ATOM      8  N   UNL     1       3.694   5.439  18.457  0.00  0.00    +0.000 N 
ATOM      9  C   UNL     1       2.471   6.094  18.066  0.00  0.00    +0.000 C 
ATOM     10  C   UNL     1       7.268   4.798  18.311  0.00  0.00    +0.000 C 
ENDROOT
BRANCH   7  11
ATOM     11  C   UNL     1       2.789   4.063  20.457  0.00  0.00    +0.000 C 
ATOM     12  C   UNL     1       1.916   2.904  20.020  0.00  0.00    +0.000 C 
ATOM     13  C   UNL     1       2.957   2.684  21.061  0.00  0.00    +0.000 C 
ENDBRANCH   7  11
BRANCH   1  14
ATOM     14  C   UNL     1       7.900   7.164  18.259  0.00  0.00    +0.000 C 
BRANCH  14  15
ATOM     15  C   UNL     1       7.777   8.480  17.468  0.00  0.00    +0.000 C 
BRANCH  15  19
ATOM     16  C   UNL     1       9.657  11.805  19.499  0.00  0.00    +0.000 A 
ATOM     17  C   UNL     1       9.072  11.981  18.244  0.00  0.00    +0.000 A 
ATOM     18  C   UNL     1       8.461  10.912  17.586  0.00  0.00    +0.000 A 
ATOM     19  C   UNL     1       8.437   9.642  18.172  0.00  0.00    +0.000 A 
ATOM     20  C   UNL     1       9.056   9.461  19.418  0.00  0.00    +0.000 A 
ATOM     21  C   UNL     1       9.660  10.538  20.079  0.00  0.00    +0.000 A 
BRANCH  16  23
ATOM     22  C   UNL     1      11.444  13.354  19.450  0.00  0.00    +0.000 C 
ATOM     23  O   UNL     1      10.222  12.928  20.040  0.00  0.00    +0.000 OA
ENDBRANCH  16  23
ENDBRANCH  15  19
ENDBRANCH  14  15
ENDBRANCH   1  14
TORSDOF 5
ENDMDL
MODEL 5
REMARK VINA RESULT:      -7.0      2.457      3.493
REMARK  Name = 
REMARK  7 active torsions:
REMARK  status: ('A' for Active; 'I' for Inactive)
REMARK    1  A    between atoms: C_1  and  O_2
REMARK    2  A    between atoms: O_2  and  C_3
REMARK    3  A    between atoms: C_6  and  C_7
REMARK    4  A    between atoms: C_7  and  C_8
REMARK    5  A    between atoms: C_8  and  N_9
REMARK    6  A    between atoms: C_15  and  C_16
REMARK    7  A    between atoms: N_19  and  C_20
REMARK                            x       y       z     vdW  Elec       q    Type
REMARK                         _______ _______ _______ _____ _____    ______ ____
ROOT
ATOM      1  N   UNL     1       5.422   4.895  17.955  0.00  0.00    +0.000 NA
ATOM      2  C   UNL     1       6.888   5.144  17.857  0.00  0.00    +0.000 C 
ATOM      3  C   UNL     1       7.378   5.670  16.479  0.00  0.00    +0.000 C 
ATOM      4  C   UNL     1       6.716   4.869  15.423  0.00  0.00    +0.000 A 
ATOM      5  C   UNL     1       5.633   4.047  15.637  0.00  0.00    +0.000 A 
ATOM      6  N   UNL     1       5.229   3.475  14.459  0.00  0.00    +0.000 NA
ATOM      7  C   UNL     1       6.045   3.955  13.534  0.00  0.00    +0.000 A 
ATOM      8  N   UNL     1       6.966   4.819  14.084  0.00  0.00    +0.000 N 
ATOM      9  C   UNL     1       7.973   5.582  13.391  0.00  0.00    +0.000 C 
ATOM     10  C   UNL     1       5.017   3.820  16.984  0.00  0.00    +0.000 C 
ENDROOT
BRANCH   7  11
ATOM     11  C   UNL     1       5.928   3.592  12.052  0.00  0.00    +0.000 C 
ATOM     12  C   UNL     1       5.730   2.138  11.674  0.00  0.00    +0.000 C 
ATOM     13  C   UNL     1       4.590   3.087  11.551  0.00  0.00    +0.000 C 
ENDBRANCH   7  11
BRANCH   1  14
ATOM     14  C   UNL     1       4.600   6.109  17.750  0.00  0.00    +0.000 C 
BRANCH  14  15
ATOM     15  C   UNL     1       3.117   5.939  18.134  0.00  0.00    +0.000 C 
BRANCH  15  19
ATOM     16  C   UNL     1       1.250   9.670  19.279  0.00  0.00    +0.000 A 
ATOM     17  C   UNL     1       1.726   9.485  17.979  0.00  0.00    +0.000 A 
ATOM     18  C   UNL     1       2.326   8.282  17.604  0.00  0.00    +0.000 A 
ATOM     19  C   UNL     1       2.470   7.245  18.532  0.00  0.00    +0.000 A 
ATOM     20  C   UNL     1       2.023   7.446  19.846  0.00  0.00    +0.000 A 
ATOM     21  C   UNL     1       1.413   8.651  20.217  0.00  0.00    +0.000 A 
BRANCH  16  23
ATOM     22  C   UNL     1       1.495  12.022  19.237  0.00  0.00    +0.000 C 
ATOM     23  O   UNL     1       0.683  10.891  19.523  0.00  0.00    +0.000 OA
ENDBRANCH  16  23
ENDBRANCH  15  19
ENDBRANCH  14  15
ENDBRANCH   1  14
TORSDOF 5
ENDMDL
MODEL 6
REMARK VINA RESULT:      -7.0      0.229      1.022
REMARK  Name = 
REMARK  7 active torsions:
REMARK  status: ('A' for Active; 'I' for Inactive)
REMARK    1  A    between atoms: C_1  and  O_2
REMARK    2  A    between atoms: O_2  and  C_3
REMARK    3  A    between atoms: C_6  and  C_7
REMARK    4  A    between atoms: C_7  and  C_8
REMARK    5  A    between atoms: C_8  and  N_9
REMARK    6  A    between atoms: C_15  and  C_16
REMARK    7  A    between atoms: N_19  and  C_20
REMARK                            x       y       z     vdW  Elec       q    Type
REMARK                         _______ _______ _______ _____ _____    ______ ____
ROOT
ATOM      1  N   UNL     1       5.190   5.399  17.327  0.00  0.00    +0.000 NA
ATOM      2  C   UNL     1       6.671   5.553  17.376  0.00  0.00    +0.000 C 
ATOM      3  C   UNL     1       7.347   5.876  16.015  0.00  0.00    +0.000 C 
ATOM      4  C   UNL     1       6.753   4.988  14.988  0.00  0.00    +0.000 A 
ATOM      5  C   UNL     1       5.598   4.261  15.165  0.00  0.00    +0.000 A 
ATOM      6  N   UNL     1       5.290   3.570  14.023  0.00  0.00    +0.000 NA
ATOM      7  C   UNL     1       6.235   3.886  13.151  0.00  0.00    +0.000 A 
ATOM      8  N   UNL     1       7.147   4.759  13.703  0.00  0.00    +0.000 N 
ATOM      9  C   UNL     1       8.275   5.374  13.050  0.00  0.00    +0.000 C 
ATOM     10  C   UNL     1       4.822   4.236  16.447  0.00  0.00    +0.000 C 
ENDROOT
BRANCH   7  11
ATOM     11  C   UNL     1       6.259   3.350  11.719  0.00  0.00    +0.000 C 
ATOM     12  C   UNL     1       7.097   2.123  11.416  0.00  0.00    +0.000 C 
ATOM     13  C   UNL     1       5.613   2.004  11.457  0.00  0.00    +0.000 C 
ENDBRANCH   7  11
BRANCH   1  14
ATOM     14  C   UNL     1       4.482   6.622  16.885  0.00  0.00    +0.000 C 
BRANCH  14  15
ATOM     15  C   UNL     1       3.324   7.048  17.808  0.00  0.00    +0.000 C 
BRANCH  15  19
ATOM     16  C   UNL     1       1.672   3.715  20.017  0.00  0.00    +0.000 A 
ATOM     17  C   UNL     1       1.354   3.900  18.671  0.00  0.00    +0.000 A 
ATOM     18  C   UNL     1       1.887   4.972  17.953  0.00  0.00    +0.000 A 
ATOM     19  C   UNL     1       2.741   5.886  18.579  0.00  0.00    +0.000 A 
ATOM     20  C   UNL     1       3.032   5.717  19.940  0.00  0.00    +0.000 A 
ATOM     21  C   UNL     1       2.503   4.636  20.655  0.00  0.00    +0.000 A 
BRANCH  16  23
ATOM     22  C   UNL     1       1.420   2.414  21.976  0.00  0.00    +0.000 C 
ATOM     23  O   UNL     1       1.088   2.629  20.610  0.00  0.00    +0.000 OA
ENDBRANCH  16  23
ENDBRANCH  15  19
ENDBRANCH  14  15
ENDBRANCH   1  14
TORSDOF 5
ENDMDL
MODEL 7
REMARK VINA RESULT:      -6.8      3.924      7.987
REMARK  Name = 
REMARK  7 active torsions:
REMARK  status: ('A' for Active; 'I' for Inactive)
REMARK    1  A    between atoms: C_1  and  O_2
REMARK    2  A    between atoms: O_2  and  C_3
REMARK    3  A    between atoms: C_6  and  C_7
REMARK    4  A    between atoms: C_7  and  C_8
REMARK    5  A    between atoms: C_8  and  N_9
REMARK    6  A    between atoms: C_15  and  C_16
REMARK    7  A    between atoms: N_19  and  C_20
REMARK                            x       y       z     vdW  Elec       q    Type
REMARK                         _______ _______ _______ _____ _____    ______ ____
ROOT
ATOM      1  N   UNL     1       2.272   3.659  19.504  0.00  0.00    +0.000 NA
ATOM      2  C   UNL     1       1.926   4.224  18.169  0.00  0.00    +0.000 C 
ATOM      3  C   UNL     1       2.304   5.717  17.965  0.00  0.00    +0.000 C 
ATOM      4  C   UNL     1       1.902   6.460  19.183  0.00  0.00    +0.000 A 
ATOM      5  C   UNL     1       1.566   5.866  20.378  0.00  0.00    +0.000 A 
ATOM      6  N   UNL     1       1.280   6.820  21.320  0.00  0.00    +0.000 NA
ATOM      7  C   UNL     1       1.457   7.983  20.713  0.00  0.00    +0.000 A 
ATOM      8  N   UNL     1       1.846   7.804  19.403  0.00  0.00    +0.000 N 
ATOM      9  C   UNL     1       2.191   8.825  18.446  0.00  0.00    +0.000 C 
ATOM     10  C   UNL     1       1.513   4.383  20.582  0.00  0.00    +0.000 C 
ENDROOT
BRANCH   7  11
ATOM     11  C   UNL     1       1.268   9.327  21.418  0.00  0.00    +0.000 C 
ATOM     12  C   UNL     1      -0.084  10.007  21.338  0.00  0.00    +0.000 C 
ATOM     13  C   UNL     1       0.341   9.373  22.616  0.00  0.00    +0.000 C 
ENDBRANCH   7  11
BRANCH   1  14
ATOM     14  C   UNL     1       3.724   3.679  19.796  0.00  0.00    +0.000 C 
BRANCH  14  15
ATOM     15  C   UNL     1       4.610   3.228  18.619  0.00  0.00    +0.000 C 
BRANCH  15  19
ATOM     16  C   UNL     1       7.150   6.399  17.131  0.00  0.00    +0.000 A 
ATOM     17  C   UNL     1       7.062   6.145  18.501  0.00  0.00    +0.000 A 
ATOM     18  C   UNL     1       6.247   5.121  18.986  0.00  0.00    +0.000 A 
ATOM     19  C   UNL     1       5.494   4.340  18.103  0.00  0.00    +0.000 A 
ATOM     20  C   UNL     1       5.557   4.619  16.729  0.00  0.00    +0.000 A 
ATOM     21  C   UNL     1       6.383   5.641  16.246  0.00  0.00    +0.000 A 
BRANCH  16  23
ATOM     22  C   UNL     1       7.993   8.544  17.661  0.00  0.00    +0.000 C 
ATOM     23  O   UNL     1       7.982   7.427  16.781  0.00  0.00    +0.000 OA
ENDBRANCH  16  23
ENDBRANCH  15  19
ENDBRANCH  14  15
ENDBRANCH   1  14
TORSDOF 5
ENDMDL
MODEL 8
REMARK VINA RESULT:      -6.8      3.682      8.345
REMARK  Name = 
REMARK  7 active torsions:
REMARK  status: ('A' for Active; 'I' for Inactive)
REMARK    1  A    between atoms: C_1  and  O_2
REMARK    2  A    between atoms: O_2  and  C_3
REMARK    3  A    between atoms: C_6  and  C_7
REMARK    4  A    between atoms: C_7  and  C_8
REMARK    5  A    between atoms: C_8  and  N_9
REMARK    6  A    between atoms: C_15  and  C_16
REMARK    7  A    between atoms: N_19  and  C_20
REMARK                            x       y       z     vdW  Elec       q    Type
REMARK                         _______ _______ _______ _____ _____    ______ ____
ROOT
ATOM      1  N   UNL     1       2.708   4.922  19.458  0.00  0.00    +0.000 NA
ATOM      2  C   UNL     1       2.206   5.375  18.130  0.00  0.00    +0.000 C 
ATOM      3  C   UNL     1       2.307   6.904  17.872  0.00  0.00    +0.000 C 
ATOM      4  C   UNL     1       1.838   7.605  19.091  0.00  0.00    +0.000 A 
ATOM      5  C   UNL     1       1.666   7.000  20.316  0.00  0.00    +0.000 A 
ATOM      6  N   UNL     1       1.261   7.919  21.248  0.00  0.00    +0.000 NA
ATOM      7  C   UNL     1       1.204   9.074  20.605  0.00  0.00    +0.000 A 
ATOM      8  N   UNL     1       1.557   8.925  19.282  0.00  0.00    +0.000 N 
ATOM      9  C   UNL     1       1.673   9.958  18.284  0.00  0.00    +0.000 C 
ATOM     10  C   UNL     1       1.884   5.537  20.556  0.00  0.00    +0.000 C 
ENDROOT
BRANCH   7  11
ATOM     11  C   UNL     1       0.815  10.387  21.287  0.00  0.00    +0.000 C 
ATOM     12  C   UNL     1      -0.582  10.933  21.072  0.00  0.00    +0.000 C 
ATOM     13  C   UNL     1      -0.227  10.332  22.387  0.00  0.00    +0.000 C 
ENDBRANCH   7  11
BRANCH   1  14
ATOM     14  C   UNL     1       4.145   5.203  19.675  0.00  0.00    +0.000 C 
BRANCH  14  15
ATOM     15  C   UNL     1       5.087   4.086  19.187  0.00  0.00    +0.000 C 
BRANCH  15  19
ATOM     16  C   UNL     1       6.725   4.917  15.270  0.00  0.00    +0.000 A 
ATOM     17  C   UNL     1       5.542   4.188  15.403  0.00  0.00    +0.000 A 
ATOM     18  C   UNL     1       5.008   3.921  16.665  0.00  0.00    +0.000 A 
ATOM     19  C   UNL     1       5.660   4.370  17.818  0.00  0.00    +0.000 A 
ATOM     20  C   UNL     1       6.867   5.073  17.682  0.00  0.00    +0.000 A 
ATOM     21  C   UNL     1       7.395   5.347  16.415  0.00  0.00    +0.000 A 
BRANCH  16  23
ATOM     22  C   UNL     1       6.727   4.139  13.036  0.00  0.00    +0.000 C 
ATOM     23  O   UNL     1       7.146   5.114  13.983  0.00  0.00    +0.000 OA
ENDBRANCH  16  23
ENDBRANCH  15  19
ENDBRANCH  14  15
ENDBRANCH   1  14
TORSDOF 5
ENDMDL
MODEL 9
REMARK VINA RESULT:      -6.8      3.645      8.221
REMARK  Name = 
REMARK  7 active torsions:
REMARK  status: ('A' for Active; 'I' for Inactive)
REMARK    1  A    between atoms: C_1  and  O_2
REMARK    2  A    between atoms: O_2  and  C_3
REMARK    3  A    between atoms: C_6  and  C_7
REMARK    4  A    between atoms: C_7  and  C_8
REMARK    5  A    between atoms: C_8  and  N_9
REMARK    6  A    between atoms: C_15  and  C_16
REMARK    7  A    between atoms: N_19  and  C_20
REMARK                            x       y       z     vdW  Elec       q    Type
REMARK                         _______ _______ _______ _____ _____    ______ ____
ROOT
ATOM      1  N   UNL     1       2.534   4.688  19.562  0.00  0.00    +0.000 NA
ATOM      2  C   UNL     1       2.086   5.097  18.201  0.00  0.00    +0.000 C 
ATOM      3  C   UNL     1       2.282   6.601  17.864  0.00  0.00    +0.000 C 
ATOM      4  C   UNL     1       1.833   7.393  19.033  0.00  0.00    +0.000 A 
ATOM      5  C   UNL     1       1.603   6.868  20.284  0.00  0.00    +0.000 A 
ATOM      6  N   UNL     1       1.236   7.858  21.157  0.00  0.00    +0.000 NA
ATOM      7  C   UNL     1       1.259   8.978  20.453  0.00  0.00    +0.000 A 
ATOM      8  N   UNL     1       1.628   8.736  19.147  0.00  0.00    +0.000 N 
ATOM      9  C   UNL     1       1.824   9.705  18.099  0.00  0.00    +0.000 C 
ATOM     10  C   UNL     1       1.728   5.410  20.607  0.00  0.00    +0.000 C 
ENDROOT
BRANCH   7  11
ATOM     11  C   UNL     1       0.937  10.347  21.055  0.00  0.00    +0.000 C 
ATOM     12  C   UNL     1      -0.449  10.925  20.847  0.00  0.00    +0.000 C 
ATOM     13  C   UNL     1      -0.068  10.402  22.188  0.00  0.00    +0.000 C 
ENDBRANCH   7  11
BRANCH   1  14
ATOM     14  C   UNL     1       3.981   4.897  19.796  0.00  0.00    +0.000 C 
BRANCH  14  15
ATOM     15  C   UNL     1       4.879   3.780  19.229  0.00  0.00    +0.000 C 
BRANCH  15  19
ATOM     16  C   UNL     1       6.860   4.932  15.559  0.00  0.00    +0.000 A 
ATOM     17  C   UNL     1       7.370   5.333  16.795  0.00  0.00    +0.000 A 
ATOM     18  C   UNL     1       6.736   4.961  17.982  0.00  0.00    +0.000 A 
ATOM     19  C   UNL     1       5.570   4.189  17.948  0.00  0.00    +0.000 A 
ATOM     20  C   UNL     1       5.041   3.816  16.703  0.00  0.00    +0.000 A 
ATOM     21  C   UNL     1       5.684   4.184  15.515  0.00  0.00    +0.000 A 
BRANCH  16  23
ATOM     22  C   UNL     1       7.287   4.697  13.244  0.00  0.00    +0.000 C 
ATOM     23  O   UNL     1       7.570   5.360  14.470  0.00  0.00    +0.000 OA
ENDBRANCH  16  23
ENDBRANCH  15  19
ENDBRANCH  14  15
ENDBRANCH   1  14
TORSDOF 5
ENDMDL
