MODEL 1
REMARK VINA RESULT:      -7.4      0.000      0.000
REMARK  Name = 
REMARK  5 active torsions:
REMARK  status: ('A' for Active; 'I' for Inactive)
REMARK    1  A    between atoms: C_1  and  N_2
REMARK    2  A    between atoms: C_6  and  C_7
REMARK    3  A    between atoms: C_12  and  C_13
REMARK    4  A    between atoms: C_13  and  N_14
REMARK    5  A    between atoms: C_16  and  C_17
REMARK                            x       y       z     vdW  Elec       q    Type
REMARK                         _______ _______ _______ _____ _____    ______ ____
ROOT
ATOM      1  C   UNL     1       4.061   3.128  18.222  0.00  0.00    +0.000 C 
ATOM      2  O   UNL     1       4.088   2.153  17.468  0.00  0.00    +0.000 OA
ATOM      3  N   UNL     1       4.911   4.227  18.006  0.00  0.00    +0.000 N 
ATOM      4  C   UNL     1       5.589   4.369  16.723  0.00  0.00    +0.000 C 
ATOM      5  C   UNL     1       7.090   4.554  16.922  0.00  0.00    +0.000 C 
ATOM      6  C   UNL     1       7.408   5.731  17.864  0.00  0.00    +0.000 C 
ATOM      7  C   UNL     1       6.662   5.512  19.189  0.00  0.00    +0.000 C 
ATOM      8  C   UNL     1       5.162   5.280  18.995  0.00  0.00    +0.000 C 
ENDROOT
BRANCH   1  14
ATOM      9  C   UNL     1       1.414   4.719  18.446  0.00  0.00    +0.000 C 
ATOM     10  N   UNL     1       1.998   3.890  19.472  0.00  0.00    +0.000 N 
ATOM     11  C   UNL     1       1.436   3.629  20.692  0.00  0.00    +0.000 A 
ATOM     12  C   UNL     1       2.329   2.806  21.330  0.00  0.00    +0.000 A 
ATOM     13  N   UNL     1       3.402   2.546  20.524  0.00  0.00    +0.000 NA
ATOM     14  C   UNL     1       3.170   3.173  19.381  0.00  0.00    +0.000 A 
ENDBRANCH   1  14
BRANCH   6  15
ATOM     15  C   UNL     1       7.067   7.118  17.284  0.00  0.00    +0.000 C 
BRANCH  15  16
ATOM     16  N   UNL     1       7.816   8.205  17.870  0.00  0.00    +0.000 N 
ATOM     17  C   UNL     1       7.858   9.501  17.447  0.00  0.00    +0.000 A 
ATOM     18  C   UNL     1       8.761  10.089  18.300  0.00  0.00    +0.000 A 
ATOM     19  N   UNL     1       9.198   9.164  19.210  0.00  0.00    +0.000 NA
ATOM     20  N   UNL     1       8.597   8.008  18.942  0.00  0.00    +0.000 NA
BRANCH  18  21
ATOM     21  C   UNL     1       9.259  11.461  18.297  0.00  0.00    +0.000 A 
ATOM     22  C   UNL     1       8.538  12.546  17.713  0.00  0.00    +0.000 A 
ATOM     23  C   UNL     1       9.199  13.747  17.860  0.00  0.00    +0.000 A 
ATOM     24  S   UNL     1      10.684  13.568  18.688  0.00  0.00    +0.000 S 
ATOM     25  C   UNL     1      10.447  11.881  18.858  0.00  0.00    +0.000 A 
ENDBRANCH  18  21
ENDBRANCH  15  16
ENDBRANCH   6  15
TORSDOF 4
ENDMDL
MODEL 2
REMARK VINA RESULT:      -7.2      0.662      1.279
REMARK  Name = 
REMARK  5 active torsions:
REMARK  status: ('A' for Active; 'I' for Inactive)
REMARK    1  A    between atoms: C_1  and  N_2
REMARK    2  A    between atoms: C_6  and  C_7
REMARK    3  A    between atoms: C_12  and  C_13
REMARK    4  A    between atoms: C_13  and  N_14
REMARK    5  A    between atoms: C_16  and  C_17
REMARK                            x       y       z     vdW  Elec       q    Type
REMARK                         _______ _______ _______ _____ _____    ______ ____
ROOT
ATOM      1  C   UNL     1       3.848   3.374  18.003  0.00  0.00    +0.000 C 
ATOM      2  O   UNL     1       3.862   2.435  17.203  0.00  0.00    +0.000 OA
ATOM      3  N   UNL     1       4.725   4.462  17.850  0.00  0.00    +0.000 N 
ATOM      4  C   UNL     1       5.422   4.649  16.584  0.00  0.00    +0.000 C 
ATOM      5  C   UNL     1       6.924   4.790  16.809  0.00  0.00    +0.000 C 
ATOM      6  C   UNL     1       7.257   5.913  17.810  0.00  0.00    +0.000 C 
ATOM      7  C   UNL     1       6.490   5.648  19.115  0.00  0.00    +0.000 C 
ATOM      8  C   UNL     1       4.987   5.460  18.892  0.00  0.00    +0.000 C 
ENDROOT
BRANCH   1  14
ATOM      9  C   UNL     1       4.357   2.049  20.755  0.00  0.00    +0.000 C 
ATOM     10  N   UNL     1       3.177   2.785  20.369  0.00  0.00    +0.000 N 
ATOM     11  C   UNL     1       2.117   3.063  21.189  0.00  0.00    +0.000 A 
ATOM     12  C   UNL     1       1.238   3.774  20.411  0.00  0.00    +0.000 A 
ATOM     13  N   UNL     1       1.746   3.950  19.154  0.00  0.00    +0.000 NA
ATOM     14  C   UNL     1       2.943   3.384  19.152  0.00  0.00    +0.000 A 
ENDBRANCH   1  14
BRANCH   6  15
ATOM     15  C   UNL     1       6.955   7.333  17.293  0.00  0.00    +0.000 C 
BRANCH  15  16
ATOM     16  N   UNL     1       7.800   8.360  17.857  0.00  0.00    +0.000 N 
ATOM     17  C   UNL     1       7.932   9.648  17.428  0.00  0.00    +0.000 A 
ATOM     18  C   UNL     1       8.899  10.166  18.257  0.00  0.00    +0.000 A 
ATOM     19  N   UNL     1       9.284   9.211  19.161  0.00  0.00    +0.000 NA
ATOM     20  N   UNL     1       8.588   8.105  18.911  0.00  0.00    +0.000 NA
BRANCH  18  21
ATOM     21  C   UNL     1       9.501  11.495  18.237  0.00  0.00    +0.000 A 
ATOM     22  C   UNL     1       8.872  12.640  18.812  0.00  0.00    +0.000 A 
ATOM     23  C   UNL     1       9.647  13.773  18.692  0.00  0.00    +0.000 A 
ATOM     24  S   UNL     1      11.121  13.463  17.883  0.00  0.00    +0.000 S 
ATOM     25  C   UNL     1      10.730  11.808  17.693  0.00  0.00    +0.000 A 
ENDBRANCH  18  21
ENDBRANCH  15  16
ENDBRANCH   6  15
TORSDOF 4
ENDMDL
MODEL 3
REMARK VINA RESULT:      -7.2      1.191      1.472
REMARK  Name = 
REMARK  5 active torsions:
REMARK  status: ('A' for Active; 'I' for Inactive)
REMARK    1  A    between atoms: C_1  and  N_2
REMARK    2  A    between atoms: C_6  and  C_7
REMARK    3  A    between atoms: C_12  and  C_13
REMARK    4  A    between atoms: C_13  and  N_14
REMARK    5  A    between atoms: C_16  and  C_17
REMARK                            x       y       z     vdW  Elec       q    Type
REMARK                         _______ _______ _______ _____ _____    ______ ____
ROOT
ATOM      1  C   UNL     1       4.649   3.809  17.754  0.00  0.00    +0.000 C 
ATOM      2  O   UNL     1       4.500   3.179  16.703  0.00  0.00    +0.000 OA
ATOM      3  N   UNL     1       5.364   5.019  17.771  0.00  0.00    +0.000 N 
ATOM      4  C   UNL     1       5.651   5.701  16.515  0.00  0.00    +0.000 C 
ATOM      5  C   UNL     1       7.140   6.010  16.395  0.00  0.00    +0.000 C 
ATOM      6  C   UNL     1       7.665   6.806  17.604  0.00  0.00    +0.000 C 
ATOM      7  C   UNL     1       7.328   6.028  18.886  0.00  0.00    +0.000 C 
ATOM      8  C   UNL     1       5.843   5.674  18.992  0.00  0.00    +0.000 C 
ENDROOT
BRANCH   1  14
ATOM      9  C   UNL     1       1.913   4.538  19.008  0.00  0.00    +0.000 C 
ATOM     10  N   UNL     1       2.900   3.651  19.574  0.00  0.00    +0.000 N 
ATOM     11  C   UNL     1       2.752   2.941  20.735  0.00  0.00    +0.000 A 
ATOM     12  C   UNL     1       3.922   2.241  20.881  0.00  0.00    +0.000 A 
ATOM     13  N   UNL     1       4.764   2.492  19.833  0.00  0.00    +0.000 NA
ATOM     14  C   UNL     1       4.116   3.314  19.022  0.00  0.00    +0.000 A 
ENDBRANCH   1  14
BRANCH   6  15
ATOM     15  C   UNL     1       7.126   8.246  17.698  0.00  0.00    +0.000 C 
BRANCH  15  16
ATOM     16  N   UNL     1       8.114   9.225  18.090  0.00  0.00    +0.000 N 
ATOM     17  C   UNL     1       8.390  10.411  17.476  0.00  0.00    +0.000 A 
ATOM     18  C   UNL     1       9.445  10.911  18.203  0.00  0.00    +0.000 A 
ATOM     19  N   UNL     1       9.741  10.052  19.227  0.00  0.00    +0.000 NA
ATOM     20  N   UNL     1       8.903   9.022  19.155  0.00  0.00    +0.000 NA
BRANCH  18  21
ATOM     21  C   UNL     1      10.208  12.134  17.978  0.00  0.00    +0.000 A 
ATOM     22  C   UNL     1      11.632  12.153  17.883  0.00  0.00    +0.000 A 
ATOM     23  C   UNL     1      12.120  13.419  17.642  0.00  0.00    +0.000 A 
ATOM     24  S   UNL     1      10.871  14.582  17.540  0.00  0.00    +0.000 S 
ATOM     25  C   UNL     1       9.670  13.394  17.814  0.00  0.00    +0.000 A 
ENDBRANCH  18  21
ENDBRANCH  15  16
ENDBRANCH   6  15
TORSDOF 4
ENDMDL
MODEL 4
REMARK VINA RESULT:      -6.8      1.661      2.289
REMARK  Name = 
REMARK  5 active torsions:
REMARK  status: ('A' for Active; 'I' for Inactive)
REMARK    1  A    between atoms: C_1  and  N_2
REMARK    2  A    between atoms: C_6  and  C_7
REMARK    3  A    between atoms: C_12  and  C_13
REMARK    4  A    between atoms: C_13  and  N_14
REMARK    5  A    between atoms: C_16  and  C_17
REMARK                            x       y       z     vdW  Elec       q    Type
REMARK                         _______ _______ _______ _____ _____    ______ ____
ROOT
ATOM      1  C   UNL     1       2.453   5.220  18.101  0.00  0.00    +0.000 C 
ATOM      2  O   UNL     1       1.699   6.063  17.608  0.00  0.00    +0.000 OA
ATOM      3  N   UNL     1       3.847   5.403  18.080  0.00  0.00    +0.000 N 
ATOM      4  C   UNL     1       4.393   6.720  17.775  0.00  0.00    +0.000 C 
ATOM      5  C   UNL     1       5.418   6.633  16.648  0.00  0.00    +0.000 C 
ATOM      6  C   UNL     1       6.532   5.615  16.956  0.00  0.00    +0.000 C 
ATOM      7  C   UNL     1       5.883   4.258  17.265  0.00  0.00    +0.000 C 
ATOM      8  C   UNL     1       4.820   4.345  18.364  0.00  0.00    +0.000 C 
ENDROOT
BRANCH   1  14
ATOM      9  C   UNL     1       2.170   4.629  21.127  0.00  0.00    +0.000 C 
ATOM     10  N   UNL     1       1.821   3.736  20.049  0.00  0.00    +0.000 N 
ATOM     11  C   UNL     1       1.250   2.501  20.199  0.00  0.00    +0.000 A 
ATOM     12  C   UNL     1       1.097   2.019  18.924  0.00  0.00    +0.000 A 
ATOM     13  N   UNL     1       1.540   2.934  18.009  0.00  0.00    +0.000 NA
ATOM     14  C   UNL     1       1.936   3.991  18.701  0.00  0.00    +0.000 A 
ENDBRANCH   1  14
BRANCH   6  15
ATOM     15  C   UNL     1       7.471   6.031  18.106  0.00  0.00    +0.000 C 
BRANCH  15  16
ATOM     16  N   UNL     1       7.916   7.404  18.039  0.00  0.00    +0.000 N 
ATOM     17  C   UNL     1       8.603   8.096  18.992  0.00  0.00    +0.000 A 
ATOM     18  C   UNL     1       8.710   9.359  18.458  0.00  0.00    +0.000 A 
ATOM     19  N   UNL     1       8.133   9.379  17.216  0.00  0.00    +0.000 NA
ATOM     20  N   UNL     1       7.659   8.162  16.963  0.00  0.00    +0.000 NA
BRANCH  18  21
ATOM     21  C   UNL     1       9.299  10.554  19.053  0.00  0.00    +0.000 A 
ATOM     22  C   UNL     1       9.528  10.689  20.456  0.00  0.00    +0.000 A 
ATOM     23  C   UNL     1      10.118  11.894  20.771  0.00  0.00    +0.000 A 
ATOM     24  S   UNL     1      10.387  12.862  19.388  0.00  0.00    +0.000 S 
ATOM     25  C   UNL     1       9.718  11.669  18.359  0.00  0.00    +0.000 A 
ENDBRANCH  18  21
ENDBRANCH  15  16
ENDBRANCH   6  15
TORSDOF 4
ENDMDL
MODEL 5
REMARK VINA RESULT:      -6.7      5.393      7.727
REMARK  Name = 
REMARK  5 active torsions:
REMARK  status: ('A' for Active; 'I' for Inactive)
REMARK    1  A    between atoms: C_1  and  N_2
REMARK    2  A    between atoms: C_6  and  C_7
REMARK    3  A    between atoms: C_12  and  C_13
REMARK    4  A    between atoms: C_13  and  N_14
REMARK    5  A    between atoms: C_16  and  C_17
REMARK                            x       y       z     vdW  Elec       q    Type
REMARK                         _______ _______ _______ _____ _____    ______ ____
ROOT
ATOM      1  C   UNL     1       4.611   3.876  18.232  0.00  0.00    +0.000 C 
ATOM      2  O   UNL     1       4.544   2.738  18.704  0.00  0.00    +0.000 OA
ATOM      3  N   UNL     1       3.893   4.937  18.809  0.00  0.00    +0.000 N 
ATOM      4  C   UNL     1       3.332   4.780  20.146  0.00  0.00    +0.000 C 
ATOM      5  C   UNL     1       1.846   5.125  20.152  0.00  0.00    +0.000 C 
ATOM      6  C   UNL     1       1.575   6.532  19.586  0.00  0.00    +0.000 C 
ATOM      7  C   UNL     1       2.193   6.621  18.182  0.00  0.00    +0.000 C 
ATOM      8  C   UNL     1       3.673   6.232  18.159  0.00  0.00    +0.000 C 
ENDROOT
BRANCH   1  14
ATOM      9  C   UNL     1       7.499   4.991  18.185  0.00  0.00    +0.000 C 
ATOM     10  N   UNL     1       6.693   4.665  17.033  0.00  0.00    +0.000 N 
ATOM     11  C   UNL     1       7.108   4.743  15.731  0.00  0.00    +0.000 A 
ATOM     12  C   UNL     1       6.029   4.342  14.985  0.00  0.00    +0.000 A 
ATOM     13  N   UNL     1       4.983   4.005  15.799  0.00  0.00    +0.000 NA
ATOM     14  C   UNL     1       5.412   4.162  17.042  0.00  0.00    +0.000 A 
ENDBRANCH   1  14
BRANCH   6  15
ATOM     15  C   UNL     1       2.095   7.682  20.470  0.00  0.00    +0.000 C 
BRANCH  15  16
ATOM     16  N   UNL     1       1.255   8.858  20.467  0.00  0.00    +0.000 N 
ATOM     17  C   UNL     1       0.489   9.328  21.492  0.00  0.00    +0.000 A 
ATOM     18  C   UNL     1      -0.150  10.415  20.943  0.00  0.00    +0.000 A 
ATOM     19  N   UNL     1       0.267  10.585  19.650  0.00  0.00    +0.000 NA
ATOM     20  N   UNL     1       1.146   9.625  19.372  0.00  0.00    +0.000 NA
BRANCH  18  21
ATOM     21  C   UNL     1      -1.148  11.289  21.552  0.00  0.00    +0.000 A 
ATOM     22  C   UNL     1      -1.428  11.290  22.952  0.00  0.00    +0.000 A 
ATOM     23  C   UNL     1      -2.387  12.220  23.288  0.00  0.00    +0.000 A 
ATOM     24  S   UNL     1      -2.956  13.082  21.925  0.00  0.00    +0.000 S 
ATOM     25  C   UNL     1      -1.916  12.216  20.878  0.00  0.00    +0.000 A 
ENDBRANCH  18  21
ENDBRANCH  15  16
ENDBRANCH   6  15
TORSDOF 4
ENDMDL
MODEL 6
REMARK VINA RESULT:      -6.7      5.553      7.622
REMARK  Name = 
REMARK  5 active torsions:
REMARK  status: ('A' for Active; 'I' for Inactive)
REMARK    1  A    between atoms: C_1  and  N_2
REMARK    2  A    between atoms: C_6  and  C_7
REMARK    3  A    between atoms: C_12  and  C_13
REMARK    4  A    between atoms: C_13  and  N_14
REMARK    5  A    between atoms: C_16  and  C_17
REMARK                            x       y       z     vdW  Elec       q    Type
REMARK                         _______ _______ _______ _____ _____    ______ ____
ROOT
ATOM      1  C   UNL     1       4.509   3.935  19.211  0.00  0.00    +0.000 C 
ATOM      2  O   UNL     1       4.206   2.765  19.457  0.00  0.00    +0.000 OA
ATOM      3  N   UNL     1       3.724   4.997  19.691  0.00  0.00    +0.000 N 
ATOM      4  C   UNL     1       2.745   4.748  20.742  0.00  0.00    +0.000 C 
ATOM      5  C   UNL     1       1.369   5.267  20.335  0.00  0.00    +0.000 C 
ATOM      6  C   UNL     1       1.406   6.755  19.937  0.00  0.00    +0.000 C 
ATOM      7  C   UNL     1       2.455   6.939  18.830  0.00  0.00    +0.000 C 
ATOM      8  C   UNL     1       3.827   6.379  19.213  0.00  0.00    +0.000 C 
ENDROOT
BRANCH   1  14
ATOM      9  C   UNL     1       4.624   4.002  16.117  0.00  0.00    +0.000 C 
ATOM     10  N   UNL     1       5.716   4.285  17.016  0.00  0.00    +0.000 N 
ATOM     11  C   UNL     1       6.968   4.688  16.636  0.00  0.00    +0.000 A 
ATOM     12  C   UNL     1       7.668   4.837  17.806  0.00  0.00    +0.000 A 
ATOM     13  N   UNL     1       6.871   4.557  18.881  0.00  0.00    +0.000 NA
ATOM     14  C   UNL     1       5.675   4.265  18.392  0.00  0.00    +0.000 A 
ENDBRANCH   1  14
BRANCH   6  15
ATOM     15  C   UNL     1       1.692   7.717  21.107  0.00  0.00    +0.000 C 
BRANCH  15  16
ATOM     16  N   UNL     1       0.914   8.934  21.076  0.00  0.00    +0.000 N 
ATOM     17  C   UNL     1       0.667   9.782  22.114  0.00  0.00    +0.000 A 
ATOM     18  C   UNL     1      -0.169  10.727  21.567  0.00  0.00    +0.000 A 
ATOM     19  N   UNL     1      -0.365  10.448  20.240  0.00  0.00    +0.000 NA
ATOM     20  N   UNL     1       0.320   9.346  19.946  0.00  0.00    +0.000 NA
BRANCH  18  21
ATOM     21  C   UNL     1      -0.815  11.861  22.219  0.00  0.00    +0.000 A 
ATOM     22  C   UNL     1      -2.002  11.733  23.001  0.00  0.00    +0.000 A 
ATOM     23  C   UNL     1      -2.404  12.938  23.535  0.00  0.00    +0.000 A 
ATOM     24  S   UNL     1      -1.364  14.220  23.090  0.00  0.00    +0.000 S 
ATOM     25  C   UNL     1      -0.366  13.165  22.183  0.00  0.00    +0.000 A 
ENDBRANCH  18  21
ENDBRANCH  15  16
ENDBRANCH   6  15
TORSDOF 4
ENDMDL
MODEL 7
REMARK VINA RESULT:      -6.6      1.874      2.498
REMARK  Name = 
REMARK  5 active torsions:
REMARK  status: ('A' for Active; 'I' for Inactive)
REMARK    1  A    between atoms: C_1  and  N_2
REMARK    2  A    between atoms: C_6  and  C_7
REMARK    3  A    between atoms: C_12  and  C_13
REMARK    4  A    between atoms: C_13  and  N_14
REMARK    5  A    between atoms: C_16  and  C_17
REMARK                            x       y       z     vdW  Elec       q    Type
REMARK                         _______ _______ _______ _____ _____    ______ ____
ROOT
ATOM      1  C   UNL     1       2.768   5.536  19.619  0.00  0.00    +0.000 C 
ATOM      2  O   UNL     1       2.232   6.625  19.838  0.00  0.00    +0.000 OA
ATOM      3  N   UNL     1       3.855   5.435  18.733  0.00  0.00    +0.000 N 
ATOM      4  C   UNL     1       4.560   6.644  18.323  0.00  0.00    +0.000 C 
ATOM      5  C   UNL     1       4.650   6.727  16.802  0.00  0.00    +0.000 C 
ATOM      6  C   UNL     1       5.285   5.464  16.189  0.00  0.00    +0.000 C 
ATOM      7  C   UNL     1       4.491   4.238  16.664  0.00  0.00    +0.000 C 
ATOM      8  C   UNL     1       4.357   4.171  18.187  0.00  0.00    +0.000 C 
ENDROOT
BRANCH   1  14
ATOM      9  C   UNL     1       0.950   3.398  18.310  0.00  0.00    +0.000 C 
ATOM     10  N   UNL     1       1.469   3.366  19.656  0.00  0.00    +0.000 N 
ATOM     11  C   UNL     1       1.283   2.347  20.550  0.00  0.00    +0.000 A 
ATOM     12  C   UNL     1       1.945   2.739  21.685  0.00  0.00    +0.000 A 
ATOM     13  N   UNL     1       2.541   3.956  21.496  0.00  0.00    +0.000 NA
ATOM     14  C   UNL     1       2.283   4.307  20.245  0.00  0.00    +0.000 A 
ENDBRANCH   1  14
BRANCH   6  15
ATOM     15  C   UNL     1       6.782   5.288  16.511  0.00  0.00    +0.000 C 
BRANCH  15  16
ATOM     16  N   UNL     1       7.339   6.339  17.330  0.00  0.00    +0.000 N 
ATOM     17  C   UNL     1       7.444   7.662  17.017  0.00  0.00    +0.000 A 
ATOM     18  C   UNL     1       8.101   8.198  18.099  0.00  0.00    +0.000 A 
ATOM     19  N   UNL     1       8.333   7.215  19.024  0.00  0.00    +0.000 NA
ATOM     20  N   UNL     1       7.845   6.075  18.544  0.00  0.00    +0.000 NA
BRANCH  18  21
ATOM     21  C   UNL     1       8.547   9.572  18.307  0.00  0.00    +0.000 A 
ATOM     22  C   UNL     1       9.334   9.970  19.429  0.00  0.00    +0.000 A 
ATOM     23  C   UNL     1       9.652  11.311  19.390  0.00  0.00    +0.000 A 
ATOM     24  S   UNL     1       8.999  12.088  18.015  0.00  0.00    +0.000 S 
ATOM     25  C   UNL     1       8.290  10.632  17.462  0.00  0.00    +0.000 A 
ENDBRANCH  18  21
ENDBRANCH  15  16
ENDBRANCH   6  15
TORSDOF 4
ENDMDL
MODEL 8
REMARK VINA RESULT:      -6.6      5.448      7.724
REMARK  Name = 
REMARK  5 active torsions:
REMARK  status: ('A' for Active; 'I' for Inactive)
REMARK    1  A    between atoms: C_1  and  N_2
REMARK    2  A    between atoms: C_6  and  C_7
REMARK    3  A    between atoms: C_12  and  C_13
REMARK    4  A    between atoms: C_13  and  N_14
REMARK    5  A    between atoms: C_16  and  C_17
REMARK                            x       y       z     vdW  Elec       q    Type
REMARK                         _______ _______ _______ _____ _____    ______ ____
ROOT
ATOM      1  C   UNL     1       4.319   3.929  18.379  0.00  0.00    +0.000 C 
ATOM      2  O   UNL     1       4.110   2.780  18.775  0.00  0.00    +0.000 OA
ATOM      3  N   UNL     1       3.726   5.029  19.022  0.00  0.00    +0.000 N 
ATOM      4  C   UNL     1       3.132   4.855  20.342  0.00  0.00    +0.000 C 
ATOM      5  C   UNL     1       1.698   5.375  20.363  0.00  0.00    +0.000 C 
ATOM      6  C   UNL     1       1.606   6.839  19.889  0.00  0.00    +0.000 C 
ATOM      7  C   UNL     1       2.249   6.944  18.498  0.00  0.00    +0.000 C 
ATOM      8  C   UNL     1       3.672   6.381  18.458  0.00  0.00    +0.000 C 
ENDROOT
BRANCH   1  14
ATOM      9  C   UNL     1       7.223   5.004  18.423  0.00  0.00    +0.000 C 
ATOM     10  N   UNL     1       6.453   4.679  17.247  0.00  0.00    +0.000 N 
ATOM     11  C   UNL     1       6.913   4.739  15.960  0.00  0.00    +0.000 A 
ATOM     12  C   UNL     1       5.855   4.347  15.180  0.00  0.00    +0.000 A 
ATOM     13  N   UNL     1       4.777   4.031  15.960  0.00  0.00    +0.000 NA
ATOM     14  C   UNL     1       5.165   4.194  17.216  0.00  0.00    +0.000 A 
ENDBRANCH   1  14
BRANCH   6  15
ATOM     15  C   UNL     1       2.248   7.857  20.851  0.00  0.00    +0.000 C 
BRANCH  15  16
ATOM     16  N   UNL     1       1.325   8.834  21.381  0.00  0.00    +0.000 N 
ATOM     17  C   UNL     1       0.358   9.511  20.699  0.00  0.00    +0.000 A 
ATOM     18  C   UNL     1      -0.176  10.353  21.647  0.00  0.00    +0.000 A 
ATOM     19  N   UNL     1       0.444  10.137  22.849  0.00  0.00    +0.000 NA
ATOM     20  N   UNL     1       1.360   9.187  22.675  0.00  0.00    +0.000 NA
BRANCH  18  21
ATOM     21  C   UNL     1      -1.215  11.364  21.487  0.00  0.00    +0.000 A 
ATOM     22  C   UNL     1      -1.898  11.955  22.593  0.00  0.00    +0.000 A 
ATOM     23  C   UNL     1      -2.815  12.902  22.190  0.00  0.00    +0.000 A 
ATOM     24  S   UNL     1      -2.860  13.073  20.489  0.00  0.00    +0.000 S 
ATOM     25  C   UNL     1      -1.648  11.882  20.284  0.00  0.00    +0.000 A 
ENDBRANCH  18  21
ENDBRANCH  15  16
ENDBRANCH   6  15
TORSDOF 4
ENDMDL
MODEL 9
REMARK VINA RESULT:      -6.6      4.957      7.074
REMARK  Name = 
REMARK  5 active torsions:
REMARK  status: ('A' for Active; 'I' for Inactive)
REMARK    1  A    between atoms: C_1  and  N_2
REMARK    2  A    between atoms: C_6  and  C_7
REMARK    3  A    between atoms: C_12  and  C_13
REMARK    4  A    between atoms: C_13  and  N_14
REMARK    5  A    between atoms: C_16  and  C_17
REMARK                            x       y       z     vdW  Elec       q    Type
REMARK                         _______ _______ _______ _____ _____    ______ ____
ROOT
ATOM      1  C   UNL     1       4.412   3.666  17.640  0.00  0.00    +0.000 C 
ATOM      2  O   UNL     1       4.169   2.469  17.815  0.00  0.00    +0.000 OA
ATOM      3  N   UNL     1       3.795   4.649  18.431  0.00  0.00    +0.000 N 
ATOM      4  C   UNL     1       3.123   4.258  19.665  0.00  0.00    +0.000 C 
ATOM      5  C   UNL     1       1.695   4.796  19.697  0.00  0.00    +0.000 C 
ATOM      6  C   UNL     1       1.646   6.321  19.483  0.00  0.00    +0.000 C 
ATOM      7  C   UNL     1       2.370   6.654  18.170  0.00  0.00    +0.000 C 
ATOM      8  C   UNL     1       3.787   6.079  18.111  0.00  0.00    +0.000 C 
ENDROOT
BRANCH   1  14
ATOM      9  C   UNL     1       7.327   4.636  18.030  0.00  0.00    +0.000 C 
ATOM     10  N   UNL     1       6.620   4.548  16.775  0.00  0.00    +0.000 N 
ATOM     11  C   UNL     1       7.153   4.827  15.546  0.00  0.00    +0.000 A 
ATOM     12  C   UNL     1       6.134   4.610  14.654  0.00  0.00    +0.000 A 
ATOM     13  N   UNL     1       5.008   4.189  15.306  0.00  0.00    +0.000 NA
ATOM     14  C   UNL     1       5.327   4.112  16.589  0.00  0.00    +0.000 A 
ENDBRANCH   1  14
BRANCH   6  15
ATOM     15  C   UNL     1       2.241   7.143  20.643  0.00  0.00    +0.000 C 
BRANCH  15  16
ATOM     16  N   UNL     1       1.553   8.387  20.901  0.00  0.00    +0.000 N 
ATOM     17  C   UNL     1       0.984   9.221  19.985  0.00  0.00    +0.000 A 
ATOM     18  C   UNL     1       0.536  10.276  20.744  0.00  0.00    +0.000 A 
ATOM     19  N   UNL     1       0.809  10.036  22.065  0.00  0.00    +0.000 NA
ATOM     20  N   UNL     1       1.425   8.860  22.150  0.00  0.00    +0.000 NA
BRANCH  18  21
ATOM     21  C   UNL     1      -0.110  11.508  20.303  0.00  0.00    +0.000 A 
ATOM     22  C   UNL     1       0.042  12.034  18.985  0.00  0.00    +0.000 A 
ATOM     23  C   UNL     1      -0.686  13.189  18.800  0.00  0.00    +0.000 A 
ATOM     24  S   UNL     1      -1.541  13.645  20.209  0.00  0.00    +0.000 S 
ATOM     25  C   UNL     1      -0.943  12.293  21.073  0.00  0.00    +0.000 A 
ENDBRANCH  18  21
ENDBRANCH  15  16
ENDBRANCH   6  15
TORSDOF 4
ENDMDL
