MODEL 1
REMARK VINA RESULT:      -8.8      0.000      0.000
REMARK  Name = 
REMARK  6 active torsions:
REMARK  status: ('A' for Active; 'I' for Inactive)
REMARK    1  A    between atoms: C_2  and  C_23
REMARK    2  A    between atoms: N_3  and  C_4
REMARK    3  A    between atoms: C_7  and  O_8
REMARK    4  A    between atoms: O_8  and  C_9
REMARK    5  A    between atoms: C_9  and  C_10
REMARK    6  A    between atoms: C_16  and  N_17
REMARK                            x       y       z     vdW  Elec       q    Type
REMARK                         _______ _______ _______ _____ _____    ______ ____
ROOT
ATOM      1  C   UNL     1       2.777   6.991  19.255  0.00  0.00    +0.000 A 
ATOM      2  C   UNL     1       3.219   7.546  18.060  0.00  0.00    +0.000 A 
ATOM      3  C   UNL     1       3.878   6.772  17.113  0.00  0.00    +0.000 A 
ATOM      4  C   UNL     1       4.173   5.426  17.350  0.00  0.00    +0.000 A 
ATOM      5  C   UNL     1       3.716   4.838  18.544  0.00  0.00    +0.000 A 
ATOM      6  C   UNL     1       3.037   5.638  19.500  0.00  0.00    +0.000 A 
ENDROOT
BRANCH   5   7
ATOM      7  N   UNL     1       3.896   3.460  18.846  0.00  0.00    +0.000 N 
ATOM      8  C   UNL     1       3.249   2.332  18.391  0.00  0.00    +0.000 A 
ATOM      9  N   UNL     1       3.756   1.269  18.977  0.00  0.00    +0.000 NA
ATOM     10  N   UNL     1       4.728   1.729  19.817  0.00  0.00    +0.000 NA
ATOM     11  N   UNL     1       4.821   3.050  19.757  0.00  0.00    +0.000 NA
ENDBRANCH   5   7
BRANCH   1  14
ATOM     12  O   UNL     1       1.050   9.291  18.794  0.00  0.00    +0.000 OA
ATOM     13  C   UNL     1       1.312   8.871  19.917  0.00  0.00    +0.000 C 
ATOM     14  N   UNL     1       2.076   7.752  20.219  0.00  0.00    +0.000 N 
ATOM     15  H   UNL     1       2.016   7.373  21.155  0.00  0.00    +0.000 HD
BRANCH  13  16
ATOM     16  C   UNL     1       0.705   9.597  21.052  0.00  0.00    +0.000 A 
ATOM     17  C   UNL     1       0.618   8.916  22.269  0.00  0.00    +0.000 A 
ATOM     18  C   UNL     1      -0.034   9.537  23.312  0.00  0.00    +0.000 A 
ATOM     19  N   UNL     1      -0.594  10.759  23.216  0.00  0.00    +0.000 NA
ATOM     20  C   UNL     1      -0.507  11.386  22.022  0.00  0.00    +0.000 A 
ATOM     21  C   UNL     1       0.130  10.857  20.913  0.00  0.00    +0.000 A 
ENDBRANCH  13  16
ENDBRANCH   1  14
BRANCH   4  22
ATOM     22  O   UNL     1       4.913   4.698  16.457  0.00  0.00    +0.000 OA
BRANCH  22  23
ATOM     23  C   UNL     1       6.097   5.344  15.964  0.00  0.00    +0.000 C 
BRANCH  23  24
ATOM     24  C   UNL     1       6.395   4.878  14.566  0.00  0.00    +0.000 A 
ATOM     25  C   UNL     1       7.497   5.382  13.866  0.00  0.00    +0.000 A 
ATOM     26  C   UNL     1       7.773   4.931  12.576  0.00  0.00    +0.000 A 
ATOM     27  C   UNL     1       6.953   3.975  11.979  0.00  0.00    +0.000 A 
ATOM     28  C   UNL     1       5.857   3.462  12.671  0.00  0.00    +0.000 A 
ATOM     29  C   UNL     1       5.579   3.913  13.959  0.00  0.00    +0.000 A 
ENDBRANCH  23  24
ENDBRANCH  22  23
ENDBRANCH   4  22
TORSDOF 6
ENDMDL
MODEL 2
REMARK VINA RESULT:      -8.7      4.948      7.333
REMARK  Name = 
REMARK  6 active torsions:
REMARK  status: ('A' for Active; 'I' for Inactive)
REMARK    1  A    between atoms: C_2  and  C_23
REMARK    2  A    between atoms: N_3  and  C_4
REMARK    3  A    between atoms: C_7  and  O_8
REMARK    4  A    between atoms: O_8  and  C_9
REMARK    5  A    between atoms: C_9  and  C_10
REMARK    6  A    between atoms: C_16  and  N_17
REMARK                            x       y       z     vdW  Elec       q    Type
REMARK                         _______ _______ _______ _____ _____    ______ ____
ROOT
ATOM      1  C   UNL     1       7.663   6.778  18.403  0.00  0.00    +0.000 A 
ATOM      2  C   UNL     1       6.909   6.079  19.338  0.00  0.00    +0.000 A 
ATOM      3  C   UNL     1       6.122   4.999  18.959  0.00  0.00    +0.000 A 
ATOM      4  C   UNL     1       6.012   4.613  17.619  0.00  0.00    +0.000 A 
ATOM      5  C   UNL     1       6.784   5.293  16.659  0.00  0.00    +0.000 A 
ATOM      6  C   UNL     1       7.591   6.389  17.061  0.00  0.00    +0.000 A 
ENDROOT
BRANCH   5   7
ATOM      7  N   UNL     1       6.805   4.929  15.283  0.00  0.00    +0.000 N 
ATOM      8  C   UNL     1       6.094   3.985  14.577  0.00  0.00    +0.000 A 
ATOM      9  N   UNL     1       6.473   4.001  13.318  0.00  0.00    +0.000 NA
ATOM     10  N   UNL     1       7.440   4.960  13.228  0.00  0.00    +0.000 NA
ATOM     11  N   UNL     1       7.658   5.525  14.406  0.00  0.00    +0.000 NA
ENDBRANCH   5   7
BRANCH   1  14
ATOM     12  O   UNL     1       7.434   9.562  17.580  0.00  0.00    +0.000 OA
ATOM     13  C   UNL     1       8.346   9.153  18.292  0.00  0.00    +0.000 C 
ATOM     14  N   UNL     1       8.496   7.859  18.773  0.00  0.00    +0.000 N 
ATOM     15  H   UNL     1       9.141   7.708  19.538  0.00  0.00    +0.000 HD
BRANCH  13  16
ATOM     16  C   UNL     1       9.347  10.150  18.722  0.00  0.00    +0.000 A 
ATOM     17  C   UNL     1       9.378  10.476  20.081  0.00  0.00    +0.000 A 
ATOM     18  C   UNL     1      10.235  11.475  20.488  0.00  0.00    +0.000 A 
ATOM     19  N   UNL     1      11.037  12.154  19.644  0.00  0.00    +0.000 NA
ATOM     20  C   UNL     1      10.974  11.829  18.334  0.00  0.00    +0.000 A 
ATOM     21  C   UNL     1      10.155  10.837  17.821  0.00  0.00    +0.000 A 
ENDBRANCH  13  16
ENDBRANCH   1  14
BRANCH   4  22
ATOM     22  O   UNL     1       5.155   3.614  17.240  0.00  0.00    +0.000 OA
BRANCH  22  23
ATOM     23  C   UNL     1       3.838   4.042  16.861  0.00  0.00    +0.000 C 
BRANCH  23  24
ATOM     24  C   UNL     1       2.848   3.677  17.932  0.00  0.00    +0.000 A 
ATOM     25  C   UNL     1       2.365   2.368  18.041  0.00  0.00    +0.000 A 
ATOM     26  C   UNL     1       1.459   2.040  19.049  0.00  0.00    +0.000 A 
ATOM     27  C   UNL     1       1.032   3.012  19.951  0.00  0.00    +0.000 A 
ATOM     28  C   UNL     1       1.513   4.316  19.854  0.00  0.00    +0.000 A 
ATOM     29  C   UNL     1       2.417   4.648  18.847  0.00  0.00    +0.000 A 
ENDBRANCH  23  24
ENDBRANCH  22  23
ENDBRANCH   4  22
TORSDOF 6
ENDMDL
MODEL 3
REMARK VINA RESULT:      -8.6      0.969      1.685
REMARK  Name = 
REMARK  6 active torsions:
REMARK  status: ('A' for Active; 'I' for Inactive)
REMARK    1  A    between atoms: C_2  and  C_23
REMARK    2  A    between atoms: N_3  and  C_4
REMARK    3  A    between atoms: C_7  and  O_8
REMARK    4  A    between atoms: O_8  and  C_9
REMARK    5  A    between atoms: C_9  and  C_10
REMARK    6  A    between atoms: C_16  and  N_17
REMARK                            x       y       z     vdW  Elec       q    Type
REMARK                         _______ _______ _______ _____ _____    ______ ____
ROOT
ATOM      1  C   UNL     1       3.011   7.019  18.503  0.00  0.00    +0.000 A 
ATOM      2  C   UNL     1       3.800   7.480  17.457  0.00  0.00    +0.000 A 
ATOM      3  C   UNL     1       4.690   6.636  16.806  0.00  0.00    +0.000 A 
ATOM      4  C   UNL     1       4.870   5.312  17.216  0.00  0.00    +0.000 A 
ATOM      5  C   UNL     1       4.066   4.817  18.260  0.00  0.00    +0.000 A 
ATOM      6  C   UNL     1       3.154   5.688  18.911  0.00  0.00    +0.000 A 
ENDROOT
BRANCH   5   7
ATOM      7  N   UNL     1       4.115   3.465  18.700  0.00  0.00    +0.000 N 
ATOM      8  C   UNL     1       3.438   2.342  18.280  0.00  0.00    +0.000 A 
ATOM      9  N   UNL     1       3.806   1.310  19.008  0.00  0.00    +0.000 NA
ATOM     10  N   UNL     1       4.719   1.787  19.904  0.00  0.00    +0.000 NA
ATOM     11  N   UNL     1       4.911   3.087  19.738  0.00  0.00    +0.000 NA
ENDBRANCH   5   7
BRANCH   1  14
ATOM     12  O   UNL     1       1.756   9.438  17.474  0.00  0.00    +0.000 OA
ATOM     13  C   UNL     1       1.563   9.022  18.613  0.00  0.00    +0.000 C 
ATOM     14  N   UNL     1       2.076   7.853  19.158  0.00  0.00    +0.000 N 
ATOM     15  H   UNL     1       1.653   7.499  20.008  0.00  0.00    +0.000 HD
BRANCH  13  16
ATOM     16  C   UNL     1       0.650   9.816  19.461  0.00  0.00    +0.000 A 
ATOM     17  C   UNL     1      -0.101  10.810  18.829  0.00  0.00    +0.000 A 
ATOM     18  C   UNL     1      -0.884  11.627  19.616  0.00  0.00    +0.000 A 
ATOM     19  N   UNL     1      -0.955  11.520  20.957  0.00  0.00    +0.000 NA
ATOM     20  C   UNL     1      -0.204  10.559  21.542  0.00  0.00    +0.000 A 
ATOM     21  C   UNL     1       0.609   9.681  20.846  0.00  0.00    +0.000 A 
ENDBRANCH  13  16
ENDBRANCH   1  14
BRANCH   4  22
ATOM     22  O   UNL     1       5.823   4.516  16.637  0.00  0.00    +0.000 OA
BRANCH  22  23
ATOM     23  C   UNL     1       6.854   5.211  15.920  0.00  0.00    +0.000 C 
BRANCH  23  24
ATOM     24  C   UNL     1       6.864   4.779  14.480  0.00  0.00    +0.000 A 
ATOM     25  C   UNL     1       5.983   3.791  14.026  0.00  0.00    +0.000 A 
ATOM     26  C   UNL     1       5.991   3.410  12.685  0.00  0.00    +0.000 A 
ATOM     27  C   UNL     1       6.875   4.012  11.791  0.00  0.00    +0.000 A 
ATOM     28  C   UNL     1       7.750   5.003  12.233  0.00  0.00    +0.000 A 
ATOM     29  C   UNL     1       7.745   5.384  13.573  0.00  0.00    +0.000 A 
ENDBRANCH  23  24
ENDBRANCH  22  23
ENDBRANCH   4  22
TORSDOF 6
ENDMDL
MODEL 4
REMARK VINA RESULT:      -8.5      1.530      2.716
REMARK  Name = 
REMARK  6 active torsions:
REMARK  status: ('A' for Active; 'I' for Inactive)
REMARK    1  A    between atoms: C_2  and  C_23
REMARK    2  A    between atoms: N_3  and  C_4
REMARK    3  A    between atoms: C_7  and  O_8
REMARK    4  A    between atoms: O_8  and  C_9
REMARK    5  A    between atoms: C_9  and  C_10
REMARK    6  A    between atoms: C_16  and  N_17
REMARK                            x       y       z     vdW  Elec       q    Type
REMARK                         _______ _______ _______ _____ _____    ______ ____
ROOT
ATOM      1  C   UNL     1       2.574   7.070  19.261  0.00  0.00    +0.000 A 
ATOM      2  C   UNL     1       2.978   7.636  18.059  0.00  0.00    +0.000 A 
ATOM      3  C   UNL     1       3.653   6.886  17.105  0.00  0.00    +0.000 A 
ATOM      4  C   UNL     1       4.004   5.553  17.342  0.00  0.00    +0.000 A 
ATOM      5  C   UNL     1       3.586   4.953  18.545  0.00  0.00    +0.000 A 
ATOM      6  C   UNL     1       2.890   5.729  19.507  0.00  0.00    +0.000 A 
ENDROOT
BRANCH   5   7
ATOM      7  N   UNL     1       3.824   3.583  18.849  0.00  0.00    +0.000 N 
ATOM      8  C   UNL     1       3.211   2.430  18.412  0.00  0.00    +0.000 A 
ATOM      9  N   UNL     1       3.768   1.390  18.992  0.00  0.00    +0.000 NA
ATOM     10  N   UNL     1       4.740   1.890  19.810  0.00  0.00    +0.000 NA
ATOM     11  N   UNL     1       4.782   3.212  19.742  0.00  0.00    +0.000 NA
ENDBRANCH   5   7
BRANCH   1  14
ATOM     12  O   UNL     1       0.974   9.469  18.851  0.00  0.00    +0.000 OA
ATOM     13  C   UNL     1       1.159   8.975  19.959  0.00  0.00    +0.000 C 
ATOM     14  N   UNL     1       1.858   7.807  20.232  0.00  0.00    +0.000 N 
ATOM     15  H   UNL     1       1.733   7.380  21.141  0.00  0.00    +0.000 HD
BRANCH  13  16
ATOM     16  C   UNL     1       0.526   9.663  21.103  0.00  0.00    +0.000 A 
ATOM     17  C   UNL     1       0.578   9.018  22.341  0.00  0.00    +0.000 A 
ATOM     18  C   UNL     1      -0.091   9.594  23.400  0.00  0.00    +0.000 A 
ATOM     19  N   UNL     1      -0.795  10.738  23.299  0.00  0.00    +0.000 NA
ATOM     20  C   UNL     1      -0.841  11.331  22.084  0.00  0.00    +0.000 A 
ATOM     21  C   UNL     1      -0.200  10.842  20.959  0.00  0.00    +0.000 A 
ENDBRANCH  13  16
ENDBRANCH   1  14
BRANCH   4  22
ATOM     22  O   UNL     1       4.759   4.850  16.441  0.00  0.00    +0.000 OA
BRANCH  22  23
ATOM     23  C   UNL     1       5.883   5.556  15.895  0.00  0.00    +0.000 C 
BRANCH  23  24
ATOM     24  C   UNL     1       6.759   6.070  17.003  0.00  0.00    +0.000 A 
ATOM     25  C   UNL     1       7.200   5.215  18.019  0.00  0.00    +0.000 A 
ATOM     26  C   UNL     1       8.024   5.701  19.033  0.00  0.00    +0.000 A 
ATOM     27  C   UNL     1       8.413   7.039  19.039  0.00  0.00    +0.000 A 
ATOM     28  C   UNL     1       7.984   7.897  18.028  0.00  0.00    +0.000 A 
ATOM     29  C   UNL     1       7.159   7.414  17.014  0.00  0.00    +0.000 A 
ENDBRANCH  23  24
ENDBRANCH  22  23
ENDBRANCH   4  22
TORSDOF 6
ENDMDL
MODEL 5
REMARK VINA RESULT:      -8.5      2.904      3.576
REMARK  Name = 
REMARK  6 active torsions:
REMARK  status: ('A' for Active; 'I' for Inactive)
REMARK    1  A    between atoms: C_2  and  C_23
REMARK    2  A    between atoms: N_3  and  C_4
REMARK    3  A    between atoms: C_7  and  O_8
REMARK    4  A    between atoms: O_8  and  C_9
REMARK    5  A    between atoms: C_9  and  C_10
REMARK    6  A    between atoms: C_16  and  N_17
REMARK                            x       y       z     vdW  Elec       q    Type
REMARK                         _______ _______ _______ _____ _____    ______ ____
ROOT
ATOM      1  C   UNL     1       1.477   8.356  19.799  0.00  0.00    +0.000 A 
ATOM      2  C   UNL     1       2.237   8.446  18.640  0.00  0.00    +0.000 A 
ATOM      3  C   UNL     1       2.899   7.336  18.131  0.00  0.00    +0.000 A 
ATOM      4  C   UNL     1       2.875   6.106  18.795  0.00  0.00    +0.000 A 
ATOM      5  C   UNL     1       2.093   5.986  19.960  0.00  0.00    +0.000 A 
ATOM      6  C   UNL     1       1.415   7.126  20.464  0.00  0.00    +0.000 A 
ENDROOT
BRANCH   5   7
ATOM      7  N   UNL     1       1.939   4.761  20.666  0.00  0.00    +0.000 N 
ATOM      8  C   UNL     1       2.701   4.171  21.649  0.00  0.00    +0.000 A 
ATOM      9  N   UNL     1       2.166   3.017  21.986  0.00  0.00    +0.000 NA
ATOM     10  N   UNL     1       1.058   2.872  21.202  0.00  0.00    +0.000 NA
ATOM     11  N   UNL     1       0.910   3.912  20.394  0.00  0.00    +0.000 NA
ENDBRANCH   5   7
BRANCH   1  14
ATOM     12  O   UNL     1       1.437   9.318  22.548  0.00  0.00    +0.000 OA
ATOM     13  C   UNL     1       0.764   9.826  21.657  0.00  0.00    +0.000 C 
ATOM     14  N   UNL     1       0.769   9.466  20.316  0.00  0.00    +0.000 N 
ATOM     15  H   UNL     1       0.364  10.110  19.649  0.00  0.00    +0.000 HD
BRANCH  13  16
ATOM     16  C   UNL     1      -0.087  10.970  22.042  0.00  0.00    +0.000 A 
ATOM     17  C   UNL     1      -1.073  10.734  23.004  0.00  0.00    +0.000 A 
ATOM     18  C   UNL     1      -1.942  11.760  23.306  0.00  0.00    +0.000 A 
ATOM     19  N   UNL     1      -1.893  12.972  22.718  0.00  0.00    +0.000 NA
ATOM     20  C   UNL     1      -0.939  13.165  21.780  0.00  0.00    +0.000 A 
ATOM     21  C   UNL     1      -0.012  12.207  21.408  0.00  0.00    +0.000 A 
ENDBRANCH  13  16
ENDBRANCH   1  14
BRANCH   4  22
ATOM     22  O   UNL     1       3.613   5.044  18.343  0.00  0.00    +0.000 OA
BRANCH  22  23
ATOM     23  C   UNL     1       4.483   5.324  17.236  0.00  0.00    +0.000 C 
BRANCH  23  24
ATOM     24  C   UNL     1       5.794   5.866  17.732  0.00  0.00    +0.000 A 
ATOM     25  C   UNL     1       6.476   5.235  18.778  0.00  0.00    +0.000 A 
ATOM     26  C   UNL     1       7.699   5.738  19.220  0.00  0.00    +0.000 A 
ATOM     27  C   UNL     1       8.248   6.871  18.620  0.00  0.00    +0.000 A 
ATOM     28  C   UNL     1       7.579   7.502  17.573  0.00  0.00    +0.000 A 
ATOM     29  C   UNL     1       6.356   7.001  17.131  0.00  0.00    +0.000 A 
ENDBRANCH  23  24
ENDBRANCH  22  23
ENDBRANCH   4  22
TORSDOF 6
ENDMDL
MODEL 6
REMARK VINA RESULT:      -8.5      0.428      1.008
REMARK  Name = 
REMARK  6 active torsions:
REMARK  status: ('A' for Active; 'I' for Inactive)
REMARK    1  A    between atoms: C_2  and  C_23
REMARK    2  A    between atoms: N_3  and  C_4
REMARK    3  A    between atoms: C_7  and  O_8
REMARK    4  A    between atoms: O_8  and  C_9
REMARK    5  A    between atoms: C_9  and  C_10
REMARK    6  A    between atoms: C_16  and  N_17
REMARK                            x       y       z     vdW  Elec       q    Type
REMARK                         _______ _______ _______ _____ _____    ______ ____
ROOT
ATOM      1  C   UNL     1       2.856   7.018  18.961  0.00  0.00    +0.000 A 
ATOM      2  C   UNL     1       3.443   7.546  17.818  0.00  0.00    +0.000 A 
ATOM      3  C   UNL     1       4.199   6.748  16.969  0.00  0.00    +0.000 A 
ATOM      4  C   UNL     1       4.446   5.403  17.262  0.00  0.00    +0.000 A 
ATOM      5  C   UNL     1       3.843   4.842  18.403  0.00  0.00    +0.000 A 
ATOM      6  C   UNL     1       3.067   5.667  19.258  0.00  0.00    +0.000 A 
ENDROOT
BRANCH   5   7
ATOM      7  N   UNL     1       3.967   3.467  18.748  0.00  0.00    +0.000 N 
ATOM      8  C   UNL     1       3.355   2.341  18.246  0.00  0.00    +0.000 A 
ATOM      9  N   UNL     1       3.779   1.282  18.902  0.00  0.00    +0.000 NA
ATOM     10  N   UNL     1       4.662   1.745  19.834  0.00  0.00    +0.000 NA
ATOM     11  N   UNL     1       4.782   3.062  19.760  0.00  0.00    +0.000 NA
ENDBRANCH   5   7
BRANCH   1  14
ATOM     12  O   UNL     1       1.108   9.233  18.238  0.00  0.00    +0.000 OA
ATOM     13  C   UNL     1       1.288   8.881  19.399  0.00  0.00    +0.000 C 
ATOM     14  N   UNL     1       2.057   7.805  19.822  0.00  0.00    +0.000 N 
ATOM     15  H   UNL     1       1.930   7.474  20.770  0.00  0.00    +0.000 HD
BRANCH  13  16
ATOM     16  C   UNL     1       0.569   9.644  20.440  0.00  0.00    +0.000 A 
ATOM     17  C   UNL     1       0.589   9.126  21.737  0.00  0.00    +0.000 A 
ATOM     18  C   UNL     1      -0.157   9.767  22.702  0.00  0.00    +0.000 A 
ATOM     19  N   UNL     1      -0.905  10.860  22.457  0.00  0.00    +0.000 NA
ATOM     20  C   UNL     1      -0.918  11.329  21.189  0.00  0.00    +0.000 A 
ATOM     21  C   UNL     1      -0.201  10.767  20.148  0.00  0.00    +0.000 A 
ENDBRANCH  13  16
ENDBRANCH   1  14
BRANCH   4  22
ATOM     22  O   UNL     1       5.276   4.650  16.474  0.00  0.00    +0.000 OA
BRANCH  22  23
ATOM     23  C   UNL     1       6.336   5.371  15.828  0.00  0.00    +0.000 C 
BRANCH  23  24
ATOM     24  C   UNL     1       6.538   4.852  14.432  0.00  0.00    +0.000 A 
ATOM     25  C   UNL     1       5.675   3.890  13.897  0.00  0.00    +0.000 A 
ATOM     26  C   UNL     1       5.863   3.428  12.595  0.00  0.00    +0.000 A 
ATOM     27  C   UNL     1       6.912   3.923  11.822  0.00  0.00    +0.000 A 
ATOM     28  C   UNL     1       7.773   4.886  12.344  0.00  0.00    +0.000 A 
ATOM     29  C   UNL     1       7.587   5.349  13.645  0.00  0.00    +0.000 A 
ENDBRANCH  23  24
ENDBRANCH  22  23
ENDBRANCH   4  22
TORSDOF 6
ENDMDL
MODEL 7
REMARK VINA RESULT:      -8.5      1.498      2.780
REMARK  Name = 
REMARK  6 active torsions:
REMARK  status: ('A' for Active; 'I' for Inactive)
REMARK    1  A    between atoms: C_2  and  C_23
REMARK    2  A    between atoms: N_3  and  C_4
REMARK    3  A    between atoms: C_7  and  O_8
REMARK    4  A    between atoms: O_8  and  C_9
REMARK    5  A    between atoms: C_9  and  C_10
REMARK    6  A    between atoms: C_16  and  N_17
REMARK                            x       y       z     vdW  Elec       q    Type
REMARK                         _______ _______ _______ _____ _____    ______ ____
ROOT
ATOM      1  C   UNL     1       2.624   6.933  19.231  0.00  0.00    +0.000 A 
ATOM      2  C   UNL     1       3.044   7.504  18.037  0.00  0.00    +0.000 A 
ATOM      3  C   UNL     1       3.744   6.760  17.095  0.00  0.00    +0.000 A 
ATOM      4  C   UNL     1       4.104   5.431  17.339  0.00  0.00    +0.000 A 
ATOM      5  C   UNL     1       3.671   4.826  18.534  0.00  0.00    +0.000 A 
ATOM      6  C   UNL     1       2.949   5.595  19.483  0.00  0.00    +0.000 A 
ENDROOT
BRANCH   5   7
ATOM      7  N   UNL     1       3.916   3.459  18.842  0.00  0.00    +0.000 N 
ATOM      8  C   UNL     1       3.355   2.298  18.359  0.00  0.00    +0.000 A 
ATOM      9  N   UNL     1       3.896   1.264  18.965  0.00  0.00    +0.000 NA
ATOM     10  N   UNL     1       4.803   1.776  19.847  0.00  0.00    +0.000 NA
ATOM     11  N   UNL     1       4.822   3.099  19.792  0.00  0.00    +0.000 NA
ENDBRANCH   5   7
BRANCH   1  14
ATOM     12  O   UNL     1       1.113   9.388  18.817  0.00  0.00    +0.000 OA
ATOM     13  C   UNL     1       1.230   8.858  19.918  0.00  0.00    +0.000 C 
ATOM     14  N   UNL     1       1.883   7.663  20.189  0.00  0.00    +0.000 N 
ATOM     15  H   UNL     1       1.702   7.214  21.078  0.00  0.00    +0.000 HD
BRANCH  13  16
ATOM     16  C   UNL     1       0.562   9.531  21.051  0.00  0.00    +0.000 A 
ATOM     17  C   UNL     1       0.167  10.858  20.859  0.00  0.00    +0.000 A 
ATOM     18  C   UNL     1      -0.368  11.535  21.934  0.00  0.00    +0.000 A 
ATOM     19  N   UNL     1      -0.523  10.986  23.155  0.00  0.00    +0.000 NA
ATOM     20  C   UNL     1      -0.116   9.707  23.314  0.00  0.00    +0.000 A 
ATOM     21  C   UNL     1       0.426   8.935  22.301  0.00  0.00    +0.000 A 
ENDBRANCH  13  16
ENDBRANCH   1  14
BRANCH   4  22
ATOM     22  O   UNL     1       4.883   4.736  16.452  0.00  0.00    +0.000 OA
BRANCH  22  23
ATOM     23  C   UNL     1       5.984   5.468  15.892  0.00  0.00    +0.000 C 
BRANCH  23  24
ATOM     24  C   UNL     1       6.842   6.030  16.991  0.00  0.00    +0.000 A 
ATOM     25  C   UNL     1       7.194   7.384  17.000  0.00  0.00    +0.000 A 
ATOM     26  C   UNL     1       7.977   7.897  18.033  0.00  0.00    +0.000 A 
ATOM     27  C   UNL     1       8.414   7.062  19.061  0.00  0.00    +0.000 A 
ATOM     28  C   UNL     1       8.063   5.714  19.064  0.00  0.00    +0.000 A 
ATOM     29  C   UNL     1       7.281   5.199  18.032  0.00  0.00    +0.000 A 
ENDBRANCH  23  24
ENDBRANCH  22  23
ENDBRANCH   4  22
TORSDOF 6
ENDMDL
MODEL 8
REMARK VINA RESULT:      -8.4      2.880      3.577
REMARK  Name = 
REMARK  6 active torsions:
REMARK  status: ('A' for Active; 'I' for Inactive)
REMARK    1  A    between atoms: C_2  and  C_23
REMARK    2  A    between atoms: N_3  and  C_4
REMARK    3  A    between atoms: C_7  and  O_8
REMARK    4  A    between atoms: O_8  and  C_9
REMARK    5  A    between atoms: C_9  and  C_10
REMARK    6  A    between atoms: C_16  and  N_17
REMARK                            x       y       z     vdW  Elec       q    Type
REMARK                         _______ _______ _______ _____ _____    ______ ____
ROOT
ATOM      1  C   UNL     1       1.449   8.386  19.968  0.00  0.00    +0.000 A 
ATOM      2  C   UNL     1       2.150   8.538  18.778  0.00  0.00    +0.000 A 
ATOM      3  C   UNL     1       2.748   7.450  18.156  0.00  0.00    +0.000 A 
ATOM      4  C   UNL     1       2.719   6.176  18.732  0.00  0.00    +0.000 A 
ATOM      5  C   UNL     1       1.996   5.995  19.926  0.00  0.00    +0.000 A 
ATOM      6  C   UNL     1       1.383   7.114  20.547  0.00  0.00    +0.000 A 
ENDROOT
BRANCH   5   7
ATOM      7  N   UNL     1       1.839   4.726  20.552  0.00  0.00    +0.000 N 
ATOM      8  C   UNL     1       0.964   3.691  20.311  0.00  0.00    +0.000 A 
ATOM      9  N   UNL     1       1.188   2.719  21.168  0.00  0.00    +0.000 NA
ATOM     10  N   UNL     1       2.211   3.146  21.964  0.00  0.00    +0.000 NA
ATOM     11  N   UNL     1       2.610   4.360  21.612  0.00  0.00    +0.000 NA
ENDBRANCH   5   7
BRANCH   1  14
ATOM     12  O   UNL     1      -0.840   9.907  19.003  0.00  0.00    +0.000 OA
ATOM     13  C   UNL     1      -0.252  10.181  20.045  0.00  0.00    +0.000 C 
ATOM     14  N   UNL     1       0.807   9.475  20.601  0.00  0.00    +0.000 N 
ATOM     15  H   UNL     1       1.040   9.653  21.570  0.00  0.00    +0.000 HD
BRANCH  13  16
ATOM     16  C   UNL     1      -0.761  11.340  20.806  0.00  0.00    +0.000 A 
ATOM     17  C   UNL     1      -1.406  12.344  20.080  0.00  0.00    +0.000 A 
ATOM     18  C   UNL     1      -1.800  13.479  20.756  0.00  0.00    +0.000 A 
ATOM     19  N   UNL     1      -1.591  13.670  22.073  0.00  0.00    +0.000 NA
ATOM     20  C   UNL     1      -0.950  12.687  22.746  0.00  0.00    +0.000 A 
ATOM     21  C   UNL     1      -0.520  11.506  22.167  0.00  0.00    +0.000 A 
ENDBRANCH  13  16
ENDBRANCH   1  14
BRANCH   4  22
ATOM     22  O   UNL     1       3.398   5.129  18.167  0.00  0.00    +0.000 OA
BRANCH  22  23
ATOM     23  C   UNL     1       4.285   5.477  17.093  0.00  0.00    +0.000 C 
BRANCH  23  24
ATOM     24  C   UNL     1       5.618   5.903  17.642  0.00  0.00    +0.000 A 
ATOM     25  C   UNL     1       6.324   6.962  17.059  0.00  0.00    +0.000 A 
ATOM     26  C   UNL     1       7.552   7.358  17.587  0.00  0.00    +0.000 A 
ATOM     27  C   UNL     1       8.081   6.702  18.697  0.00  0.00    +0.000 A 
ATOM     28  C   UNL     1       7.383   5.651  19.288  0.00  0.00    +0.000 A 
ATOM     29  C   UNL     1       6.155   5.253  18.762  0.00  0.00    +0.000 A 
ENDBRANCH  23  24
ENDBRANCH  22  23
ENDBRANCH   4  22
TORSDOF 6
ENDMDL
MODEL 9
REMARK VINA RESULT:      -8.4      2.897      3.533
REMARK  Name = 
REMARK  6 active torsions:
REMARK  status: ('A' for Active; 'I' for Inactive)
REMARK    1  A    between atoms: C_2  and  C_23
REMARK    2  A    between atoms: N_3  and  C_4
REMARK    3  A    between atoms: C_7  and  O_8
REMARK    4  A    between atoms: O_8  and  C_9
REMARK    5  A    between atoms: C_9  and  C_10
REMARK    6  A    between atoms: C_16  and  N_17
REMARK                            x       y       z     vdW  Elec       q    Type
REMARK                         _______ _______ _______ _____ _____    ______ ____
ROOT
ATOM      1  C   UNL     1       1.465   8.417  19.955  0.00  0.00    +0.000 A 
ATOM      2  C   UNL     1       2.148   8.546  18.752  0.00  0.00    +0.000 A 
ATOM      3  C   UNL     1       2.750   7.449  18.149  0.00  0.00    +0.000 A 
ATOM      4  C   UNL     1       2.743   6.190  18.757  0.00  0.00    +0.000 A 
ATOM      5  C   UNL     1       2.039   6.031  19.965  0.00  0.00    +0.000 A 
ATOM      6  C   UNL     1       1.421   7.159  20.566  0.00  0.00    +0.000 A 
ENDROOT
BRANCH   5   7
ATOM      7  N   UNL     1       1.905   4.777  20.624  0.00  0.00    +0.000 N 
ATOM      8  C   UNL     1       2.660   4.175  21.605  0.00  0.00    +0.000 A 
ATOM      9  N   UNL     1       2.153   2.994  21.886  0.00  0.00    +0.000 NA
ATOM     10  N   UNL     1       1.069   2.845  21.070  0.00  0.00    +0.000 NA
ATOM     11  N   UNL     1       0.910   3.908  20.295  0.00  0.00    +0.000 NA
ENDBRANCH   5   7
BRANCH   1  14
ATOM     12  O   UNL     1      -0.830   9.912  18.965  0.00  0.00    +0.000 OA
ATOM     13  C   UNL     1      -0.243  10.206  20.002  0.00  0.00    +0.000 C 
ATOM     14  N   UNL     1       0.819   9.514  20.569  0.00  0.00    +0.000 N 
ATOM     15  H   UNL     1       1.052   9.709  21.535  0.00  0.00    +0.000 HD
BRANCH  13  16
ATOM     16  C   UNL     1      -0.756  11.376  20.744  0.00  0.00    +0.000 A 
ATOM     17  C   UNL     1      -0.524  11.408  22.121  0.00  0.00    +0.000 A 
ATOM     18  C   UNL     1      -1.079  12.440  22.847  0.00  0.00    +0.000 A 
ATOM     19  N   UNL     1      -1.835  13.410  22.298  0.00  0.00    +0.000 NA
ATOM     20  C   UNL     1      -2.056  13.344  20.966  0.00  0.00    +0.000 A 
ATOM     21  C   UNL     1      -1.540  12.357  20.144  0.00  0.00    +0.000 A 
ENDBRANCH  13  16
ENDBRANCH   1  14
BRANCH   4  22
ATOM     22  O   UNL     1       3.426   5.137  18.208  0.00  0.00    +0.000 OA
BRANCH  22  23
ATOM     23  C   UNL     1       4.298   5.468  17.117  0.00  0.00    +0.000 C 
BRANCH  23  24
ATOM     24  C   UNL     1       5.636   5.910  17.641  0.00  0.00    +0.000 A 
ATOM     25  C   UNL     1       6.316   6.981  17.050  0.00  0.00    +0.000 A 
ATOM     26  C   UNL     1       7.549   7.391  17.555  0.00  0.00    +0.000 A 
ATOM     27  C   UNL     1       8.109   6.737  18.651  0.00  0.00    +0.000 A 
ATOM     28  C   UNL     1       7.437   5.673  19.250  0.00  0.00    +0.000 A 
ATOM     29  C   UNL     1       6.205   5.261  18.747  0.00  0.00    +0.000 A 
ENDBRANCH  23  24
ENDBRANCH  22  23
ENDBRANCH   4  22
TORSDOF 6
ENDMDL
