MODEL 1
REMARK VINA RESULT:      -8.7      0.000      0.000
REMARK  Name = 
REMARK  11 active torsions:
REMARK  status: ('A' for Active; 'I' for Inactive)
REMARK    1  A    between atoms: C_1  and  C_2
REMARK    2  A    between atoms: C_2  and  C_3
REMARK    3  A    between atoms: C_3  and  N_4
REMARK    4  A    between atoms: C_3  and  C_24
REMARK    5  A    between atoms: N_4  and  C_5
REMARK    6  A    between atoms: C_6  and  N_7
REMARK    7  A    between atoms: N_7  and  C_8
REMARK    8  A    between atoms: C_12  and  C_13
REMARK    9  A    between atoms: N_15  and  C_16
REMARK   10  A    between atoms: N_15  and  C_17
REMARK   11  A    between atoms: C_18  and  O_19
REMARK                            x       y       z     vdW  Elec       q    Type
REMARK                         _______ _______ _______ _____ _____    ______ ____
ROOT
ATOM      1  C   UNL     1       3.466   4.209  18.463  0.00  0.00    +0.000 C 
ATOM      2  C   UNL     1       2.673   4.892  19.360  0.00  0.00    +0.000 C 
ATOM      3  C   UNL     1       1.658   3.818  19.358  0.00  0.00    +0.000 C 
ATOM      4  O   UNL     1       0.604   3.552  19.888  0.00  0.00    +0.000 OA
ATOM      5  C   UNL     1       2.448   3.140  18.295  0.00  0.00    +0.000 C 
ATOM      6  O   UNL     1       2.315   2.117  17.678  0.00  0.00    +0.000 OA
ENDROOT
BRANCH   1   7
ATOM      7  N   UNL     1       4.652   4.280  17.874  0.00  0.00    +0.000 N 
ATOM      8  H   UNL     1       5.457   3.981  18.427  0.00  0.00    +0.000 HD
BRANCH   7   9
ATOM      9  C   UNL     1       5.016   5.493  17.101  0.00  0.00    +0.000 C 
BRANCH   9  10
ATOM     10  C   UNL     1       6.271   6.136  17.633  0.00  0.00    +0.000 A 
ATOM     11  C   UNL     1       7.234   5.723  18.535  0.00  0.00    +0.000 A 
ATOM     12  C   UNL     1       8.138   6.802  18.671  0.00  0.00    +0.000 A 
ATOM     13  C   UNL     1       7.686   7.802  17.837  0.00  0.00    +0.000 A 
ATOM     14 CL   UNL     1       8.401   9.346  17.609  0.00  0.00    +0.000 Cl
ATOM     15  O   UNL     1       6.552   7.398  17.199  0.00  0.00    +0.000 OA
ENDBRANCH   9  10
BRANCH   9  17
ATOM     16  C   UNL     1       6.077   3.855  15.435  0.00  0.00    +0.000 C 
ATOM     17  C   UNL     1       5.242   5.114  15.622  0.00  0.00    +0.000 C 
ENDBRANCH   9  17
ENDBRANCH   7   9
ENDBRANCH   1   7
BRANCH   2  18
ATOM     18  N   UNL     1       2.642   6.017  20.060  0.00  0.00    +0.000 N 
ATOM     19  H   UNL     1       2.182   5.998  20.981  0.00  0.00    +0.000 HD
BRANCH  18  20
ATOM     20  C   UNL     1       2.310   7.297  19.506  0.00  0.00    +0.000 A 
ATOM     21  C   UNL     1       2.557   7.615  18.167  0.00  0.00    +0.000 A 
ATOM     22  C   UNL     1       2.113   8.820  17.633  0.00  0.00    +0.000 A 
ATOM     23  C   UNL     1       1.369   9.696  18.422  0.00  0.00    +0.000 A 
ATOM     24  C   UNL     1       1.132   9.434  19.784  0.00  0.00    +0.000 A 
ATOM     25  C   UNL     1       1.708   8.279  20.331  0.00  0.00    +0.000 A 
BRANCH  24  26
ATOM     26  C   UNL     1       0.335  10.475  20.506  0.00  0.00    +0.000 C 
ATOM     27  O   UNL     1       0.850  10.914  21.539  0.00  0.00    +0.000 OA
ATOM     28  N   UNL     1      -0.889  10.977  20.047  0.00  0.00    +0.000 N 
ATOM     29  C   UNL     1      -1.642  10.545  18.877  0.00  0.00    +0.000 C 
ATOM     30  C   UNL     1      -1.543  12.010  20.845  0.00  0.00    +0.000 C 
ENDBRANCH  24  26
BRANCH  25  31
ATOM     31  O   UNL     1       1.774   8.058  21.684  0.00  0.00    +0.000 OA
ATOM     32  H   UNL     1       0.872   7.805  21.961  0.00  0.00    +0.000 HD
ENDBRANCH  25  31
ENDBRANCH  18  20
ENDBRANCH   2  18
TORSDOF 8
ENDMDL
MODEL 2
REMARK VINA RESULT:      -8.5      0.850      1.020
REMARK  Name = 
REMARK  11 active torsions:
REMARK  status: ('A' for Active; 'I' for Inactive)
REMARK    1  A    between atoms: C_1  and  C_2
REMARK    2  A    between atoms: C_2  and  C_3
REMARK    3  A    between atoms: C_3  and  N_4
REMARK    4  A    between atoms: C_3  and  C_24
REMARK    5  A    between atoms: N_4  and  C_5
REMARK    6  A    between atoms: C_6  and  N_7
REMARK    7  A    between atoms: N_7  and  C_8
REMARK    8  A    between atoms: C_12  and  C_13
REMARK    9  A    between atoms: N_15  and  C_16
REMARK   10  A    between atoms: N_15  and  C_17
REMARK   11  A    between atoms: C_18  and  O_19
REMARK                            x       y       z     vdW  Elec       q    Type
REMARK                         _______ _______ _______ _____ _____    ______ ____
ROOT
ATOM      1  C   UNL     1       3.716   3.859  18.423  0.00  0.00    +0.000 C 
ATOM      2  C   UNL     1       3.028   4.740  19.231  0.00  0.00    +0.000 C 
ATOM      3  C   UNL     1       1.848   3.851  19.281  0.00  0.00    +0.000 C 
ATOM      4  O   UNL     1       0.754   3.810  19.793  0.00  0.00    +0.000 OA
ATOM      5  C   UNL     1       2.537   2.962  18.307  0.00  0.00    +0.000 C 
ATOM      6  O   UNL     1       2.249   1.924  17.773  0.00  0.00    +0.000 OA
ENDROOT
BRANCH   1   7
ATOM      7  N   UNL     1       4.909   3.683  17.873  0.00  0.00    +0.000 N 
ATOM      8  H   UNL     1       5.662   3.386  18.497  0.00  0.00    +0.000 HD
BRANCH   7   9
ATOM      9  C   UNL     1       5.435   4.690  16.921  0.00  0.00    +0.000 C 
BRANCH   9  10
ATOM     10  C   UNL     1       6.484   5.565  17.558  0.00  0.00    +0.000 A 
ATOM     11  C   UNL     1       7.378   5.365  18.594  0.00  0.00    +0.000 A 
ATOM     12  C   UNL     1       8.062   6.591  18.770  0.00  0.00    +0.000 A 
ATOM     13  C   UNL     1       7.559   7.460  17.827  0.00  0.00    +0.000 A 
ATOM     14 CL   UNL     1       8.027   9.096  17.589  0.00  0.00    +0.000 Cl
ATOM     15  O   UNL     1       6.601   6.838  17.083  0.00  0.00    +0.000 OA
ENDBRANCH   9  10
BRANCH   9  17
ATOM     16  C   UNL     1       5.487   4.428  14.368  0.00  0.00    +0.000 C 
ATOM     17  C   UNL     1       6.060   3.975  15.704  0.00  0.00    +0.000 C 
ENDBRANCH   9  17
ENDBRANCH   7   9
ENDBRANCH   1   7
BRANCH   2  18
ATOM     18  N   UNL     1       3.170   5.912  19.832  0.00  0.00    +0.000 N 
ATOM     19  H   UNL     1       2.980   5.960  20.844  0.00  0.00    +0.000 HD
BRANCH  18  20
ATOM     20  C   UNL     1       2.677   7.150  19.303  0.00  0.00    +0.000 A 
ATOM     21  C   UNL     1       2.965   7.569  18.001  0.00  0.00    +0.000 A 
ATOM     22  C   UNL     1       2.373   8.715  17.480  0.00  0.00    +0.000 A 
ATOM     23  C   UNL     1       1.444   9.424  18.242  0.00  0.00    +0.000 A 
ATOM     24  C   UNL     1       1.157   9.060  19.570  0.00  0.00    +0.000 A 
ATOM     25  C   UNL     1       1.870   7.984  20.116  0.00  0.00    +0.000 A 
BRANCH  24  26
ATOM     26  C   UNL     1       0.155   9.927  20.268  0.00  0.00    +0.000 C 
ATOM     27  O   UNL     1      -0.829   9.337  20.724  0.00  0.00    +0.000 OA
ATOM     28  N   UNL     1       0.314  11.306  20.454  0.00  0.00    +0.000 N 
ATOM     29  C   UNL     1       1.389  12.151  19.953  0.00  0.00    +0.000 C 
ATOM     30  C   UNL     1      -0.736  12.019  21.176  0.00  0.00    +0.000 C 
ENDBRANCH  24  26
BRANCH  25  31
ATOM     31  O   UNL     1       1.874   7.709  21.460  0.00  0.00    +0.000 OA
ATOM     32  H   UNL     1       1.130   8.212  21.843  0.00  0.00    +0.000 HD
ENDBRANCH  25  31
ENDBRANCH  18  20
ENDBRANCH   2  18
TORSDOF 8
ENDMDL
MODEL 3
REMARK VINA RESULT:      -8.5      1.955      2.558
REMARK  Name = 
REMARK  11 active torsions:
REMARK  status: ('A' for Active; 'I' for Inactive)
REMARK    1  A    between atoms: C_1  and  C_2
REMARK    2  A    between atoms: C_2  and  C_3
REMARK    3  A    between atoms: C_3  and  N_4
REMARK    4  A    between atoms: C_3  and  C_24
REMARK    5  A    between atoms: N_4  and  C_5
REMARK    6  A    between atoms: C_6  and  N_7
REMARK    7  A    between atoms: N_7  and  C_8
REMARK    8  A    between atoms: C_12  and  C_13
REMARK    9  A    between atoms: N_15  and  C_16
REMARK   10  A    between atoms: N_15  and  C_17
REMARK   11  A    between atoms: C_18  and  O_19
REMARK                            x       y       z     vdW  Elec       q    Type
REMARK                         _______ _______ _______ _____ _____    ______ ____
ROOT
ATOM      1  C   UNL     1       2.872   4.442  18.338  0.00  0.00    +0.000 C 
ATOM      2  C   UNL     1       2.420   5.023  19.504  0.00  0.00    +0.000 C 
ATOM      3  C   UNL     1       1.718   3.786  19.907  0.00  0.00    +0.000 C 
ATOM      4  O   UNL     1       1.058   3.367  20.829  0.00  0.00    +0.000 OA
ATOM      5  C   UNL     1       2.096   3.201  18.592  0.00  0.00    +0.000 C 
ATOM      6  O   UNL     1       1.908   2.137  18.065  0.00  0.00    +0.000 OA
ENDROOT
BRANCH   1   7
ATOM      7  N   UNL     1       3.661   4.691  17.302  0.00  0.00    +0.000 N 
ATOM      8  H   UNL     1       3.389   4.276  16.409  0.00  0.00    +0.000 HD
BRANCH   7   9
ATOM      9  C   UNL     1       5.132   4.590  17.457  0.00  0.00    +0.000 C 
BRANCH   9  10
ATOM     10  C   UNL     1       5.832   4.551  16.122  0.00  0.00    +0.000 A 
ATOM     11  C   UNL     1       7.026   5.079  15.667  0.00  0.00    +0.000 A 
ATOM     12  C   UNL     1       7.105   4.754  14.292  0.00  0.00    +0.000 A 
ATOM     13  C   UNL     1       5.967   4.036  13.993  0.00  0.00    +0.000 A 
ATOM     14 CL   UNL     1       5.538   3.390  12.461  0.00  0.00    +0.000 Cl
ATOM     15  O   UNL     1       5.192   3.905  15.106  0.00  0.00    +0.000 OA
ENDBRANCH   9  10
BRANCH   9  17
ATOM     16  C   UNL     1       6.653   5.438  19.342  0.00  0.00    +0.000 C 
ATOM     17  C   UNL     1       5.652   5.804  18.255  0.00  0.00    +0.000 C 
ENDBRANCH   9  17
ENDBRANCH   7   9
ENDBRANCH   1   7
BRANCH   2  18
ATOM     18  N   UNL     1       2.479   6.162  20.178  0.00  0.00    +0.000 N 
ATOM     19  H   UNL     1       2.069   6.184  21.122  0.00  0.00    +0.000 HD
BRANCH  18  20
ATOM     20  C   UNL     1       2.179   7.445  19.613  0.00  0.00    +0.000 A 
ATOM     21  C   UNL     1       2.452   7.751  18.276  0.00  0.00    +0.000 A 
ATOM     22  C   UNL     1       2.038   8.961  17.729  0.00  0.00    +0.000 A 
ATOM     23  C   UNL     1       1.298   9.855  18.503  0.00  0.00    +0.000 A 
ATOM     24  C   UNL     1       1.037   9.605  19.862  0.00  0.00    +0.000 A 
ATOM     25  C   UNL     1       1.583   8.443  20.424  0.00  0.00    +0.000 A 
BRANCH  24  26
ATOM     26  C   UNL     1       0.249  10.664  20.568  0.00  0.00    +0.000 C 
ATOM     27  O   UNL     1       0.768  11.117  21.592  0.00  0.00    +0.000 OA
ATOM     28  N   UNL     1      -0.972  11.167  20.101  0.00  0.00    +0.000 N 
ATOM     29  C   UNL     1      -1.730  10.721  18.940  0.00  0.00    +0.000 C 
ATOM     30  C   UNL     1      -1.617  12.219  20.882  0.00  0.00    +0.000 C 
ENDBRANCH  24  26
BRANCH  25  31
ATOM     31  O   UNL     1       1.625   8.228  21.778  0.00  0.00    +0.000 OA
ATOM     32  H   UNL     1       1.389   9.078  22.195  0.00  0.00    +0.000 HD
ENDBRANCH  25  31
ENDBRANCH  18  20
ENDBRANCH   2  18
TORSDOF 8
ENDMDL
MODEL 4
REMARK VINA RESULT:      -8.5      1.863      2.574
REMARK  Name = 
REMARK  11 active torsions:
REMARK  status: ('A' for Active; 'I' for Inactive)
REMARK    1  A    between atoms: C_1  and  C_2
REMARK    2  A    between atoms: C_2  and  C_3
REMARK    3  A    between atoms: C_3  and  N_4
REMARK    4  A    between atoms: C_3  and  C_24
REMARK    5  A    between atoms: N_4  and  C_5
REMARK    6  A    between atoms: C_6  and  N_7
REMARK    7  A    between atoms: N_7  and  C_8
REMARK    8  A    between atoms: C_12  and  C_13
REMARK    9  A    between atoms: N_15  and  C_16
REMARK   10  A    between atoms: N_15  and  C_17
REMARK   11  A    between atoms: C_18  and  O_19
REMARK                            x       y       z     vdW  Elec       q    Type
REMARK                         _______ _______ _______ _____ _____    ______ ____
ROOT
ATOM      1  C   UNL     1       4.282   4.821  19.743  0.00  0.00    +0.000 C 
ATOM      2  C   UNL     1       2.998   5.000  20.211  0.00  0.00    +0.000 C 
ATOM      3  C   UNL     1       2.800   3.544  20.375  0.00  0.00    +0.000 C 
ATOM      4  O   UNL     1       1.955   2.773  20.763  0.00  0.00    +0.000 OA
ATOM      5  C   UNL     1       4.136   3.343  19.750  0.00  0.00    +0.000 C 
ATOM      6  O   UNL     1       4.798   2.375  19.485  0.00  0.00    +0.000 OA
ENDROOT
BRANCH   1   7
ATOM      7  N   UNL     1       5.354   5.515  19.386  0.00  0.00    +0.000 N 
ATOM      8  H   UNL     1       5.199   6.485  19.106  0.00  0.00    +0.000 HD
BRANCH   7   9
ATOM      9  C   UNL     1       6.358   4.902  18.482  0.00  0.00    +0.000 C 
BRANCH   9  10
ATOM     10  C   UNL     1       6.010   5.123  17.032  0.00  0.00    +0.000 A 
ATOM     11  C   UNL     1       5.268   6.088  16.376  0.00  0.00    +0.000 A 
ATOM     12  C   UNL     1       5.254   5.716  15.011  0.00  0.00    +0.000 A 
ATOM     13  C   UNL     1       5.998   4.560  14.911  0.00  0.00    +0.000 A 
ATOM     14 CL   UNL     1       6.310   3.665  13.479  0.00  0.00    +0.000 Cl
ATOM     15  O   UNL     1       6.465   4.199  16.139  0.00  0.00    +0.000 OA
ENDBRANCH   9  10
BRANCH   9  17
ATOM     16  C   UNL     1       7.867   6.971  18.321  0.00  0.00    +0.000 C 
ATOM     17  C   UNL     1       7.746   5.518  18.759  0.00  0.00    +0.000 C 
ENDBRANCH   9  17
ENDBRANCH   7   9
ENDBRANCH   1   7
BRANCH   2  18
ATOM     18  N   UNL     1       2.127   5.959  20.490  0.00  0.00    +0.000 N 
ATOM     19  H   UNL     1       1.149   5.686  20.662  0.00  0.00    +0.000 HD
BRANCH  18  20
ATOM     20  C   UNL     1       2.045   7.200  19.778  0.00  0.00    +0.000 A 
ATOM     21  C   UNL     1       2.416   7.313  18.435  0.00  0.00    +0.000 A 
ATOM     22  C   UNL     1       2.211   8.501  17.741  0.00  0.00    +0.000 A 
ATOM     23  C   UNL     1       1.582   9.574  18.374  0.00  0.00    +0.000 A 
ATOM     24  C   UNL     1       1.230   9.517  19.734  0.00  0.00    +0.000 A 
ATOM     25  C   UNL     1       1.573   8.358  20.445  0.00  0.00    +0.000 A 
BRANCH  24  26
ATOM     26  C   UNL     1       0.581  10.751  20.279  0.00  0.00    +0.000 C 
ATOM     27  O   UNL     1       1.221  11.344  21.153  0.00  0.00    +0.000 OA
ATOM     28  N   UNL     1      -0.641  11.256  19.818  0.00  0.00    +0.000 N 
ATOM     29  C   UNL     1      -1.529  10.664  18.827  0.00  0.00    +0.000 C 
ATOM     30  C   UNL     1      -1.141  12.485  20.428  0.00  0.00    +0.000 C 
ENDBRANCH  24  26
BRANCH  25  31
ATOM     31  O   UNL     1       1.526   8.292  21.815  0.00  0.00    +0.000 OA
ATOM     32  H   UNL     1       1.902   7.424  22.057  0.00  0.00    +0.000 HD
ENDBRANCH  25  31
ENDBRANCH  18  20
ENDBRANCH   2  18
TORSDOF 8
ENDMDL
MODEL 5
REMARK VINA RESULT:      -8.4      2.127      2.754
REMARK  Name = 
REMARK  11 active torsions:
REMARK  status: ('A' for Active; 'I' for Inactive)
REMARK    1  A    between atoms: C_1  and  C_2
REMARK    2  A    between atoms: C_2  and  C_3
REMARK    3  A    between atoms: C_3  and  N_4
REMARK    4  A    between atoms: C_3  and  C_24
REMARK    5  A    between atoms: N_4  and  C_5
REMARK    6  A    between atoms: C_6  and  N_7
REMARK    7  A    between atoms: N_7  and  C_8
REMARK    8  A    between atoms: C_12  and  C_13
REMARK    9  A    between atoms: N_15  and  C_16
REMARK   10  A    between atoms: N_15  and  C_17
REMARK   11  A    between atoms: C_18  and  O_19
REMARK                            x       y       z     vdW  Elec       q    Type
REMARK                         _______ _______ _______ _____ _____    ______ ____
ROOT
ATOM      1  C   UNL     1       2.783   4.577  18.201  0.00  0.00    +0.000 C 
ATOM      2  C   UNL     1       2.374   5.186  19.369  0.00  0.00    +0.000 C 
ATOM      3  C   UNL     1       1.551   4.017  19.748  0.00  0.00    +0.000 C 
ATOM      4  O   UNL     1       0.841   3.654  20.656  0.00  0.00    +0.000 OA
ATOM      5  C   UNL     1       1.889   3.413  18.431  0.00  0.00    +0.000 C 
ATOM      6  O   UNL     1       1.607   2.378  17.889  0.00  0.00    +0.000 OA
ENDROOT
BRANCH   1   7
ATOM      7  N   UNL     1       3.606   4.761  17.178  0.00  0.00    +0.000 N 
ATOM      8  H   UNL     1       3.344   4.319  16.295  0.00  0.00    +0.000 HD
BRANCH   7   9
ATOM      9  C   UNL     1       5.069   4.619  17.377  0.00  0.00    +0.000 C 
BRANCH   9  10
ATOM     10  C   UNL     1       5.808   4.574  16.064  0.00  0.00    +0.000 A 
ATOM     11  C   UNL     1       7.012   5.105  15.640  0.00  0.00    +0.000 A 
ATOM     12  C   UNL     1       7.133   4.769  14.271  0.00  0.00    +0.000 A 
ATOM     13  C   UNL     1       6.009   4.043  13.943  0.00  0.00    +0.000 A 
ATOM     14 CL   UNL     1       5.628   3.383  12.404  0.00  0.00    +0.000 Cl
ATOM     15  O   UNL     1       5.202   3.917  15.034  0.00  0.00    +0.000 OA
ENDBRANCH   9  10
BRANCH   9  17
ATOM     16  C   UNL     1       6.554   5.410  19.315  0.00  0.00    +0.000 C 
ATOM     17  C   UNL     1       5.596   5.812  18.202  0.00  0.00    +0.000 C 
ENDBRANCH   9  17
ENDBRANCH   7   9
ENDBRANCH   1   7
BRANCH   2  18
ATOM     18  N   UNL     1       2.532   6.307  20.057  0.00  0.00    +0.000 N 
ATOM     19  H   UNL     1       2.286   6.297  21.057  0.00  0.00    +0.000 HD
BRANCH  18  20
ATOM     20  C   UNL     1       2.126   7.599  19.589  0.00  0.00    +0.000 A 
ATOM     21  C   UNL     1       2.258   7.981  18.250  0.00  0.00    +0.000 A 
ATOM     22  C   UNL     1       1.744   9.195  17.807  0.00  0.00    +0.000 A 
ATOM     23  C   UNL     1       1.045  10.017  18.691  0.00  0.00    +0.000 A 
ATOM     24  C   UNL     1       0.925   9.691  20.054  0.00  0.00    +0.000 A 
ATOM     25  C   UNL     1       1.570   8.530  20.502  0.00  0.00    +0.000 A 
BRANCH  24  26
ATOM     26  C   UNL     1       0.164  10.678  20.883  0.00  0.00    +0.000 C 
ATOM     27  O   UNL     1      -0.818  10.225  21.478  0.00  0.00    +0.000 OA
ATOM     28  N   UNL     1       0.540  12.019  21.038  0.00  0.00    +0.000 N 
ATOM     29  C   UNL     1       1.641  12.713  20.383  0.00  0.00    +0.000 C 
ATOM     30  C   UNL     1      -0.285  12.861  21.899  0.00  0.00    +0.000 C 
ENDBRANCH  24  26
BRANCH  25  31
ATOM     31  O   UNL     1       1.749   8.253  21.834  0.00  0.00    +0.000 OA
ATOM     32  H   UNL     1       1.009   7.671  22.092  0.00  0.00    +0.000 HD
ENDBRANCH  25  31
ENDBRANCH  18  20
ENDBRANCH   2  18
TORSDOF 8
ENDMDL
MODEL 6
REMARK VINA RESULT:      -8.4      1.913      2.656
REMARK  Name = 
REMARK  11 active torsions:
REMARK  status: ('A' for Active; 'I' for Inactive)
REMARK    1  A    between atoms: C_1  and  C_2
REMARK    2  A    between atoms: C_2  and  C_3
REMARK    3  A    between atoms: C_3  and  N_4
REMARK    4  A    between atoms: C_3  and  C_24
REMARK    5  A    between atoms: N_4  and  C_5
REMARK    6  A    between atoms: C_6  and  N_7
REMARK    7  A    between atoms: N_7  and  C_8
REMARK    8  A    between atoms: C_12  and  C_13
REMARK    9  A    between atoms: N_15  and  C_16
REMARK   10  A    between atoms: N_15  and  C_17
REMARK   11  A    between atoms: C_18  and  O_19
REMARK                            x       y       z     vdW  Elec       q    Type
REMARK                         _______ _______ _______ _____ _____    ______ ____
ROOT
ATOM      1  C   UNL     1       4.316   3.846  18.874  0.00  0.00    +0.000 C 
ATOM      2  C   UNL     1       3.318   4.716  19.258  0.00  0.00    +0.000 C 
ATOM      3  C   UNL     1       2.281   3.901  18.591  0.00  0.00    +0.000 C 
ATOM      4  O   UNL     1       1.083   3.896  18.430  0.00  0.00    +0.000 OA
ATOM      5  C   UNL     1       3.370   3.032  18.067  0.00  0.00    +0.000 C 
ATOM      6  O   UNL     1       3.396   2.049  17.376  0.00  0.00    +0.000 OA
ENDROOT
BRANCH   1   7
ATOM      7  N   UNL     1       5.614   3.630  19.037  0.00  0.00    +0.000 N 
ATOM      8  H   UNL     1       5.930   3.443  19.990  0.00  0.00    +0.000 HD
BRANCH   7   9
ATOM      9  C   UNL     1       6.596   4.514  18.363  0.00  0.00    +0.000 C 
BRANCH   9  10
ATOM     10  C   UNL     1       6.176   4.840  16.953  0.00  0.00    +0.000 A 
ATOM     11  C   UNL     1       5.568   5.943  16.380  0.00  0.00    +0.000 A 
ATOM     12  C   UNL     1       5.375   5.624  15.016  0.00  0.00    +0.000 A 
ATOM     13  C   UNL     1       5.886   4.358  14.831  0.00  0.00    +0.000 A 
ATOM     14 CL   UNL     1       5.912   3.468  13.363  0.00  0.00    +0.000 Cl
ATOM     15  O   UNL     1       6.380   3.879  16.008  0.00  0.00    +0.000 OA
ENDBRANCH   9  10
BRANCH   9  17
ATOM     16  C   UNL     1       8.101   6.488  19.014  0.00  0.00    +0.000 C 
ATOM     17  C   UNL     1       6.735   5.830  19.156  0.00  0.00    +0.000 C 
ENDBRANCH   9  17
ENDBRANCH   7   9
ENDBRANCH   1   7
BRANCH   2  18
ATOM     18  N   UNL     1       3.135   5.837  19.940  0.00  0.00    +0.000 N 
ATOM     19  H   UNL     1       2.659   5.774  20.851  0.00  0.00    +0.000 HD
BRANCH  18  20
ATOM     20  C   UNL     1       2.663   7.060  19.360  0.00  0.00    +0.000 A 
ATOM     21  C   UNL     1       2.944   7.413  18.037  0.00  0.00    +0.000 A 
ATOM     22  C   UNL     1       2.370   8.547  17.469  0.00  0.00    +0.000 A 
ATOM     23  C   UNL     1       1.467   9.310  18.208  0.00  0.00    +0.000 A 
ATOM     24  C   UNL     1       1.187   9.015  19.555  0.00  0.00    +0.000 A 
ATOM     25  C   UNL     1       1.883   7.949  20.142  0.00  0.00    +0.000 A 
BRANCH  24  26
ATOM     26  C   UNL     1       0.213   9.934  20.223  0.00  0.00    +0.000 C 
ATOM     27  O   UNL     1      -0.719   9.379  20.813  0.00  0.00    +0.000 OA
ATOM     28  N   UNL     1       0.345  11.328  20.242  0.00  0.00    +0.000 N 
ATOM     29  C   UNL     1       1.357  12.133  19.571  0.00  0.00    +0.000 C 
ATOM     30  C   UNL     1      -0.672  12.097  20.954  0.00  0.00    +0.000 C 
ENDBRANCH  24  26
BRANCH  25  31
ATOM     31  O   UNL     1       1.898   7.735  21.497  0.00  0.00    +0.000 OA
ATOM     32  H   UNL     1       1.911   8.620  21.911  0.00  0.00    +0.000 HD
ENDBRANCH  25  31
ENDBRANCH  18  20
ENDBRANCH   2  18
TORSDOF 8
ENDMDL
MODEL 7
REMARK VINA RESULT:      -8.4      1.115      1.270
REMARK  Name = 
REMARK  11 active torsions:
REMARK  status: ('A' for Active; 'I' for Inactive)
REMARK    1  A    between atoms: C_1  and  C_2
REMARK    2  A    between atoms: C_2  and  C_3
REMARK    3  A    between atoms: C_3  and  N_4
REMARK    4  A    between atoms: C_3  and  C_24
REMARK    5  A    between atoms: N_4  and  C_5
REMARK    6  A    between atoms: C_6  and  N_7
REMARK    7  A    between atoms: N_7  and  C_8
REMARK    8  A    between atoms: C_12  and  C_13
REMARK    9  A    between atoms: N_15  and  C_16
REMARK   10  A    between atoms: N_15  and  C_17
REMARK   11  A    between atoms: C_18  and  O_19
REMARK                            x       y       z     vdW  Elec       q    Type
REMARK                         _______ _______ _______ _____ _____    ______ ____
ROOT
ATOM      1  C   UNL     1       3.238   4.511  17.735  0.00  0.00    +0.000 C 
ATOM      2  C   UNL     1       2.893   5.419  18.714  0.00  0.00    +0.000 C 
ATOM      3  C   UNL     1       1.841   4.524  19.244  0.00  0.00    +0.000 C 
ATOM      4  O   UNL     1       1.028   4.496  20.137  0.00  0.00    +0.000 OA
ATOM      5  C   UNL     1       2.124   3.602  18.111  0.00  0.00    +0.000 C 
ATOM      6  O   UNL     1       1.677   2.541  17.764  0.00  0.00    +0.000 OA
ENDROOT
BRANCH   1   7
ATOM      7  N   UNL     1       4.133   4.322  16.775  0.00  0.00    +0.000 N 
ATOM      8  H   UNL     1       4.792   3.553  16.910  0.00  0.00    +0.000 HD
BRANCH   7   9
ATOM      9  C   UNL     1       4.852   5.485  16.201  0.00  0.00    +0.000 C 
BRANCH   9  10
ATOM     10  C   UNL     1       6.001   5.916  17.075  0.00  0.00    +0.000 A 
ATOM     11  C   UNL     1       6.714   5.284  18.078  0.00  0.00    +0.000 A 
ATOM     12  C   UNL     1       7.639   6.235  18.567  0.00  0.00    +0.000 A 
ATOM     13  C   UNL     1       7.450   7.383  17.828  0.00  0.00    +0.000 A 
ATOM     14 CL   UNL     1       8.304   8.863  18.000  0.00  0.00    +0.000 Cl
ATOM     15  O   UNL     1       6.458   7.191  16.914  0.00  0.00    +0.000 OA
ENDBRANCH   9  10
BRANCH   9  17
ATOM     16  C   UNL     1       6.590   4.167  14.850  0.00  0.00    +0.000 C 
ATOM     17  C   UNL     1       5.400   5.115  14.807  0.00  0.00    +0.000 C 
ENDBRANCH   9  17
ENDBRANCH   7   9
ENDBRANCH   1   7
BRANCH   2  18
ATOM     18  N   UNL     1       3.228   6.614  19.175  0.00  0.00    +0.000 N 
ATOM     19  H   UNL     1       3.688   6.664  20.095  0.00  0.00    +0.000 HD
BRANCH  18  20
ATOM     20  C   UNL     1       2.371   7.762  19.127  0.00  0.00    +0.000 A 
ATOM     21  C   UNL     1       2.154   8.481  17.948  0.00  0.00    +0.000 A 
ATOM     22  C   UNL     1       1.223   9.514  17.909  0.00  0.00    +0.000 A 
ATOM     23  C   UNL     1       0.461   9.803  19.042  0.00  0.00    +0.000 A 
ATOM     24  C   UNL     1       0.676   9.133  20.260  0.00  0.00    +0.000 A 
ATOM     25  C   UNL     1       1.714   8.192  20.307  0.00  0.00    +0.000 A 
BRANCH  24  26
ATOM     26  C   UNL     1      -0.204   9.565  21.391  0.00  0.00    +0.000 C 
ATOM     27  O   UNL     1      -0.807   8.656  21.969  0.00  0.00    +0.000 OA
ATOM     28  N   UNL     1      -0.321  10.892  21.824  0.00  0.00    +0.000 N 
ATOM     29  C   UNL     1       0.290  12.075  21.233  0.00  0.00    +0.000 C 
ATOM     30  C   UNL     1      -1.200  11.162  22.958  0.00  0.00    +0.000 C 
ENDBRANCH  24  26
BRANCH  25  31
ATOM     31  O   UNL     1       2.188   7.677  21.487  0.00  0.00    +0.000 OA
ATOM     32  H   UNL     1       3.133   7.481  21.337  0.00  0.00    +0.000 HD
ENDBRANCH  25  31
ENDBRANCH  18  20
ENDBRANCH   2  18
TORSDOF 8
ENDMDL
MODEL 8
REMARK VINA RESULT:      -8.3      1.405      1.517
REMARK  Name = 
REMARK  11 active torsions:
REMARK  status: ('A' for Active; 'I' for Inactive)
REMARK    1  A    between atoms: C_1  and  C_2
REMARK    2  A    between atoms: C_2  and  C_3
REMARK    3  A    between atoms: C_3  and  N_4
REMARK    4  A    between atoms: C_3  and  C_24
REMARK    5  A    between atoms: N_4  and  C_5
REMARK    6  A    between atoms: C_6  and  N_7
REMARK    7  A    between atoms: N_7  and  C_8
REMARK    8  A    between atoms: C_12  and  C_13
REMARK    9  A    between atoms: N_15  and  C_16
REMARK   10  A    between atoms: N_15  and  C_17
REMARK   11  A    between atoms: C_18  and  O_19
REMARK                            x       y       z     vdW  Elec       q    Type
REMARK                         _______ _______ _______ _____ _____    ______ ____
ROOT
ATOM      1  C   UNL     1       4.230   3.515  18.732  0.00  0.00    +0.000 C 
ATOM      2  C   UNL     1       3.018   3.976  19.199  0.00  0.00    +0.000 C 
ATOM      3  C   UNL     1       3.135   3.179  20.438  0.00  0.00    +0.000 C 
ATOM      4  O   UNL     1       2.522   2.983  21.462  0.00  0.00    +0.000 OA
ATOM      5  C   UNL     1       4.378   2.583  19.880  0.00  0.00    +0.000 C 
ATOM      6  O   UNL     1       5.171   1.773  20.281  0.00  0.00    +0.000 OA
ENDROOT
BRANCH   1   7
ATOM      7  N   UNL     1       5.083   3.689  17.731  0.00  0.00    +0.000 N 
ATOM      8  H   UNL     1       6.010   3.275  17.843  0.00  0.00    +0.000 HD
BRANCH   7   9
ATOM      9  C   UNL     1       5.219   5.027  17.106  0.00  0.00    +0.000 C 
BRANCH   9  10
ATOM     10  C   UNL     1       6.395   5.785  17.666  0.00  0.00    +0.000 A 
ATOM     11  C   UNL     1       7.396   5.451  18.560  0.00  0.00    +0.000 A 
ATOM     12  C   UNL     1       8.178   6.616  18.734  0.00  0.00    +0.000 A 
ATOM     13  C   UNL     1       7.622   7.587  17.930  0.00  0.00    +0.000 A 
ATOM     14 CL   UNL     1       8.165   9.206  17.753  0.00  0.00    +0.000 Cl
ATOM     15  O   UNL     1       6.539   7.083  17.272  0.00  0.00    +0.000 OA
ENDBRANCH   9  10
BRANCH   9  17
ATOM     16  C   UNL     1       6.327   3.715  15.199  0.00  0.00    +0.000 C 
ATOM     17  C   UNL     1       5.410   4.869  15.583  0.00  0.00    +0.000 C 
ENDBRANCH   9  17
ENDBRANCH   7   9
ENDBRANCH   1   7
BRANCH   2  18
ATOM     18  N   UNL     1       2.026   4.789  18.863  0.00  0.00    +0.000 N 
ATOM     19  H   UNL     1       1.500   4.577  18.004  0.00  0.00    +0.000 HD
BRANCH  18  20
ATOM     20  C   UNL     1       2.114   6.219  18.901  0.00  0.00    +0.000 A 
ATOM     21  C   UNL     1       2.545   6.967  17.801  0.00  0.00    +0.000 A 
ATOM     22  C   UNL     1       2.503   8.357  17.831  0.00  0.00    +0.000 A 
ATOM     23  C   UNL     1       1.979   9.011  18.946  0.00  0.00    +0.000 A 
ATOM     24  C   UNL     1       1.572   8.300  20.089  0.00  0.00    +0.000 A 
ATOM     25  C   UNL     1       1.753   6.910  20.085  0.00  0.00    +0.000 A 
BRANCH  24  26
ATOM     26  C   UNL     1       1.049   9.139  21.212  0.00  0.00    +0.000 C 
ATOM     27  O   UNL     1       1.630   8.999  22.293  0.00  0.00    +0.000 OA
ATOM     28  N   UNL     1       0.009  10.067  21.073  0.00  0.00    +0.000 N 
ATOM     29  C   UNL     1      -0.796  10.325  19.886  0.00  0.00    +0.000 C 
ATOM     30  C   UNL     1      -0.380  10.834  22.253  0.00  0.00    +0.000 C 
ENDBRANCH  24  26
BRANCH  25  31
ATOM     31  O   UNL     1       1.648   6.150  21.222  0.00  0.00    +0.000 OA
ATOM     32  H   UNL     1       0.795   6.390  21.631  0.00  0.00    +0.000 HD
ENDBRANCH  25  31
ENDBRANCH  18  20
ENDBRANCH   2  18
TORSDOF 8
ENDMDL
MODEL 9
REMARK VINA RESULT:      -8.3      1.270      1.384
REMARK  Name = 
REMARK  11 active torsions:
REMARK  status: ('A' for Active; 'I' for Inactive)
REMARK    1  A    between atoms: C_1  and  C_2
REMARK    2  A    between atoms: C_2  and  C_3
REMARK    3  A    between atoms: C_3  and  N_4
REMARK    4  A    between atoms: C_3  and  C_24
REMARK    5  A    between atoms: N_4  and  C_5
REMARK    6  A    between atoms: C_6  and  N_7
REMARK    7  A    between atoms: N_7  and  C_8
REMARK    8  A    between atoms: C_12  and  C_13
REMARK    9  A    between atoms: N_15  and  C_16
REMARK   10  A    between atoms: N_15  and  C_17
REMARK   11  A    between atoms: C_18  and  O_19
REMARK                            x       y       z     vdW  Elec       q    Type
REMARK                         _______ _______ _______ _____ _____    ______ ____
ROOT
ATOM      1  C   UNL     1       3.340   3.721  18.623  0.00  0.00    +0.000 C 
ATOM      2  C   UNL     1       2.759   4.662  19.446  0.00  0.00    +0.000 C 
ATOM      3  C   UNL     1       1.554   3.826  19.635  0.00  0.00    +0.000 C 
ATOM      4  O   UNL     1       0.508   3.851  20.238  0.00  0.00    +0.000 OA
ATOM      5  C   UNL     1       2.123   2.869  18.647  0.00  0.00    +0.000 C 
ATOM      6  O   UNL     1       1.751   1.823  18.185  0.00  0.00    +0.000 OA
ENDROOT
BRANCH   1   7
ATOM      7  N   UNL     1       4.474   3.473  17.982  0.00  0.00    +0.000 N 
ATOM      8  H   UNL     1       5.232   3.064  18.533  0.00  0.00    +0.000 HD
BRANCH   7   9
ATOM      9  C   UNL     1       5.037   4.491  17.062  0.00  0.00    +0.000 C 
BRANCH   9  10
ATOM     10  C   UNL     1       6.135   5.288  17.719  0.00  0.00    +0.000 A 
ATOM     11  C   UNL     1       6.736   6.496  17.415  0.00  0.00    +0.000 A 
ATOM     12  C   UNL     1       7.755   6.685  18.378  0.00  0.00    +0.000 A 
ATOM     13  C   UNL     1       7.708   5.595  19.219  0.00  0.00    +0.000 A 
ATOM     14 CL   UNL     1       8.727   5.298  20.569  0.00  0.00    +0.000 Cl
ATOM     15  O   UNL     1       6.719   4.744  18.824  0.00  0.00    +0.000 OA
ENDBRANCH   9  10
BRANCH   9  17
ATOM     16  C   UNL     1       5.606   4.676  14.567  0.00  0.00    +0.000 C 
ATOM     17  C   UNL     1       5.609   3.796  15.809  0.00  0.00    +0.000 C 
ENDBRANCH   9  17
ENDBRANCH   7   9
ENDBRANCH   1   7
BRANCH   2  18
ATOM     18  N   UNL     1       2.996   5.850  19.980  0.00  0.00    +0.000 N 
ATOM     19  H   UNL     1       2.786   5.979  20.981  0.00  0.00    +0.000 HD
BRANCH  18  20
ATOM     20  C   UNL     1       2.637   7.094  19.364  0.00  0.00    +0.000 A 
ATOM     21  C   UNL     1       2.990   7.401  18.047  0.00  0.00    +0.000 A 
ATOM     22  C   UNL     1       2.523   8.562  17.441  0.00  0.00    +0.000 A 
ATOM     23  C   UNL     1       1.651   9.403  18.133  0.00  0.00    +0.000 A 
ATOM     24  C   UNL     1       1.302   9.153  19.473  0.00  0.00    +0.000 A 
ATOM     25  C   UNL     1       1.896   8.051  20.102  0.00  0.00    +0.000 A 
BRANCH  24  26
ATOM     26  C   UNL     1       0.374  10.153  20.089  0.00  0.00    +0.000 C 
ATOM     27  O   UNL     1       0.724  10.594  21.188  0.00  0.00    +0.000 OA
ATOM     28  N   UNL     1      -0.793  10.618  19.469  0.00  0.00    +0.000 N 
ATOM     29  C   UNL     1      -1.360  10.177  18.202  0.00  0.00    +0.000 C 
ATOM     30  C   UNL     1      -1.589  11.613  20.181  0.00  0.00    +0.000 C 
ENDBRANCH  24  26
BRANCH  25  31
ATOM     31  O   UNL     1       1.846   7.862  21.460  0.00  0.00    +0.000 OA
ATOM     32  H   UNL     1       0.899   7.817  21.693  0.00  0.00    +0.000 HD
ENDBRANCH  25  31
ENDBRANCH  18  20
ENDBRANCH   2  18
TORSDOF 8
ENDMDL
