MODEL 1
REMARK VINA RESULT:      -7.6      0.000      0.000
REMARK  Name = 
REMARK  7 active torsions:
REMARK  status: ('A' for Active; 'I' for Inactive)
REMARK    1  A    between atoms: C_1  and  C_2
REMARK    2  A    between atoms: C_3  and  C_4
REMARK    3  A    between atoms: C_4  and  C_5
REMARK    4  A    between atoms: C_4  and  N_6
REMARK    5  A    between atoms: N_6  and  C_7
REMARK    6  A    between atoms: C_7  and  C_8
REMARK    7  A    between atoms: N_15  and  C_16
REMARK                            x       y       z     vdW  Elec       q    Type
REMARK                         _______ _______ _______ _____ _____    ______ ____
ROOT
ATOM      1  C   UNL     1       1.632   5.017  17.791  0.00  0.00    +0.000 C 
ATOM      2  C   UNL     1       2.973   5.668  17.766  0.00  0.00    +0.000 A 
ATOM      3  C   UNL     1       4.164   5.150  17.276  0.00  0.00    +0.000 A 
ATOM      4  C   UNL     1       5.066   6.229  17.353  0.00  0.00    +0.000 A 
ATOM      5  N   UNL     1       4.508   7.337  17.827  0.00  0.00    +0.000 NA
ATOM      6  N   UNL     1       3.223   7.000  18.087  0.00  0.00    +0.000 N 
ENDROOT
BRANCH   6   7
ATOM      7  C   UNL     1       2.321   7.977  18.584  0.00  0.00    +0.000 A 
ATOM      8  C   UNL     1       1.949   9.074  17.796  0.00  0.00    +0.000 A 
ATOM      9  C   UNL     1       1.151  10.080  18.333  0.00  0.00    +0.000 A 
ATOM     10  C   UNL     1       0.701   9.973  19.641  0.00  0.00    +0.000 A 
ATOM     11  F   UNL     1      -0.049  10.957  20.159  0.00  0.00    +0.000 F 
ATOM     12  C   UNL     1       1.002   8.865  20.413  0.00  0.00    +0.000 A 
ATOM     13  C   UNL     1       1.809   7.861  19.880  0.00  0.00    +0.000 A 
ATOM     14  F   UNL     1       2.142   6.846  20.689  0.00  0.00    +0.000 F 
ENDBRANCH   6   7
BRANCH   3  15
ATOM     15  C   UNL     1       4.393   3.770  16.734  0.00  0.00    +0.000 C 
ATOM     16  C   UNL     1       5.611   3.761  15.804  0.00  0.00    +0.000 C 
BRANCH  15  17
ATOM     17  N   UNL     1       4.579   2.792  17.810  0.00  0.00    +0.000 NA
ATOM     18  H   UNL     1       4.756   3.278  18.688  0.00  0.00    +0.000 HD
BRANCH  17  19
ATOM     19  C   UNL     1       3.448   1.872  17.949  0.00  0.00    +0.000 C 
BRANCH  19  20
ATOM     20  C   UNL     1       2.891   1.891  19.372  0.00  0.00    +0.000 C 
ATOM     21  C   UNL     1       3.513   2.950  20.282  0.00  0.00    +0.000 C 
ATOM     22  C   UNL     1       2.521   3.057  21.431  0.00  0.00    +0.000 C 
ATOM     23  C   UNL     1       1.151   2.751  20.826  0.00  0.00    +0.000 C 
ATOM     24  C   UNL     1       1.409   2.269  19.400  0.00  0.00    +0.000 C 
ENDBRANCH  19  20
ENDBRANCH  17  19
ENDBRANCH  15  17
ENDBRANCH   3  15
TORSDOF 5
ENDMDL
MODEL 2
REMARK VINA RESULT:      -7.5      2.812      5.948
REMARK  Name = 
REMARK  7 active torsions:
REMARK  status: ('A' for Active; 'I' for Inactive)
REMARK    1  A    between atoms: C_1  and  C_2
REMARK    2  A    between atoms: C_3  and  C_4
REMARK    3  A    between atoms: C_4  and  C_5
REMARK    4  A    between atoms: C_4  and  N_6
REMARK    5  A    between atoms: N_6  and  C_7
REMARK    6  A    between atoms: C_7  and  C_8
REMARK    7  A    between atoms: N_15  and  C_16
REMARK                            x       y       z     vdW  Elec       q    Type
REMARK                         _______ _______ _______ _____ _____    ______ ____
ROOT
ATOM      1  C   UNL     1       3.893   6.019  17.182  0.00  0.00    +0.000 C 
ATOM      2  C   UNL     1       5.036   5.668  18.072  0.00  0.00    +0.000 A 
ATOM      3  C   UNL     1       6.350   6.109  17.987  0.00  0.00    +0.000 A 
ATOM      4  C   UNL     1       6.958   5.604  19.153  0.00  0.00    +0.000 A 
ATOM      5  N   UNL     1       6.117   4.922  19.921  0.00  0.00    +0.000 NA
ATOM      6  N   UNL     1       4.935   4.954  19.263  0.00  0.00    +0.000 N 
ENDROOT
BRANCH   6   7
ATOM      7  C   UNL     1       3.789   4.337  19.832  0.00  0.00    +0.000 A 
ATOM      8  C   UNL     1       3.700   2.941  19.923  0.00  0.00    +0.000 A 
ATOM      9  C   UNL     1       2.528   2.346  20.381  0.00  0.00    +0.000 A 
ATOM     10  C   UNL     1       1.464   3.144  20.776  0.00  0.00    +0.000 A 
ATOM     11  F   UNL     1       0.330   2.563  21.195  0.00  0.00    +0.000 F 
ATOM     12  C   UNL     1       1.558   4.524  20.756  0.00  0.00    +0.000 A 
ATOM     13  C   UNL     1       2.726   5.122  20.289  0.00  0.00    +0.000 A 
ATOM     14  F   UNL     1       2.744   6.459  20.210  0.00  0.00    +0.000 F 
ENDBRANCH   6   7
BRANCH   3  15
ATOM     15  C   UNL     1       6.945   6.978  16.919  0.00  0.00    +0.000 C 
ATOM     16  C   UNL     1       7.840   8.051  17.545  0.00  0.00    +0.000 C 
BRANCH  15  17
ATOM     17  N   UNL     1       7.712   6.191  15.948  0.00  0.00    +0.000 NA
ATOM     18  H   UNL     1       8.655   6.038  16.301  0.00  0.00    +0.000 HD
BRANCH  17  19
ATOM     19  C   UNL     1       7.073   4.916  15.611  0.00  0.00    +0.000 C 
BRANCH  19  20
ATOM     20  C   UNL     1       6.663   4.876  14.140  0.00  0.00    +0.000 C 
ATOM     21  C   UNL     1       7.824   5.014  13.154  0.00  0.00    +0.000 C 
ATOM     22  C   UNL     1       7.239   4.509  11.844  0.00  0.00    +0.000 C 
ATOM     23  C   UNL     1       6.206   3.451  12.232  0.00  0.00    +0.000 C 
ATOM     24  C   UNL     1       6.068   3.521  13.750  0.00  0.00    +0.000 C 
ENDBRANCH  19  20
ENDBRANCH  17  19
ENDBRANCH  15  17
ENDBRANCH   3  15
TORSDOF 5
ENDMDL
MODEL 3
REMARK VINA RESULT:      -7.3      3.042      5.872
REMARK  Name = 
REMARK  7 active torsions:
REMARK  status: ('A' for Active; 'I' for Inactive)
REMARK    1  A    between atoms: C_1  and  C_2
REMARK    2  A    between atoms: C_3  and  C_4
REMARK    3  A    between atoms: C_4  and  C_5
REMARK    4  A    between atoms: C_4  and  N_6
REMARK    5  A    between atoms: N_6  and  C_7
REMARK    6  A    between atoms: C_7  and  C_8
REMARK    7  A    between atoms: N_15  and  C_16
REMARK                            x       y       z     vdW  Elec       q    Type
REMARK                         _______ _______ _______ _____ _____    ______ ____
ROOT
ATOM      1  C   UNL     1       5.835   4.447  18.781  0.00  0.00    +0.000 C 
ATOM      2  C   UNL     1       4.978   5.584  18.342  0.00  0.00    +0.000 A 
ATOM      3  C   UNL     1       5.309   6.618  17.476  0.00  0.00    +0.000 A 
ATOM      4  C   UNL     1       4.097   7.312  17.289  0.00  0.00    +0.000 A 
ATOM      5  N   UNL     1       3.083   6.770  17.953  0.00  0.00    +0.000 NA
ATOM      6  N   UNL     1       3.616   5.710  18.606  0.00  0.00    +0.000 N 
ENDROOT
BRANCH   6   7
ATOM      7  C   UNL     1       2.785   4.875  19.399  0.00  0.00    +0.000 A 
ATOM      8  C   UNL     1       2.826   4.948  20.797  0.00  0.00    +0.000 A 
ATOM      9  C   UNL     1       2.089   4.049  21.564  0.00  0.00    +0.000 A 
ATOM     10  C   UNL     1       1.291   3.105  20.934  0.00  0.00    +0.000 A 
ATOM     11  F   UNL     1       0.601   2.228  21.678  0.00  0.00    +0.000 F 
ATOM     12  C   UNL     1       1.187   3.061  19.555  0.00  0.00    +0.000 A 
ATOM     13  C   UNL     1       1.931   3.953  18.786  0.00  0.00    +0.000 A 
ATOM     14  F   UNL     1       1.862   3.823  17.454  0.00  0.00    +0.000 F 
ENDBRANCH   6   7
BRANCH   3  15
ATOM     15  C   UNL     1       6.646   6.875  16.847  0.00  0.00    +0.000 C 
ATOM     16  C   UNL     1       7.718   7.044  17.928  0.00  0.00    +0.000 C 
BRANCH  15  17
ATOM     17  N   UNL     1       7.027   5.797  15.928  0.00  0.00    +0.000 NA
ATOM     18  H   UNL     1       7.527   5.073  16.441  0.00  0.00    +0.000 HD
BRANCH  17  19
ATOM     19  C   UNL     1       5.885   5.227  15.210  0.00  0.00    +0.000 C 
BRANCH  19  20
ATOM     20  C   UNL     1       6.343   4.238  14.139  0.00  0.00    +0.000 C 
ATOM     21  C   UNL     1       5.232   3.747  13.211  0.00  0.00    +0.000 C 
ATOM     22  C   UNL     1       5.990   3.170  12.024  0.00  0.00    +0.000 C 
ATOM     23  C   UNL     1       7.273   3.993  11.913  0.00  0.00    +0.000 C 
ATOM     24  C   UNL     1       7.326   4.877  13.156  0.00  0.00    +0.000 C 
ENDBRANCH  19  20
ENDBRANCH  17  19
ENDBRANCH  15  17
ENDBRANCH   3  15
TORSDOF 5
ENDMDL
MODEL 4
REMARK VINA RESULT:      -7.2      2.954      5.941
REMARK  Name = 
REMARK  7 active torsions:
REMARK  status: ('A' for Active; 'I' for Inactive)
REMARK    1  A    between atoms: C_1  and  C_2
REMARK    2  A    between atoms: C_3  and  C_4
REMARK    3  A    between atoms: C_4  and  C_5
REMARK    4  A    between atoms: C_4  and  N_6
REMARK    5  A    between atoms: N_6  and  C_7
REMARK    6  A    between atoms: C_7  and  C_8
REMARK    7  A    between atoms: N_15  and  C_16
REMARK                            x       y       z     vdW  Elec       q    Type
REMARK                         _______ _______ _______ _____ _____    ______ ____
ROOT
ATOM      1  C   UNL     1       4.031   6.333  16.995  0.00  0.00    +0.000 C 
ATOM      2  C   UNL     1       5.013   5.635  17.873  0.00  0.00    +0.000 A 
ATOM      3  C   UNL     1       6.339   5.973  18.107  0.00  0.00    +0.000 A 
ATOM      4  C   UNL     1       6.745   5.086  19.124  0.00  0.00    +0.000 A 
ATOM      5  N   UNL     1       5.774   4.272  19.519  0.00  0.00    +0.000 NA
ATOM      6  N   UNL     1       4.707   4.599  18.753  0.00  0.00    +0.000 N 
ENDROOT
BRANCH   6   7
ATOM      7  C   UNL     1       3.468   3.932  18.940  0.00  0.00    +0.000 A 
ATOM      8  C   UNL     1       3.154   2.786  18.198  0.00  0.00    +0.000 A 
ATOM      9  C   UNL     1       1.895   2.205  18.311  0.00  0.00    +0.000 A 
ATOM     10  C   UNL     1       0.965   2.750  19.186  0.00  0.00    +0.000 A 
ATOM     11  F   UNL     1      -0.255   2.199  19.273  0.00  0.00    +0.000 F 
ATOM     12  C   UNL     1       1.280   3.842  19.975  0.00  0.00    +0.000 A 
ATOM     13  C   UNL     1       2.537   4.430  19.857  0.00  0.00    +0.000 A 
ATOM     14  F   UNL     1       2.770   5.533  20.580  0.00  0.00    +0.000 F 
ENDBRANCH   6   7
BRANCH   3  15
ATOM     15  C   UNL     1       7.119   7.077  17.457  0.00  0.00    +0.000 C 
ATOM     16  C   UNL     1       8.245   7.548  18.382  0.00  0.00    +0.000 C 
BRANCH  15  17
ATOM     17  N   UNL     1       7.675   6.657  16.167  0.00  0.00    +0.000 NA
ATOM     18  H   UNL     1       8.676   6.846  16.147  0.00  0.00    +0.000 HD
BRANCH  17  19
ATOM     19  C   UNL     1       7.408   5.250  15.859  0.00  0.00    +0.000 C 
BRANCH  19  20
ATOM     20  C   UNL     1       6.805   5.094  14.464  0.00  0.00    +0.000 C 
ATOM     21  C   UNL     1       7.832   5.017  13.333  0.00  0.00    +0.000 C 
ATOM     22  C   UNL     1       7.039   4.435  12.173  0.00  0.00    +0.000 C 
ATOM     23  C   UNL     1       5.985   3.527  12.805  0.00  0.00    +0.000 C 
ATOM     24  C   UNL     1       6.056   3.769  14.310  0.00  0.00    +0.000 C 
ENDBRANCH  19  20
ENDBRANCH  17  19
ENDBRANCH  15  17
ENDBRANCH   3  15
TORSDOF 5
ENDMDL
MODEL 5
REMARK VINA RESULT:      -7.2      3.288      5.839
REMARK  Name = 
REMARK  7 active torsions:
REMARK  status: ('A' for Active; 'I' for Inactive)
REMARK    1  A    between atoms: C_1  and  C_2
REMARK    2  A    between atoms: C_3  and  C_4
REMARK    3  A    between atoms: C_4  and  C_5
REMARK    4  A    between atoms: C_4  and  N_6
REMARK    5  A    between atoms: N_6  and  C_7
REMARK    6  A    between atoms: C_7  and  C_8
REMARK    7  A    between atoms: N_15  and  C_16
REMARK                            x       y       z     vdW  Elec       q    Type
REMARK                         _______ _______ _______ _____ _____    ______ ____
ROOT
ATOM      1  C   UNL     1       3.778   6.087  17.325  0.00  0.00    +0.000 C 
ATOM      2  C   UNL     1       4.946   5.679  18.155  0.00  0.00    +0.000 A 
ATOM      3  C   UNL     1       6.264   6.099  18.038  0.00  0.00    +0.000 A 
ATOM      4  C   UNL     1       6.906   5.534  19.158  0.00  0.00    +0.000 A 
ATOM      5  N   UNL     1       6.081   4.835  19.928  0.00  0.00    +0.000 NA
ATOM      6  N   UNL     1       4.876   4.916  19.318  0.00  0.00    +0.000 N 
ENDROOT
BRANCH   6   7
ATOM      7  C   UNL     1       3.741   4.295  19.904  0.00  0.00    +0.000 A 
ATOM      8  C   UNL     1       2.632   5.057  20.294  0.00  0.00    +0.000 A 
ATOM      9  C   UNL     1       1.573   4.453  20.966  0.00  0.00    +0.000 A 
ATOM     10  C   UNL     1       1.610   3.089  21.217  0.00  0.00    +0.000 A 
ATOM     11  F   UNL     1       0.596   2.518  21.884  0.00  0.00    +0.000 F 
ATOM     12  C   UNL     1       2.666   2.309  20.780  0.00  0.00    +0.000 A 
ATOM     13  C   UNL     1       3.731   2.913  20.116  0.00  0.00    +0.000 A 
ATOM     14  F   UNL     1       4.769   2.134  19.783  0.00  0.00    +0.000 F 
ENDBRANCH   6   7
BRANCH   3  15
ATOM     15  C   UNL     1       6.835   7.002  16.985  0.00  0.00    +0.000 C 
ATOM     16  C   UNL     1       7.911   7.909  17.590  0.00  0.00    +0.000 C 
BRANCH  15  17
ATOM     17  N   UNL     1       7.395   6.239  15.866  0.00  0.00    +0.000 NA
ATOM     18  H   UNL     1       8.356   6.533  15.698  0.00  0.00    +0.000 HD
BRANCH  17  19
ATOM     19  C   UNL     1       7.326   4.790  16.069  0.00  0.00    +0.000 C 
BRANCH  19  20
ATOM     20  C   UNL     1       6.841   4.078  14.807  0.00  0.00    +0.000 C 
ATOM     21  C   UNL     1       5.357   4.276  14.497  0.00  0.00    +0.000 C 
ATOM     22  C   UNL     1       5.242   3.872  13.035  0.00  0.00    +0.000 C 
ATOM     23  C   UNL     1       6.587   4.228  12.400  0.00  0.00    +0.000 C 
ATOM     24  C   UNL     1       7.511   4.628  13.547  0.00  0.00    +0.000 C 
ENDBRANCH  19  20
ENDBRANCH  17  19
ENDBRANCH  15  17
ENDBRANCH   3  15
TORSDOF 5
ENDMDL
MODEL 6
REMARK VINA RESULT:      -7.0      3.483      6.384
REMARK  Name = 
REMARK  7 active torsions:
REMARK  status: ('A' for Active; 'I' for Inactive)
REMARK    1  A    between atoms: C_1  and  C_2
REMARK    2  A    between atoms: C_3  and  C_4
REMARK    3  A    between atoms: C_4  and  C_5
REMARK    4  A    between atoms: C_4  and  N_6
REMARK    5  A    between atoms: N_6  and  C_7
REMARK    6  A    between atoms: C_7  and  C_8
REMARK    7  A    between atoms: N_15  and  C_16
REMARK                            x       y       z     vdW  Elec       q    Type
REMARK                         _______ _______ _______ _____ _____    ______ ____
ROOT
ATOM      1  C   UNL     1       4.859   7.201  15.826  0.00  0.00    +0.000 C 
ATOM      2  C   UNL     1       4.782   5.877  16.506  0.00  0.00    +0.000 A 
ATOM      3  C   UNL     1       4.216   5.581  17.739  0.00  0.00    +0.000 A 
ATOM      4  C   UNL     1       4.276   4.176  17.817  0.00  0.00    +0.000 A 
ATOM      5  N   UNL     1       4.810   3.620  16.736  0.00  0.00    +0.000 NA
ATOM      6  N   UNL     1       5.127   4.657  15.927  0.00  0.00    +0.000 N 
ENDROOT
BRANCH   6   7
ATOM      7  C   UNL     1       5.698   4.413  14.650  0.00  0.00    +0.000 A 
ATOM      8  C   UNL     1       4.987   3.702  13.674  0.00  0.00    +0.000 A 
ATOM      9  C   UNL     1       5.598   3.374  12.467  0.00  0.00    +0.000 A 
ATOM     10  C   UNL     1       6.902   3.784  12.226  0.00  0.00    +0.000 A 
ATOM     11  F   UNL     1       7.492   3.445  11.070  0.00  0.00    +0.000 F 
ATOM     12  C   UNL     1       7.596   4.544  13.150  0.00  0.00    +0.000 A 
ATOM     13  C   UNL     1       6.990   4.865  14.363  0.00  0.00    +0.000 A 
ATOM     14  F   UNL     1       7.726   5.532  15.261  0.00  0.00    +0.000 F 
ENDBRANCH   6   7
BRANCH   3  15
ATOM     15  C   UNL     1       3.624   6.552  18.717  0.00  0.00    +0.000 C 
ATOM     16  C   UNL     1       2.343   7.167  18.145  0.00  0.00    +0.000 C 
BRANCH  15  17
ATOM     17  N   UNL     1       3.340   5.914  20.006  0.00  0.00    +0.000 NA
ATOM     18  H   UNL     1       3.959   6.295  20.720  0.00  0.00    +0.000 HD
BRANCH  17  19
ATOM     19  C   UNL     1       1.939   6.043  20.413  0.00  0.00    +0.000 C 
BRANCH  19  20
ATOM     20  C   UNL     1       1.305   4.673  20.649  0.00  0.00    +0.000 C 
ATOM     21  C   UNL     1       1.138   3.824  19.388  0.00  0.00    +0.000 C 
ATOM     22  C   UNL     1       0.925   2.419  19.931  0.00  0.00    +0.000 C 
ATOM     23  C   UNL     1       1.713   2.357  21.239  0.00  0.00    +0.000 C 
ATOM     24  C   UNL     1       2.184   3.780  21.526  0.00  0.00    +0.000 C 
ENDBRANCH  19  20
ENDBRANCH  17  19
ENDBRANCH  15  17
ENDBRANCH   3  15
TORSDOF 5
ENDMDL
MODEL 7
REMARK VINA RESULT:      -6.9      2.967      7.361
REMARK  Name = 
REMARK  7 active torsions:
REMARK  status: ('A' for Active; 'I' for Inactive)
REMARK    1  A    between atoms: C_1  and  C_2
REMARK    2  A    between atoms: C_3  and  C_4
REMARK    3  A    between atoms: C_4  and  C_5
REMARK    4  A    between atoms: C_4  and  N_6
REMARK    5  A    between atoms: N_6  and  C_7
REMARK    6  A    between atoms: C_7  and  C_8
REMARK    7  A    between atoms: N_15  and  C_16
REMARK                            x       y       z     vdW  Elec       q    Type
REMARK                         _______ _______ _______ _____ _____    ______ ____
ROOT
ATOM      1  C   UNL     1       1.363   7.333  20.935  0.00  0.00    +0.000 C 
ATOM      2  C   UNL     1       1.692   7.829  19.569  0.00  0.00    +0.000 A 
ATOM      3  C   UNL     1       1.523   9.111  19.063  0.00  0.00    +0.000 A 
ATOM      4  C   UNL     1       2.138   9.065  17.796  0.00  0.00    +0.000 A 
ATOM      5  N   UNL     1       2.667   7.879  17.522  0.00  0.00    +0.000 NA
ATOM      6  N   UNL     1       2.395   7.113  18.603  0.00  0.00    +0.000 N 
ENDROOT
BRANCH   6   7
ATOM      7  C   UNL     1       2.855   5.770  18.656  0.00  0.00    +0.000 A 
ATOM      8  C   UNL     1       4.039   5.446  19.330  0.00  0.00    +0.000 A 
ATOM      9  C   UNL     1       4.536   4.147  19.282  0.00  0.00    +0.000 A 
ATOM     10  C   UNL     1       3.835   3.171  18.589  0.00  0.00    +0.000 A 
ATOM     11  F   UNL     1       4.331   1.926  18.528  0.00  0.00    +0.000 F 
ATOM     12  C   UNL     1       2.630   3.457  17.973  0.00  0.00    +0.000 A 
ATOM     13  C   UNL     1       2.135   4.758  18.012  0.00  0.00    +0.000 A 
ATOM     14  F   UNL     1       1.007   5.008  17.334  0.00  0.00    +0.000 F 
ENDBRANCH   6   7
BRANCH   3  15
ATOM     15  C   UNL     1       0.883  10.278  19.755  0.00  0.00    +0.000 C 
ATOM     16  C   UNL     1       1.225  11.580  19.024  0.00  0.00    +0.000 C 
BRANCH  15  17
ATOM     17  N   UNL     1      -0.572  10.121  19.843  0.00  0.00    +0.000 NA
ATOM     18  H   UNL     1      -0.856  10.097  20.821  0.00  0.00    +0.000 HD
BRANCH  17  19
ATOM     19  C   UNL     1      -1.306  11.161  19.117  0.00  0.00    +0.000 C 
BRANCH  19  20
ATOM     20  C   UNL     1      -2.369  10.553  18.205  0.00  0.00    +0.000 C 
ATOM     21  C   UNL     1      -3.347  11.565  17.606  0.00  0.00    +0.000 C 
ATOM     22  C   UNL     1      -3.975  10.809  16.445  0.00  0.00    +0.000 C 
ATOM     23  C   UNL     1      -2.897   9.848  15.945  0.00  0.00    +0.000 C 
ATOM     24  C   UNL     1      -1.754   9.920  16.954  0.00  0.00    +0.000 C 
ENDBRANCH  19  20
ENDBRANCH  17  19
ENDBRANCH  15  17
ENDBRANCH   3  15
TORSDOF 5
ENDMDL
MODEL 8
REMARK VINA RESULT:      -6.9      3.185      6.230
REMARK  Name = 
REMARK  7 active torsions:
REMARK  status: ('A' for Active; 'I' for Inactive)
REMARK    1  A    between atoms: C_1  and  C_2
REMARK    2  A    between atoms: C_3  and  C_4
REMARK    3  A    between atoms: C_4  and  C_5
REMARK    4  A    between atoms: C_4  and  N_6
REMARK    5  A    between atoms: N_6  and  C_7
REMARK    6  A    between atoms: C_7  and  C_8
REMARK    7  A    between atoms: N_15  and  C_16
REMARK                            x       y       z     vdW  Elec       q    Type
REMARK                         _______ _______ _______ _____ _____    ______ ____
ROOT
ATOM      1  C   UNL     1       4.668   6.039  18.848  0.00  0.00    +0.000 C 
ATOM      2  C   UNL     1       4.496   4.878  17.929  0.00  0.00    +0.000 A 
ATOM      3  C   UNL     1       5.132   4.647  16.717  0.00  0.00    +0.000 A 
ATOM      4  C   UNL     1       4.724   3.347  16.357  0.00  0.00    +0.000 A 
ATOM      5  N   UNL     1       3.922   2.789  17.255  0.00  0.00    +0.000 NA
ATOM      6  N   UNL     1       3.773   3.724  18.223  0.00  0.00    +0.000 N 
ENDROOT
BRANCH   6   7
ATOM      7  C   UNL     1       2.988   3.438  19.371  0.00  0.00    +0.000 A 
ATOM      8  C   UNL     1       3.556   2.811  20.487  0.00  0.00    +0.000 A 
ATOM      9  C   UNL     1       2.753   2.438  21.561  0.00  0.00    +0.000 A 
ATOM     10  C   UNL     1       1.395   2.720  21.531  0.00  0.00    +0.000 A 
ATOM     11  F   UNL     1       0.623   2.338  22.560  0.00  0.00    +0.000 F 
ATOM     12  C   UNL     1       0.828   3.398  20.467  0.00  0.00    +0.000 A 
ATOM     13  C   UNL     1       1.628   3.764  19.387  0.00  0.00    +0.000 A 
ATOM     14  F   UNL     1       1.023   4.346  18.343  0.00  0.00    +0.000 F 
ENDBRANCH   6   7
BRANCH   3  15
ATOM     15  C   UNL     1       6.082   5.564  16.006  0.00  0.00    +0.000 C 
ATOM     16  C   UNL     1       7.530   5.152  16.291  0.00  0.00    +0.000 C 
BRANCH  15  17
ATOM     17  N   UNL     1       5.841   5.575  14.560  0.00  0.00    +0.000 NA
ATOM     18  H   UNL     1       5.803   6.537  14.226  0.00  0.00    +0.000 HD
BRANCH  17  19
ATOM     19  C   UNL     1       6.835   4.806  13.807  0.00  0.00    +0.000 C 
BRANCH  19  20
ATOM     20  C   UNL     1       6.200   3.585  13.143  0.00  0.00    +0.000 C 
ATOM     21  C   UNL     1       4.879   3.866  12.427  0.00  0.00    +0.000 C 
ATOM     22  C   UNL     1       4.705   2.660  11.516  0.00  0.00    +0.000 C 
ATOM     23  C   UNL     1       6.119   2.214  11.144  0.00  0.00    +0.000 C 
ATOM     24  C   UNL     1       7.070   3.034  12.012  0.00  0.00    +0.000 C 
ENDBRANCH  19  20
ENDBRANCH  17  19
ENDBRANCH  15  17
ENDBRANCH   3  15
TORSDOF 5
ENDMDL
MODEL 9
REMARK VINA RESULT:      -6.8      3.129      6.082
REMARK  Name = 
REMARK  7 active torsions:
REMARK  status: ('A' for Active; 'I' for Inactive)
REMARK    1  A    between atoms: C_1  and  C_2
REMARK    2  A    between atoms: C_3  and  C_4
REMARK    3  A    between atoms: C_4  and  C_5
REMARK    4  A    between atoms: C_4  and  N_6
REMARK    5  A    between atoms: N_6  and  C_7
REMARK    6  A    between atoms: C_7  and  C_8
REMARK    7  A    between atoms: N_15  and  C_16
REMARK                            x       y       z     vdW  Elec       q    Type
REMARK                         _______ _______ _______ _____ _____    ______ ____
ROOT
ATOM      1  C   UNL     1       2.944   3.667  16.762  0.00  0.00    +0.000 C 
ATOM      2  C   UNL     1       4.120   4.249  17.469  0.00  0.00    +0.000 A 
ATOM      3  C   UNL     1       5.189   4.943  16.919  0.00  0.00    +0.000 A 
ATOM      4  C   UNL     1       5.916   5.397  18.038  0.00  0.00    +0.000 A 
ATOM      5  N   UNL     1       5.362   5.047  19.192  0.00  0.00    +0.000 NA
ATOM      6  N   UNL     1       4.260   4.338  18.852  0.00  0.00    +0.000 N 
ENDROOT
BRANCH   6   7
ATOM      7  C   UNL     1       3.402   3.832  19.865  0.00  0.00    +0.000 A 
ATOM      8  C   UNL     1       3.744   2.677  20.579  0.00  0.00    +0.000 A 
ATOM      9  C   UNL     1       2.846   2.129  21.491  0.00  0.00    +0.000 A 
ATOM     10  C   UNL     1       1.626   2.754  21.710  0.00  0.00    +0.000 A 
ATOM     11  F   UNL     1       0.756   2.209  22.573  0.00  0.00    +0.000 F 
ATOM     12  C   UNL     1       1.299   3.932  21.063  0.00  0.00    +0.000 A 
ATOM     13  C   UNL     1       2.192   4.476  20.143  0.00  0.00    +0.000 A 
ATOM     14  F   UNL     1       1.801   5.573  19.480  0.00  0.00    +0.000 F 
ENDBRANCH   6   7
BRANCH   3  15
ATOM     15  C   UNL     1       5.451   5.193  15.464  0.00  0.00    +0.000 C 
ATOM     16  C   UNL     1       5.337   6.688  15.153  0.00  0.00    +0.000 C 
BRANCH  15  17
ATOM     17  N   UNL     1       6.772   4.698  15.061  0.00  0.00    +0.000 NA
ATOM     18  H   UNL     1       6.944   3.792  15.493  0.00  0.00    +0.000 HD
BRANCH  17  19
ATOM     19  C   UNL     1       6.934   4.617  13.608  0.00  0.00    +0.000 C 
BRANCH  19  20
ATOM     20  C   UNL     1       6.091   3.488  13.020  0.00  0.00    +0.000 C 
ATOM     21  C   UNL     1       4.886   3.955  12.202  0.00  0.00    +0.000 C 
ATOM     22  C   UNL     1       4.505   2.722  11.395  0.00  0.00    +0.000 C 
ATOM     23  C   UNL     1       5.811   1.966  11.152  0.00  0.00    +0.000 C 
ATOM     24  C   UNL     1       6.874   2.662  11.997  0.00  0.00    +0.000 C 
ENDBRANCH  19  20
ENDBRANCH  17  19
ENDBRANCH  15  17
ENDBRANCH   3  15
TORSDOF 5
ENDMDL
