MODEL 1
REMARK VINA RESULT:      -8.8      0.000      0.000
REMARK  Name = 
REMARK  11 active torsions:
REMARK  status: ('A' for Active; 'I' for Inactive)
REMARK    1  A    between atoms: C_1  and  O_2
REMARK    2  A    between atoms: O_2  and  C_3
REMARK    3  A    between atoms: C_7  and  C_8
REMARK    4  A    between atoms: C_9  and  C_10
REMARK    5  A    between atoms: N_12  and  C_13
REMARK    6  A    between atoms: C_13  and  C_14
REMARK    7  A    between atoms: C_13  and  C_15
REMARK    8  A    between atoms: C_13  and  C_16
REMARK    9  A    between atoms: N_18  and  C_19
REMARK   10  A    between atoms: C_19  and  C_20
REMARK   11  A    between atoms: C_20  and  C_21
REMARK                            x       y       z     vdW  Elec       q    Type
REMARK                         _______ _______ _______ _____ _____    ______ ____
ROOT
ATOM      1  C   UNL     1       1.853   3.490  20.206  0.00  0.00    +0.000 C 
ATOM      2  C   UNL     1       2.406   3.042  21.570  0.00  0.00    +0.000 C 
ATOM      3  C   UNL     1       0.611   2.675  19.800  0.00  0.00    +0.000 C 
ENDROOT
BRANCH   1   6
ATOM      4  C   UNL     1       2.396   5.974  20.134  0.00  0.00    +0.000 C 
ATOM      5  O   UNL     1       3.590   5.793  19.920  0.00  0.00    +0.000 OA
ATOM      6  N   UNL     1       1.478   4.945  20.284  0.00  0.00    +0.000 N 
ATOM      7  H   UNL     1       0.506   5.142  20.502  0.00  0.00    +0.000 HD
BRANCH   4   9
ATOM      8  C   UNL     1       0.893   7.655  21.147  0.00  0.00    +0.000 C 
ATOM      9  C   UNL     1       1.861   7.369  20.249  0.00  0.00    +0.000 C 
BRANCH   8  14
ATOM     10  C   UNL     1      -0.318  11.254  20.758  0.00  0.00    +0.000 A 
ATOM     11  C   UNL     1      -0.747  11.537  22.064  0.00  0.00    +0.000 A 
ATOM     12  C   UNL     1      -0.652  10.559  23.050  0.00  0.00    +0.000 A 
ATOM     13  C   UNL     1      -0.132   9.293  22.734  0.00  0.00    +0.000 A 
ATOM     14  C   UNL     1       0.296   8.985  21.426  0.00  0.00    +0.000 A 
ATOM     15  C   UNL     1       0.222   9.990  20.450  0.00  0.00    +0.000 A 
BRANCH  10  17
ATOM     16  C   UNL     1      -1.353  12.154  18.818  0.00  0.00    +0.000 C 
ATOM     17  O   UNL     1      -0.427  12.310  19.885  0.00  0.00    +0.000 OA
ENDBRANCH  10  17
ENDBRANCH   8  14
ENDBRANCH   4   9
ENDBRANCH   1   6
BRANCH   1  18
ATOM     18  C   UNL     1       2.963   3.174  19.105  0.00  0.00    +0.000 C 
ATOM     19  O   UNL     1       3.981   2.524  19.381  0.00  0.00    +0.000 OA
ATOM     20  N   UNL     1       2.713   3.714  17.834  0.00  0.00    +0.000 N 
ATOM     21  H   UNL     1       1.834   4.212  17.684  0.00  0.00    +0.000 HD
BRANCH  20  22
ATOM     22  C   UNL     1       3.673   3.809  16.731  0.00  0.00    +0.000 C 
BRANCH  22  23
ATOM     23  C   UNL     1       5.139   4.112  17.079  0.00  0.00    +0.000 C 
BRANCH  23  24
ATOM     24  C   UNL     1       6.145   4.360  15.984  0.00  0.00    +0.000 A 
ATOM     25  C   UNL     1       7.379   4.930  16.255  0.00  0.00    +0.000 A 
ATOM     26  N   UNL     1       7.637   5.676  15.144  0.00  0.00    +0.000 N 
ATOM     27  C   UNL     1       7.236   4.943  14.064  0.00  0.00    +0.000 A 
ATOM     28  C   UNL     1       7.693   4.975  12.742  0.00  0.00    +0.000 A 
ATOM     29  C   UNL     1       7.065   4.115  11.851  0.00  0.00    +0.000 A 
ATOM     30  C   UNL     1       5.949   3.377  12.247  0.00  0.00    +0.000 A 
ATOM     31  C   UNL     1       5.453   3.432  13.571  0.00  0.00    +0.000 A 
ATOM     32  C   UNL     1       6.171   4.165  14.543  0.00  0.00    +0.000 A 
ATOM     33  H   UNL     1       7.851   6.664  15.128  0.00  0.00    +0.000 HD
ENDBRANCH  23  24
ENDBRANCH  22  23
ENDBRANCH  20  22
ENDBRANCH   1  18
TORSDOF 8
ENDMDL
MODEL 2
REMARK VINA RESULT:      -8.5      5.227      8.288
REMARK  Name = 
REMARK  11 active torsions:
REMARK  status: ('A' for Active; 'I' for Inactive)
REMARK    1  A    between atoms: C_1  and  O_2
REMARK    2  A    between atoms: O_2  and  C_3
REMARK    3  A    between atoms: C_7  and  C_8
REMARK    4  A    between atoms: C_9  and  C_10
REMARK    5  A    between atoms: N_12  and  C_13
REMARK    6  A    between atoms: C_13  and  C_14
REMARK    7  A    between atoms: C_13  and  C_15
REMARK    8  A    between atoms: C_13  and  C_16
REMARK    9  A    between atoms: N_18  and  C_19
REMARK   10  A    between atoms: C_19  and  C_20
REMARK   11  A    between atoms: C_20  and  C_21
REMARK                            x       y       z     vdW  Elec       q    Type
REMARK                         _______ _______ _______ _____ _____    ______ ____
ROOT
ATOM      1  C   UNL     1       6.749   5.916  16.876  0.00  0.00    +0.000 C 
ATOM      2  C   UNL     1       6.986   5.205  15.532  0.00  0.00    +0.000 C 
ATOM      3  C   UNL     1       7.475   5.204  18.032  0.00  0.00    +0.000 C 
ENDROOT
BRANCH   1   6
ATOM      4  C   UNL     1       7.993   7.942  17.782  0.00  0.00    +0.000 C 
ATOM      5  O   UNL     1       8.300   7.388  18.833  0.00  0.00    +0.000 OA
ATOM      6  N   UNL     1       7.257   7.330  16.778  0.00  0.00    +0.000 N 
ATOM      7  H   UNL     1       6.990   7.840  15.943  0.00  0.00    +0.000 HD
BRANCH   4   9
ATOM      8  C   UNL     1       9.100  10.041  18.476  0.00  0.00    +0.000 C 
ATOM      9  C   UNL     1       8.415   9.358  17.532  0.00  0.00    +0.000 C 
BRANCH   8  14
ATOM     10  C   UNL     1       9.344  13.844  18.258  0.00  0.00    +0.000 A 
ATOM     11  C   UNL     1      10.720  14.013  18.038  0.00  0.00    +0.000 A 
ATOM     12  C   UNL     1      11.552  12.900  17.975  0.00  0.00    +0.000 A 
ATOM     13  C   UNL     1      11.015  11.613  18.136  0.00  0.00    +0.000 A 
ATOM     14  C   UNL     1       9.636  11.420  18.368  0.00  0.00    +0.000 A 
ATOM     15  C   UNL     1       8.805  12.550  18.399  0.00  0.00    +0.000 A 
BRANCH  10  17
ATOM     16  C   UNL     1       9.368  16.215  18.410  0.00  0.00    +0.000 C 
ATOM     17  O   UNL     1       8.623  15.014  18.262  0.00  0.00    +0.000 OA
ENDBRANCH  10  17
ENDBRANCH   8  14
ENDBRANCH   4   9
ENDBRANCH   1   6
BRANCH   1  18
ATOM     18  C   UNL     1       5.192   5.818  17.210  0.00  0.00    +0.000 C 
ATOM     19  O   UNL     1       4.620   4.723  17.308  0.00  0.00    +0.000 OA
ATOM     20  N   UNL     1       4.532   7.049  17.343  0.00  0.00    +0.000 N 
ATOM     21  H   UNL     1       5.085   7.905  17.277  0.00  0.00    +0.000 HD
BRANCH  20  22
ATOM     22  C   UNL     1       3.082   7.252  17.378  0.00  0.00    +0.000 C 
BRANCH  22  23
ATOM     23  C   UNL     1       2.413   7.430  18.751  0.00  0.00    +0.000 C 
BRANCH  23  24
ATOM     24  C   UNL     1       2.036   6.225  19.576  0.00  0.00    +0.000 A 
ATOM     25  C   UNL     1       1.871   6.316  20.948  0.00  0.00    +0.000 A 
ATOM     26  N   UNL     1       2.311   5.109  21.403  0.00  0.00    +0.000 N 
ATOM     27  C   UNL     1       1.859   4.160  20.533  0.00  0.00    +0.000 A 
ATOM     28  C   UNL     1       1.582   2.806  20.752  0.00  0.00    +0.000 A 
ATOM     29  C   UNL     1       1.151   2.078  19.650  0.00  0.00    +0.000 A 
ATOM     30  C   UNL     1       1.142   2.656  18.380  0.00  0.00    +0.000 A 
ATOM     31  C   UNL     1       1.514   4.006  18.175  0.00  0.00    +0.000 A 
ATOM     32  C   UNL     1       1.792   4.819  19.296  0.00  0.00    +0.000 A 
ATOM     33  H   UNL     1       3.031   4.964  22.099  0.00  0.00    +0.000 HD
ENDBRANCH  23  24
ENDBRANCH  22  23
ENDBRANCH  20  22
ENDBRANCH   1  18
TORSDOF 8
ENDMDL
MODEL 3
REMARK VINA RESULT:      -8.5      4.996      9.345
REMARK  Name = 
REMARK  11 active torsions:
REMARK  status: ('A' for Active; 'I' for Inactive)
REMARK    1  A    between atoms: C_1  and  O_2
REMARK    2  A    between atoms: O_2  and  C_3
REMARK    3  A    between atoms: C_7  and  C_8
REMARK    4  A    between atoms: C_9  and  C_10
REMARK    5  A    between atoms: N_12  and  C_13
REMARK    6  A    between atoms: C_13  and  C_14
REMARK    7  A    between atoms: C_13  and  C_15
REMARK    8  A    between atoms: C_13  and  C_16
REMARK    9  A    between atoms: N_18  and  C_19
REMARK   10  A    between atoms: C_19  and  C_20
REMARK   11  A    between atoms: C_20  and  C_21
REMARK                            x       y       z     vdW  Elec       q    Type
REMARK                         _______ _______ _______ _____ _____    ______ ____
ROOT
ATOM      1  C   UNL     1       5.363   5.693  17.439  0.00  0.00    +0.000 C 
ATOM      2  C   UNL     1       5.333   5.562  15.906  0.00  0.00    +0.000 C 
ATOM      3  C   UNL     1       6.258   4.619  18.084  0.00  0.00    +0.000 C 
ENDROOT
BRANCH   1   6
ATOM      4  C   UNL     1       7.124   7.528  17.371  0.00  0.00    +0.000 C 
ATOM      5  O   UNL     1       7.885   6.887  16.653  0.00  0.00    +0.000 OA
ATOM      6  N   UNL     1       5.894   7.053  17.803  0.00  0.00    +0.000 N 
ATOM      7  H   UNL     1       5.316   7.602  18.431  0.00  0.00    +0.000 HD
BRANCH   4   9
ATOM      8  C   UNL     1       8.725   9.118  18.381  0.00  0.00    +0.000 C 
ATOM      9  C   UNL     1       7.510   8.900  17.832  0.00  0.00    +0.000 C 
BRANCH   8  14
ATOM     10  C   UNL     1      10.344  12.575  18.402  0.00  0.00    +0.000 A 
ATOM     11  C   UNL     1      10.434  12.822  19.781  0.00  0.00    +0.000 A 
ATOM     12  C   UNL     1       9.961  11.876  20.685  0.00  0.00    +0.000 A 
ATOM     13  C   UNL     1       9.391  10.681  20.216  0.00  0.00    +0.000 A 
ATOM     14  C   UNL     1       9.282  10.417  18.834  0.00  0.00    +0.000 A 
ATOM     15  C   UNL     1       9.790  11.367  17.936  0.00  0.00    +0.000 A 
BRANCH  10  17
ATOM     16  C   UNL     1      12.281  13.511  17.394  0.00  0.00    +0.000 C 
ATOM     17  O   UNL     1      10.878  13.566  17.613  0.00  0.00    +0.000 OA
ENDBRANCH  10  17
ENDBRANCH   8  14
ENDBRANCH   4   9
ENDBRANCH   1   6
BRANCH   1  18
ATOM     18  C   UNL     1       3.888   5.416  17.980  0.00  0.00    +0.000 C 
ATOM     19  O   UNL     1       3.154   4.571  17.449  0.00  0.00    +0.000 OA
ATOM     20  N   UNL     1       3.488   6.219  19.059  0.00  0.00    +0.000 N 
ATOM     21  H   UNL     1       4.168   6.871  19.456  0.00  0.00    +0.000 HD
BRANCH  20  22
ATOM     22  C   UNL     1       2.123   6.365  19.567  0.00  0.00    +0.000 C 
BRANCH  22  23
ATOM     23  C   UNL     1       1.899   7.293  20.772  0.00  0.00    +0.000 C 
BRANCH  23  24
ATOM     24  C   UNL     1       1.171   8.602  20.601  0.00  0.00    +0.000 A 
ATOM     25  C   UNL     1       1.119   9.241  19.373  0.00  0.00    +0.000 A 
ATOM     26  N   UNL     1       1.136  10.564  19.701  0.00  0.00    +0.000 N 
ATOM     27  C   UNL     1       0.337  10.719  20.797  0.00  0.00    +0.000 A 
ATOM     28  C   UNL     1      -0.380  11.839  21.229  0.00  0.00    +0.000 A 
ATOM     29  C   UNL     1      -1.094  11.697  22.412  0.00  0.00    +0.000 A 
ATOM     30  C   UNL     1      -0.968  10.538  23.179  0.00  0.00    +0.000 A 
ATOM     31  C   UNL     1      -0.162   9.453  22.760  0.00  0.00    +0.000 A 
ATOM     32  C   UNL     1       0.440   9.498  21.482  0.00  0.00    +0.000 A 
ATOM     33  H   UNL     1       1.795  11.251  19.360  0.00  0.00    +0.000 HD
ENDBRANCH  23  24
ENDBRANCH  22  23
ENDBRANCH  20  22
ENDBRANCH   1  18
TORSDOF 8
ENDMDL
MODEL 4
REMARK VINA RESULT:      -8.4      5.117      8.114
REMARK  Name = 
REMARK  11 active torsions:
REMARK  status: ('A' for Active; 'I' for Inactive)
REMARK    1  A    between atoms: C_1  and  O_2
REMARK    2  A    between atoms: O_2  and  C_3
REMARK    3  A    between atoms: C_7  and  C_8
REMARK    4  A    between atoms: C_9  and  C_10
REMARK    5  A    between atoms: N_12  and  C_13
REMARK    6  A    between atoms: C_13  and  C_14
REMARK    7  A    between atoms: C_13  and  C_15
REMARK    8  A    between atoms: C_13  and  C_16
REMARK    9  A    between atoms: N_18  and  C_19
REMARK   10  A    between atoms: C_19  and  C_20
REMARK   11  A    between atoms: C_20  and  C_21
REMARK                            x       y       z     vdW  Elec       q    Type
REMARK                         _______ _______ _______ _____ _____    ______ ____
ROOT
ATOM      1  C   UNL     1       6.558   5.354  17.731  0.00  0.00    +0.000 C 
ATOM      2  C   UNL     1       7.771   4.415  17.611  0.00  0.00    +0.000 C 
ATOM      3  C   UNL     1       5.990   5.369  19.161  0.00  0.00    +0.000 C 
ENDROOT
BRANCH   1   6
ATOM      4  C   UNL     1       7.955   7.456  18.050  0.00  0.00    +0.000 C 
ATOM      5  O   UNL     1       8.560   7.008  19.019  0.00  0.00    +0.000 OA
ATOM      6  N   UNL     1       6.981   6.750  17.359  0.00  0.00    +0.000 N 
ATOM      7  H   UNL     1       6.477   7.176  16.589  0.00  0.00    +0.000 HD
BRANCH   4   9
ATOM      8  C   UNL     1       8.556   9.823  18.434  0.00  0.00    +0.000 C 
ATOM      9  C   UNL     1       8.253   8.839  17.558  0.00  0.00    +0.000 C 
BRANCH   8  14
ATOM     10  C   UNL     1      10.542  13.055  18.008  0.00  0.00    +0.000 A 
ATOM     11  C   UNL     1       9.535  13.937  17.587  0.00  0.00    +0.000 A 
ATOM     12  C   UNL     1       8.231  13.475  17.433  0.00  0.00    +0.000 A 
ATOM     13  C   UNL     1       7.928  12.129  17.696  0.00  0.00    +0.000 A 
ATOM     14  C   UNL     1       8.928  11.223  18.112  0.00  0.00    +0.000 A 
ATOM     15  C   UNL     1      10.231  11.710  18.290  0.00  0.00    +0.000 A 
BRANCH  10  17
ATOM     16  C   UNL     1      12.331  13.618  19.467  0.00  0.00    +0.000 C 
ATOM     17  O   UNL     1      11.778  13.638  18.158  0.00  0.00    +0.000 OA
ENDBRANCH  10  17
ENDBRANCH   8  14
ENDBRANCH   4   9
ENDBRANCH   1   6
BRANCH   1  18
ATOM     18  C   UNL     1       5.398   4.770  16.804  0.00  0.00    +0.000 C 
ATOM     19  O   UNL     1       4.978   5.397  15.821  0.00  0.00    +0.000 OA
ATOM     20  N   UNL     1       4.879   3.531  17.209  0.00  0.00    +0.000 N 
ATOM     21  H   UNL     1       5.303   3.067  18.015  0.00  0.00    +0.000 HD
BRANCH  20  22
ATOM     22  C   UNL     1       3.651   2.905  16.714  0.00  0.00    +0.000 C 
BRANCH  22  23
ATOM     23  C   UNL     1       2.400   2.968  17.606  0.00  0.00    +0.000 C 
BRANCH  23  24
ATOM     24  C   UNL     1       2.336   3.936  18.759  0.00  0.00    +0.000 A 
ATOM     25  C   UNL     1       2.369   3.496  20.072  0.00  0.00    +0.000 A 
ATOM     26  N   UNL     1       1.563   4.380  20.726  0.00  0.00    +0.000 N 
ATOM     27  C   UNL     1       1.826   5.619  20.217  0.00  0.00    +0.000 A 
ATOM     28  C   UNL     1       1.691   6.877  20.813  0.00  0.00    +0.000 A 
ATOM     29  C   UNL     1       2.020   7.972  20.024  0.00  0.00    +0.000 A 
ATOM     30  C   UNL     1       2.328   7.805  18.673  0.00  0.00    +0.000 A 
ATOM     31  C   UNL     1       2.370   6.523  18.074  0.00  0.00    +0.000 A 
ATOM     32  C   UNL     1       2.208   5.380  18.888  0.00  0.00    +0.000 A 
ATOM     33  H   UNL     1       0.760   4.143  21.294  0.00  0.00    +0.000 HD
ENDBRANCH  23  24
ENDBRANCH  22  23
ENDBRANCH  20  22
ENDBRANCH   1  18
TORSDOF 8
ENDMDL
MODEL 5
REMARK VINA RESULT:      -8.4      5.229      9.244
REMARK  Name = 
REMARK  11 active torsions:
REMARK  status: ('A' for Active; 'I' for Inactive)
REMARK    1  A    between atoms: C_1  and  O_2
REMARK    2  A    between atoms: O_2  and  C_3
REMARK    3  A    between atoms: C_7  and  C_8
REMARK    4  A    between atoms: C_9  and  C_10
REMARK    5  A    between atoms: N_12  and  C_13
REMARK    6  A    between atoms: C_13  and  C_14
REMARK    7  A    between atoms: C_13  and  C_15
REMARK    8  A    between atoms: C_13  and  C_16
REMARK    9  A    between atoms: N_18  and  C_19
REMARK   10  A    between atoms: C_19  and  C_20
REMARK   11  A    between atoms: C_20  and  C_21
REMARK                            x       y       z     vdW  Elec       q    Type
REMARK                         _______ _______ _______ _____ _____    ______ ____
ROOT
ATOM      1  C   UNL     1       5.001   6.218  17.206  0.00  0.00    +0.000 C 
ATOM      2  C   UNL     1       5.105   6.320  15.674  0.00  0.00    +0.000 C 
ATOM      3  C   UNL     1       5.322   4.797  17.704  0.00  0.00    +0.000 C 
ENDROOT
BRANCH   1   6
ATOM      4  C   UNL     1       7.289   7.312  17.409  0.00  0.00    +0.000 C 
ATOM      5  O   UNL     1       7.776   6.657  16.493  0.00  0.00    +0.000 OA
ATOM      6  N   UNL     1       5.973   7.185  17.828  0.00  0.00    +0.000 N 
ATOM      7  H   UNL     1       5.624   7.718  18.618  0.00  0.00    +0.000 HD
BRANCH   4   9
ATOM      8  C   UNL     1       8.221   9.585  17.688  0.00  0.00    +0.000 C 
ATOM      9  C   UNL     1       8.129   8.314  18.140  0.00  0.00    +0.000 C 
BRANCH   8  14
ATOM     10  C   UNL     1       9.725  13.027  18.368  0.00  0.00    +0.000 A 
ATOM     11  C   UNL     1      10.486  12.766  19.518  0.00  0.00    +0.000 A 
ATOM     12  C   UNL     1      10.494  11.487  20.066  0.00  0.00    +0.000 A 
ATOM     13  C   UNL     1       9.739  10.464  19.471  0.00  0.00    +0.000 A 
ATOM     14  C   UNL     1       8.959  10.706  18.320  0.00  0.00    +0.000 A 
ATOM     15  C   UNL     1       8.984  11.993  17.761  0.00  0.00    +0.000 A 
BRANCH  10  17
ATOM     16  C   UNL     1      11.143  14.803  17.675  0.00  0.00    +0.000 C 
ATOM     17  O   UNL     1       9.828  14.316  17.901  0.00  0.00    +0.000 OA
ENDBRANCH  10  17
ENDBRANCH   8  14
ENDBRANCH   4   9
ENDBRANCH   1   6
BRANCH   1  18
ATOM     18  C   UNL     1       3.481   6.491  17.609  0.00  0.00    +0.000 C 
ATOM     19  O   UNL     1       2.667   5.564  17.721  0.00  0.00    +0.000 OA
ATOM     20  N   UNL     1       3.144   7.841  17.786  0.00  0.00    +0.000 N 
ATOM     21  H   UNL     1       3.885   8.540  17.704  0.00  0.00    +0.000 HD
BRANCH  20  22
ATOM     22  C   UNL     1       1.789   8.387  17.888  0.00  0.00    +0.000 C 
BRANCH  22  23
ATOM     23  C   UNL     1       1.463   9.282  19.095  0.00  0.00    +0.000 C 
BRANCH  23  24
ATOM     24  C   UNL     1       0.298  10.236  19.043  0.00  0.00    +0.000 A 
ATOM     25  C   UNL     1       0.231  11.338  19.881  0.00  0.00    +0.000 A 
ATOM     26  N   UNL     1      -1.103  11.465  20.134  0.00  0.00    +0.000 N 
ATOM     27  C   UNL     1      -1.761  11.221  18.963  0.00  0.00    +0.000 A 
ATOM     28  C   UNL     1      -3.008  11.680  18.527  0.00  0.00    +0.000 A 
ATOM     29  C   UNL     1      -3.428  11.236  17.280  0.00  0.00    +0.000 A 
ATOM     30  C   UNL     1      -2.692  10.273  16.587  0.00  0.00    +0.000 A 
ATOM     31  C   UNL     1      -1.476   9.760  17.096  0.00  0.00    +0.000 A 
ATOM     32  C   UNL     1      -0.937  10.315  18.278  0.00  0.00    +0.000 A 
ATOM     33  H   UNL     1      -1.534  11.490  21.049  0.00  0.00    +0.000 HD
ENDBRANCH  23  24
ENDBRANCH  22  23
ENDBRANCH  20  22
ENDBRANCH   1  18
TORSDOF 8
ENDMDL
MODEL 6
REMARK VINA RESULT:      -8.4      2.082      2.936
REMARK  Name = 
REMARK  11 active torsions:
REMARK  status: ('A' for Active; 'I' for Inactive)
REMARK    1  A    between atoms: C_1  and  O_2
REMARK    2  A    between atoms: O_2  and  C_3
REMARK    3  A    between atoms: C_7  and  C_8
REMARK    4  A    between atoms: C_9  and  C_10
REMARK    5  A    between atoms: N_12  and  C_13
REMARK    6  A    between atoms: C_13  and  C_14
REMARK    7  A    between atoms: C_13  and  C_15
REMARK    8  A    between atoms: C_13  and  C_16
REMARK    9  A    between atoms: N_18  and  C_19
REMARK   10  A    between atoms: C_19  and  C_20
REMARK   11  A    between atoms: C_20  and  C_21
REMARK                            x       y       z     vdW  Elec       q    Type
REMARK                         _______ _______ _______ _____ _____    ______ ____
ROOT
ATOM      1  C   UNL     1       1.814   4.035  20.227  0.00  0.00    +0.000 C 
ATOM      2  C   UNL     1       2.966   3.740  21.204  0.00  0.00    +0.000 C 
ATOM      3  C   UNL     1       0.581   3.160  20.520  0.00  0.00    +0.000 C 
ENDROOT
BRANCH   1   6
ATOM      4  C   UNL     1       2.227   6.524  19.904  0.00  0.00    +0.000 C 
ATOM      5  O   UNL     1       3.317   6.359  19.365  0.00  0.00    +0.000 OA
ATOM      6  N   UNL     1       1.426   5.484  20.351  0.00  0.00    +0.000 N 
ATOM      7  H   UNL     1       0.550   5.669  20.829  0.00  0.00    +0.000 HD
BRANCH   4   9
ATOM      8  C   UNL     1       0.909   8.186  21.173  0.00  0.00    +0.000 C 
ATOM      9  C   UNL     1       1.699   7.911  20.112  0.00  0.00    +0.000 C 
BRANCH   8  14
ATOM     10  C   UNL     1       0.188  11.933  21.294  0.00  0.00    +0.000 A 
ATOM     11  C   UNL     1      -0.661  12.008  22.409  0.00  0.00    +0.000 A 
ATOM     12  C   UNL     1      -1.000  10.848  23.099  0.00  0.00    +0.000 A 
ATOM     13  C   UNL     1      -0.496   9.608  22.676  0.00  0.00    +0.000 A 
ATOM     14  C   UNL     1       0.352   9.508  21.552  0.00  0.00    +0.000 A 
ATOM     15  C   UNL     1       0.708  10.689  20.885  0.00  0.00    +0.000 A 
BRANCH  10  17
ATOM     16  C   UNL     1       1.784  13.659  20.952  0.00  0.00    +0.000 C 
ATOM     17  O   UNL     1       0.479  13.148  20.721  0.00  0.00    +0.000 OA
ENDBRANCH  10  17
ENDBRANCH   8  14
ENDBRANCH   4   9
ENDBRANCH   1   6
BRANCH   1  18
ATOM     18  C   UNL     1       2.302   3.627  18.764  0.00  0.00    +0.000 C 
ATOM     19  O   UNL     1       1.503   3.519  17.823  0.00  0.00    +0.000 OA
ATOM     20  N   UNL     1       3.676   3.370  18.644  0.00  0.00    +0.000 N 
ATOM     21  H   UNL     1       4.269   3.512  19.463  0.00  0.00    +0.000 HD
BRANCH  20  22
ATOM     22  C   UNL     1       4.338   2.727  17.506  0.00  0.00    +0.000 C 
BRANCH  22  23
ATOM     23  C   UNL     1       4.838   3.625  16.363  0.00  0.00    +0.000 C 
BRANCH  23  24
ATOM     24  C   UNL     1       5.365   5.006  16.655  0.00  0.00    +0.000 A 
ATOM     25  C   UNL     1       4.789   6.132  16.088  0.00  0.00    +0.000 A 
ATOM     26  N   UNL     1       5.846   6.971  15.899  0.00  0.00    +0.000 N 
ATOM     27  C   UNL     1       6.648   6.864  16.998  0.00  0.00    +0.000 A 
ATOM     28  C   UNL     1       7.532   7.795  17.554  0.00  0.00    +0.000 A 
ATOM     29  C   UNL     1       8.237   7.383  18.677  0.00  0.00    +0.000 A 
ATOM     30  C   UNL     1       8.155   6.062  19.119  0.00  0.00    +0.000 A 
ATOM     31  C   UNL     1       7.318   5.116  18.481  0.00  0.00    +0.000 A 
ATOM     32  C   UNL     1       6.461   5.547  17.444  0.00  0.00    +0.000 A 
ATOM     33  H   UNL     1       6.115   7.399  15.023  0.00  0.00    +0.000 HD
ENDBRANCH  23  24
ENDBRANCH  22  23
ENDBRANCH  20  22
ENDBRANCH   1  18
TORSDOF 8
ENDMDL
MODEL 7
REMARK VINA RESULT:      -8.3      4.920      9.107
REMARK  Name = 
REMARK  11 active torsions:
REMARK  status: ('A' for Active; 'I' for Inactive)
REMARK    1  A    between atoms: C_1  and  O_2
REMARK    2  A    between atoms: O_2  and  C_3
REMARK    3  A    between atoms: C_7  and  C_8
REMARK    4  A    between atoms: C_9  and  C_10
REMARK    5  A    between atoms: N_12  and  C_13
REMARK    6  A    between atoms: C_13  and  C_14
REMARK    7  A    between atoms: C_13  and  C_15
REMARK    8  A    between atoms: C_13  and  C_16
REMARK    9  A    between atoms: N_18  and  C_19
REMARK   10  A    between atoms: C_19  and  C_20
REMARK   11  A    between atoms: C_20  and  C_21
REMARK                            x       y       z     vdW  Elec       q    Type
REMARK                         _______ _______ _______ _____ _____    ______ ____
ROOT
ATOM      1  C   UNL     1       5.193   5.870  17.201  0.00  0.00    +0.000 C 
ATOM      2  C   UNL     1       5.191   6.078  15.676  0.00  0.00    +0.000 C 
ATOM      3  C   UNL     1       5.692   4.464  17.582  0.00  0.00    +0.000 C 
ENDROOT
BRANCH   1   6
ATOM      4  C   UNL     1       7.349   7.213  17.335  0.00  0.00    +0.000 C 
ATOM      5  O   UNL     1       7.834   6.693  16.336  0.00  0.00    +0.000 OA
ATOM      6  N   UNL     1       6.094   6.896  17.834  0.00  0.00    +0.000 N 
ATOM      7  H   UNL     1       5.750   7.322  18.688  0.00  0.00    +0.000 HD
BRANCH   4   9
ATOM      8  C   UNL     1       8.162   9.527  17.647  0.00  0.00    +0.000 C 
ATOM      9  C   UNL     1       8.125   8.250  18.089  0.00  0.00    +0.000 C 
BRANCH   8  14
ATOM     10  C   UNL     1       9.196  13.078  18.591  0.00  0.00    +0.000 A 
ATOM     11  C   UNL     1      10.235  12.824  19.500  0.00  0.00    +0.000 A 
ATOM     12  C   UNL     1      10.580  11.511  19.806  0.00  0.00    +0.000 A 
ATOM     13  C   UNL     1       9.886  10.446  19.209  0.00  0.00    +0.000 A 
ATOM     14  C   UNL     1       8.832  10.679  18.299  0.00  0.00    +0.000 A 
ATOM     15  C   UNL     1       8.515  12.007  17.978  0.00  0.00    +0.000 A 
BRANCH  10  17
ATOM     16  C   UNL     1       7.656  14.772  17.955  0.00  0.00    +0.000 C 
ATOM     17  O   UNL     1       8.975  14.412  18.343  0.00  0.00    +0.000 OA
ENDBRANCH  10  17
ENDBRANCH   8  14
ENDBRANCH   4   9
ENDBRANCH   1   6
BRANCH   1  18
ATOM     18  C   UNL     1       3.681   5.950  17.704  0.00  0.00    +0.000 C 
ATOM     19  O   UNL     1       2.902   4.996  17.564  0.00  0.00    +0.000 OA
ATOM     20  N   UNL     1       3.306   7.176  18.273  0.00  0.00    +0.000 N 
ATOM     21  H   UNL     1       4.019   7.900  18.378  0.00  0.00    +0.000 HD
BRANCH  20  22
ATOM     22  C   UNL     1       1.938   7.611  18.564  0.00  0.00    +0.000 C 
BRANCH  22  23
ATOM     23  C   UNL     1       1.536   9.040  18.166  0.00  0.00    +0.000 C 
BRANCH  23  24
ATOM     24  C   UNL     1       0.735   9.897  19.113  0.00  0.00    +0.000 A 
ATOM     25  C   UNL     1       0.198  11.109  18.707  0.00  0.00    +0.000 A 
ATOM     26  N   UNL     1       0.273  11.882  19.828  0.00  0.00    +0.000 N 
ATOM     27  C   UNL     1      -0.066  11.091  20.887  0.00  0.00    +0.000 A 
ATOM     28  C   UNL     1      -0.624  11.440  22.121  0.00  0.00    +0.000 A 
ATOM     29  C   UNL     1      -0.837  10.402  23.020  0.00  0.00    +0.000 A 
ATOM     30  C   UNL     1      -0.378   9.115  22.735  0.00  0.00    +0.000 A 
ATOM     31  C   UNL     1       0.264   8.809  21.512  0.00  0.00    +0.000 A 
ATOM     32  C   UNL     1       0.343   9.802  20.510  0.00  0.00    +0.000 A 
ATOM     33  H   UNL     1       0.724  12.784  19.897  0.00  0.00    +0.000 HD
ENDBRANCH  23  24
ENDBRANCH  22  23
ENDBRANCH  20  22
ENDBRANCH   1  18
TORSDOF 8
ENDMDL
MODEL 8
REMARK VINA RESULT:      -8.3      1.997      2.823
REMARK  Name = 
REMARK  11 active torsions:
REMARK  status: ('A' for Active; 'I' for Inactive)
REMARK    1  A    between atoms: C_1  and  O_2
REMARK    2  A    between atoms: O_2  and  C_3
REMARK    3  A    between atoms: C_7  and  C_8
REMARK    4  A    between atoms: C_9  and  C_10
REMARK    5  A    between atoms: N_12  and  C_13
REMARK    6  A    between atoms: C_13  and  C_14
REMARK    7  A    between atoms: C_13  and  C_15
REMARK    8  A    between atoms: C_13  and  C_16
REMARK    9  A    between atoms: N_18  and  C_19
REMARK   10  A    between atoms: C_19  and  C_20
REMARK   11  A    between atoms: C_20  and  C_21
REMARK                            x       y       z     vdW  Elec       q    Type
REMARK                         _______ _______ _______ _____ _____    ______ ____
ROOT
ATOM      1  C   UNL     1       1.823   3.286  20.322  0.00  0.00    +0.000 C 
ATOM      2  C   UNL     1       2.004   2.831  21.781  0.00  0.00    +0.000 C 
ATOM      3  C   UNL     1       0.708   2.493  19.615  0.00  0.00    +0.000 C 
ENDROOT
BRANCH   1   6
ATOM      4  C   UNL     1       2.408   5.754  20.138  0.00  0.00    +0.000 C 
ATOM      5  O   UNL     1       3.607   5.545  19.985  0.00  0.00    +0.000 OA
ATOM      6  N   UNL     1       1.468   4.748  20.305  0.00  0.00    +0.000 N 
ATOM      7  H   UNL     1       0.491   4.970  20.471  0.00  0.00    +0.000 HD
BRANCH   4   9
ATOM      8  C   UNL     1       1.148   7.601  21.195  0.00  0.00    +0.000 C 
ATOM      9  C   UNL     1       1.891   7.161  20.155  0.00  0.00    +0.000 C 
BRANCH   8  14
ATOM     10  C   UNL     1       0.506  11.346  20.833  0.00  0.00    +0.000 A 
ATOM     11  C   UNL     1      -0.370  11.574  21.906  0.00  0.00    +0.000 A 
ATOM     12  C   UNL     1      -0.753  10.515  22.723  0.00  0.00    +0.000 A 
ATOM     13  C   UNL     1      -0.265   9.222  22.471  0.00  0.00    +0.000 A 
ATOM     14  C   UNL     1       0.610   8.969  21.393  0.00  0.00    +0.000 A 
ATOM     15  C   UNL     1       1.010  10.052  20.595  0.00  0.00    +0.000 A 
BRANCH  10  17
ATOM     16  C   UNL     1       0.548  12.456  18.733  0.00  0.00    +0.000 C 
ATOM     17  O   UNL     1       0.838  12.476  20.124  0.00  0.00    +0.000 OA
ENDBRANCH  10  17
ENDBRANCH   8  14
ENDBRANCH   4   9
ENDBRANCH   1   6
BRANCH   1  18
ATOM     18  C   UNL     1       3.168   2.945  19.536  0.00  0.00    +0.000 C 
ATOM     19  O   UNL     1       4.216   2.669  20.137  0.00  0.00    +0.000 OA
ATOM     20  N   UNL     1       3.077   3.018  18.137  0.00  0.00    +0.000 N 
ATOM     21  H   UNL     1       2.167   3.223  17.722  0.00  0.00    +0.000 HD
BRANCH  20  22
ATOM     22  C   UNL     1       4.201   3.022  17.198  0.00  0.00    +0.000 C 
BRANCH  22  23
ATOM     23  C   UNL     1       4.342   4.224  16.250  0.00  0.00    +0.000 C 
BRANCH  23  24
ATOM     24  C   UNL     1       5.115   5.445  16.679  0.00  0.00    +0.000 A 
ATOM     25  C   UNL     1       4.781   6.708  16.215  0.00  0.00    +0.000 A 
ATOM     26  N   UNL     1       5.984   7.341  16.120  0.00  0.00    +0.000 N 
ATOM     27  C   UNL     1       6.717   6.981  17.214  0.00  0.00    +0.000 A 
ATOM     28  C   UNL     1       7.745   7.669  17.867  0.00  0.00    +0.000 A 
ATOM     29  C   UNL     1       8.325   7.028  18.954  0.00  0.00    +0.000 A 
ATOM     30  C   UNL     1       7.979   5.712  19.266  0.00  0.00    +0.000 A 
ATOM     31  C   UNL     1       6.997   5.008  18.531  0.00  0.00    +0.000 A 
ATOM     32  C   UNL     1       6.269   5.689  17.529  0.00  0.00    +0.000 A 
ATOM     33  H   UNL     1       6.356   7.788  15.293  0.00  0.00    +0.000 HD
ENDBRANCH  23  24
ENDBRANCH  22  23
ENDBRANCH  20  22
ENDBRANCH   1  18
TORSDOF 8
ENDMDL
MODEL 9
REMARK VINA RESULT:      -8.3      5.057      8.470
REMARK  Name = 
REMARK  11 active torsions:
REMARK  status: ('A' for Active; 'I' for Inactive)
REMARK    1  A    between atoms: C_1  and  O_2
REMARK    2  A    between atoms: O_2  and  C_3
REMARK    3  A    between atoms: C_7  and  C_8
REMARK    4  A    between atoms: C_9  and  C_10
REMARK    5  A    between atoms: N_12  and  C_13
REMARK    6  A    between atoms: C_13  and  C_14
REMARK    7  A    between atoms: C_13  and  C_15
REMARK    8  A    between atoms: C_13  and  C_16
REMARK    9  A    between atoms: N_18  and  C_19
REMARK   10  A    between atoms: C_19  and  C_20
REMARK   11  A    between atoms: C_20  and  C_21
REMARK                            x       y       z     vdW  Elec       q    Type
REMARK                         _______ _______ _______ _____ _____    ______ ____
ROOT
ATOM      1  C   UNL     1       6.380   5.861  16.721  0.00  0.00    +0.000 C 
ATOM      2  C   UNL     1       5.133   5.887  15.819  0.00  0.00    +0.000 C 
ATOM      3  C   UNL     1       7.509   5.015  16.105  0.00  0.00    +0.000 C 
ENDROOT
BRANCH   1   6
ATOM      4  C   UNL     1       7.767   7.631  17.911  0.00  0.00    +0.000 C 
ATOM      5  O   UNL     1       8.237   6.838  18.721  0.00  0.00    +0.000 OA
ATOM      6  N   UNL     1       6.874   7.270  16.913  0.00  0.00    +0.000 N 
ATOM      7  H   UNL     1       6.478   7.968  16.291  0.00  0.00    +0.000 HD
BRANCH   4   9
ATOM      8  C   UNL     1       9.107   9.491  18.834  0.00  0.00    +0.000 C 
ATOM      9  C   UNL     1       8.151   9.077  17.973  0.00  0.00    +0.000 C 
BRANCH   8  14
ATOM     10  C   UNL     1       9.900  12.959  20.220  0.00  0.00    +0.000 A 
ATOM     11  C   UNL     1      10.594  13.528  19.141  0.00  0.00    +0.000 A 
ATOM     12  C   UNL     1      10.807  12.783  17.985  0.00  0.00    +0.000 A 
ATOM     13  C   UNL     1      10.333  11.463  17.904  0.00  0.00    +0.000 A 
ATOM     14  C   UNL     1       9.642  10.868  18.981  0.00  0.00    +0.000 A 
ATOM     15  C   UNL     1       9.408  11.642  20.128  0.00  0.00    +0.000 A 
BRANCH  10  17
ATOM     16  C   UNL     1       8.376  14.099  21.642  0.00  0.00    +0.000 C 
ATOM     17  O   UNL     1       9.720  13.806  21.288  0.00  0.00    +0.000 OA
ENDBRANCH  10  17
ENDBRANCH   8  14
ENDBRANCH   4   9
ENDBRANCH   1   6
BRANCH   1  18
ATOM     18  C   UNL     1       5.980   5.133  18.083  0.00  0.00    +0.000 C 
ATOM     19  O   UNL     1       6.627   4.169  18.514  0.00  0.00    +0.000 OA
ATOM     20  N   UNL     1       4.836   5.641  18.717  0.00  0.00    +0.000 N 
ATOM     21  H   UNL     1       4.379   6.458  18.310  0.00  0.00    +0.000 HD
BRANCH  20  22
ATOM     22  C   UNL     1       4.101   5.004  19.813  0.00  0.00    +0.000 C 
BRANCH  22  23
ATOM     23  C   UNL     1       2.687   5.520  20.126  0.00  0.00    +0.000 C 
BRANCH  23  24
ATOM     24  C   UNL     1       2.181   6.789  19.490  0.00  0.00    +0.000 A 
ATOM     25  C   UNL     1       2.202   6.963  18.115  0.00  0.00    +0.000 A 
ATOM     26  N   UNL     1       2.447   8.296  17.966  0.00  0.00    +0.000 N 
ATOM     27  C   UNL     1       1.715   8.949  18.914  0.00  0.00    +0.000 A 
ATOM     28  C   UNL     1       1.204  10.252  18.909  0.00  0.00    +0.000 A 
ATOM     29  C   UNL     1       0.508  10.647  20.045  0.00  0.00    +0.000 A 
ATOM     30  C   UNL     1       0.462   9.821  21.169  0.00  0.00    +0.000 A 
ATOM     31  C   UNL     1       1.066   8.542  21.177  0.00  0.00    +0.000 A 
ATOM     32  C   UNL     1       1.632   8.043  19.983  0.00  0.00    +0.000 A 
ATOM     33  H   UNL     1       3.201   8.705  17.431  0.00  0.00    +0.000 HD
ENDBRANCH  23  24
ENDBRANCH  22  23
ENDBRANCH  20  22
ENDBRANCH   1  18
TORSDOF 8
ENDMDL
