MODEL 1
REMARK VINA RESULT:      -8.2      0.000      0.000
REMARK  Name = 
REMARK  5 active torsions:
REMARK  status: ('A' for Active; 'I' for Inactive)
REMARK    1  A    between atoms: C_1  and  O_2
REMARK    2  A    between atoms: O_2  and  C_3
REMARK    3  A    between atoms: C_6  and  C_7
REMARK    4  A    between atoms: C_9  and  C_10
REMARK    5  A    between atoms: C_13  and  C_14
REMARK                            x       y       z     vdW  Elec       q    Type
REMARK                         _______ _______ _______ _____ _____    ______ ____
ROOT
ATOM      1  C   UNL     1       2.471   4.378  18.450  0.00  0.00    +0.000 C 
ATOM      2  C   UNL     1       1.823   5.777  18.487  0.00  0.00    +0.000 C 
ATOM      3  C   UNL     1       2.327   6.557  19.716  0.00  0.00    +0.000 C 
ATOM      4  N   UNL     1       1.988   5.809  20.922  0.00  0.00    +0.000 N 
ATOM      5  C   UNL     1       2.270   4.489  20.945  0.00  0.00    +0.000 A 
ATOM      6  N   UNL     1       2.412   3.678  21.962  0.00  0.00    +0.000 NA
ATOM      7  C   UNL     1       2.683   2.474  21.363  0.00  0.00    +0.000 A 
ATOM      8  N   UNL     1       2.715   2.485  20.025  0.00  0.00    +0.000 NA
ATOM      9  N   UNL     1       2.471   3.786  19.783  0.00  0.00    +0.000 N 
ATOM     10  H   UNL     1       2.098   6.311  21.800  0.00  0.00    +0.000 HD
ENDROOT
BRANCH   3  11
ATOM     11  C   UNL     1       1.773   7.962  19.788  0.00  0.00    +0.000 A 
ATOM     12  C   UNL     1       1.229   8.491  20.968  0.00  0.00    +0.000 A 
ATOM     13  C   UNL     1       0.692   9.781  20.987  0.00  0.00    +0.000 A 
ATOM     14  C   UNL     1       0.694  10.571  19.832  0.00  0.00    +0.000 A 
ATOM     15  C   UNL     1       0.109  11.952  19.833  0.00  0.00    +0.000 C 
ATOM     16  C   UNL     1       1.255  10.056  18.660  0.00  0.00    +0.000 A 
ATOM     17  C   UNL     1       1.788   8.767  18.639  0.00  0.00    +0.000 A 
ENDBRANCH   3  11
BRANCH   1  21
ATOM     18  C   UNL     1       6.477   4.505  16.758  0.00  0.00    +0.000 A 
ATOM     19  C   UNL     1       5.406   4.096  15.967  0.00  0.00    +0.000 A 
ATOM     20  C   UNL     1       4.110   4.061  16.488  0.00  0.00    +0.000 A 
ATOM     21  C   UNL     1       3.863   4.411  17.825  0.00  0.00    +0.000 A 
ATOM     22  C   UNL     1       4.959   4.777  18.625  0.00  0.00    +0.000 A 
ATOM     23  C   UNL     1       6.253   4.830  18.095  0.00  0.00    +0.000 A 
BRANCH  18  25
ATOM     24  C   UNL     1       7.687   4.887  14.771  0.00  0.00    +0.000 C 
ATOM     25  O   UNL     1       7.699   4.507  16.144  0.00  0.00    +0.000 OA
ENDBRANCH  18  25
ENDBRANCH   1  21
TORSDOF 3
ENDMDL
MODEL 2
REMARK VINA RESULT:      -8.1      1.199      1.580
REMARK  Name = 
REMARK  5 active torsions:
REMARK  status: ('A' for Active; 'I' for Inactive)
REMARK    1  A    between atoms: C_1  and  O_2
REMARK    2  A    between atoms: O_2  and  C_3
REMARK    3  A    between atoms: C_6  and  C_7
REMARK    4  A    between atoms: C_9  and  C_10
REMARK    5  A    between atoms: C_13  and  C_14
REMARK                            x       y       z     vdW  Elec       q    Type
REMARK                         _______ _______ _______ _____ _____    ______ ____
ROOT
ATOM      1  C   UNL     1       3.148   4.269  17.561  0.00  0.00    +0.000 C 
ATOM      2  C   UNL     1       2.318   5.531  17.871  0.00  0.00    +0.000 C 
ATOM      3  C   UNL     1       2.872   6.229  19.128  0.00  0.00    +0.000 C 
ATOM      4  N   UNL     1       2.817   5.297  20.249  0.00  0.00    +0.000 N 
ATOM      5  C   UNL     1       3.286   4.046  20.053  0.00  0.00    +0.000 A 
ATOM      6  N   UNL     1       3.684   3.152  20.922  0.00  0.00    +0.000 NA
ATOM      7  C   UNL     1       4.038   2.089  20.132  0.00  0.00    +0.000 A 
ATOM      8  N   UNL     1       3.880   2.265  18.815  0.00  0.00    +0.000 NA
ATOM      9  N   UNL     1       3.421   3.530  18.789  0.00  0.00    +0.000 N 
ATOM     10  H   UNL     1       2.976   5.701  21.169  0.00  0.00    +0.000 HD
ENDROOT
BRANCH   3  11
ATOM     11  C   UNL     1       2.138   7.508  19.463  0.00  0.00    +0.000 A 
ATOM     12  C   UNL     1       1.595   7.748  20.733  0.00  0.00    +0.000 A 
ATOM     13  C   UNL     1       0.890   8.925  20.995  0.00  0.00    +0.000 A 
ATOM     14  C   UNL     1       0.720   9.890  19.996  0.00  0.00    +0.000 A 
ATOM     15  C   UNL     1      -0.046  11.154  20.257  0.00  0.00    +0.000 C 
ATOM     16  C   UNL     1       1.279   9.666  18.735  0.00  0.00    +0.000 A 
ATOM     17  C   UNL     1       1.980   8.489  18.471  0.00  0.00    +0.000 A 
ENDBRANCH   3  11
BRANCH   1  21
ATOM     18  C   UNL     1       6.757   5.132  15.291  0.00  0.00    +0.000 A 
ATOM     19  C   UNL     1       6.382   5.973  16.335  0.00  0.00    +0.000 A 
ATOM     20  C   UNL     1       5.234   5.706  17.085  0.00  0.00    +0.000 A 
ATOM     21  C   UNL     1       4.420   4.601  16.785  0.00  0.00    +0.000 A 
ATOM     22  C   UNL     1       4.786   3.788  15.699  0.00  0.00    +0.000 A 
ATOM     23  C   UNL     1       5.947   4.046  14.963  0.00  0.00    +0.000 A 
BRANCH  18  25
ATOM     24  C   UNL     1       7.900   5.224  13.230  0.00  0.00    +0.000 C 
ATOM     25  O   UNL     1       7.902   5.485  14.630  0.00  0.00    +0.000 OA
ENDBRANCH  18  25
ENDBRANCH   1  21
TORSDOF 3
ENDMDL
MODEL 3
REMARK VINA RESULT:      -8.0      0.807      1.267
REMARK  Name = 
REMARK  5 active torsions:
REMARK  status: ('A' for Active; 'I' for Inactive)
REMARK    1  A    between atoms: C_1  and  O_2
REMARK    2  A    between atoms: O_2  and  C_3
REMARK    3  A    between atoms: C_6  and  C_7
REMARK    4  A    between atoms: C_9  and  C_10
REMARK    5  A    between atoms: C_13  and  C_14
REMARK                            x       y       z     vdW  Elec       q    Type
REMARK                         _______ _______ _______ _____ _____    ______ ____
ROOT
ATOM      1  C   UNL     1       2.404   4.757  18.135  0.00  0.00    +0.000 C 
ATOM      2  C   UNL     1       1.713   6.114  18.378  0.00  0.00    +0.000 C 
ATOM      3  C   UNL     1       2.289   6.777  19.644  0.00  0.00    +0.000 C 
ATOM      4  N   UNL     1       2.078   5.888  20.781  0.00  0.00    +0.000 N 
ATOM      5  C   UNL     1       2.407   4.587  20.635  0.00  0.00    +0.000 A 
ATOM      6  N   UNL     1       2.661   3.678  21.540  0.00  0.00    +0.000 NA
ATOM      7  C   UNL     1       2.924   2.560  20.791  0.00  0.00    +0.000 A 
ATOM      8  N   UNL     1       2.844   2.717  19.464  0.00  0.00    +0.000 NA
ATOM      9  N   UNL     1       2.536   4.025  19.390  0.00  0.00    +0.000 N 
ATOM     10  H   UNL     1       2.243   6.297  21.698  0.00  0.00    +0.000 HD
ENDROOT
BRANCH   3  11
ATOM     11  C   UNL     1       1.694   8.141  19.916  0.00  0.00    +0.000 A 
ATOM     12  C   UNL     1       1.546   9.105  18.908  0.00  0.00    +0.000 A 
ATOM     13  C   UNL     1       1.027  10.369  19.204  0.00  0.00    +0.000 A 
ATOM     14  C   UNL     1       0.639  10.691  20.510  0.00  0.00    +0.000 A 
ATOM     15  C   UNL     1       0.093  12.048  20.846  0.00  0.00    +0.000 C 
ATOM     16  C   UNL     1       0.764   9.725  21.512  0.00  0.00    +0.000 A 
ATOM     17  C   UNL     1       1.285   8.465  21.218  0.00  0.00    +0.000 A 
ENDBRANCH   3  11
BRANCH   1  21
ATOM     18  C   UNL     1       6.211   5.315  16.104  0.00  0.00    +0.000 A 
ATOM     19  C   UNL     1       5.564   4.083  16.032  0.00  0.00    +0.000 A 
ATOM     20  C   UNL     1       4.335   3.888  16.666  0.00  0.00    +0.000 A 
ATOM     21  C   UNL     1       3.739   4.920  17.410  0.00  0.00    +0.000 A 
ATOM     22  C   UNL     1       4.424   6.141  17.513  0.00  0.00    +0.000 A 
ATOM     23  C   UNL     1       5.645   6.340  16.860  0.00  0.00    +0.000 A 
BRANCH  18  25
ATOM     24  C   UNL     1       7.365   5.005  14.071  0.00  0.00    +0.000 C 
ATOM     25  O   UNL     1       7.404   5.395  15.440  0.00  0.00    +0.000 OA
ENDBRANCH  18  25
ENDBRANCH   1  21
TORSDOF 3
ENDMDL
MODEL 4
REMARK VINA RESULT:      -8.0      1.209      1.756
REMARK  Name = 
REMARK  5 active torsions:
REMARK  status: ('A' for Active; 'I' for Inactive)
REMARK    1  A    between atoms: C_1  and  O_2
REMARK    2  A    between atoms: O_2  and  C_3
REMARK    3  A    between atoms: C_6  and  C_7
REMARK    4  A    between atoms: C_9  and  C_10
REMARK    5  A    between atoms: C_13  and  C_14
REMARK                            x       y       z     vdW  Elec       q    Type
REMARK                         _______ _______ _______ _____ _____    ______ ____
ROOT
ATOM      1  C   UNL     1       3.012   4.330  17.576  0.00  0.00    +0.000 C 
ATOM      2  C   UNL     1       2.198   5.603  17.884  0.00  0.00    +0.000 C 
ATOM      3  C   UNL     1       2.763   6.297  19.138  0.00  0.00    +0.000 C 
ATOM      4  N   UNL     1       2.697   5.369  20.262  0.00  0.00    +0.000 N 
ATOM      5  C   UNL     1       3.150   4.112  20.069  0.00  0.00    +0.000 A 
ATOM      6  N   UNL     1       3.537   3.215  20.940  0.00  0.00    +0.000 NA
ATOM      7  C   UNL     1       3.877   2.145  20.152  0.00  0.00    +0.000 A 
ATOM      8  N   UNL     1       3.720   2.320  18.835  0.00  0.00    +0.000 NA
ATOM      9  N   UNL     1       3.277   3.590  18.806  0.00  0.00    +0.000 N 
ATOM     10  H   UNL     1       2.862   5.774  21.180  0.00  0.00    +0.000 HD
ENDROOT
BRANCH   3  11
ATOM     11  C   UNL     1       2.045   7.586  19.470  0.00  0.00    +0.000 A 
ATOM     12  C   UNL     1       1.856   8.601  18.520  0.00  0.00    +0.000 A 
ATOM     13  C   UNL     1       1.223   9.796  18.873  0.00  0.00    +0.000 A 
ATOM     14  C   UNL     1       0.759   9.997  20.177  0.00  0.00    +0.000 A 
ATOM     15  C   UNL     1       0.088  11.279  20.575  0.00  0.00    +0.000 C 
ATOM     16  C   UNL     1       0.925   8.980  21.121  0.00  0.00    +0.000 A 
ATOM     17  C   UNL     1       1.561   7.788  20.771  0.00  0.00    +0.000 A 
ENDBRANCH   3  11
BRANCH   1  21
ATOM     18  C   UNL     1       6.656   5.123  15.337  0.00  0.00    +0.000 A 
ATOM     19  C   UNL     1       5.967   6.178  15.929  0.00  0.00    +0.000 A 
ATOM     20  C   UNL     1       4.802   5.943  16.663  0.00  0.00    +0.000 A 
ATOM     21  C   UNL     1       4.287   4.643  16.798  0.00  0.00    +0.000 A 
ATOM     22  C   UNL     1       4.968   3.594  16.156  0.00  0.00    +0.000 A 
ATOM     23  C   UNL     1       6.145   3.830  15.438  0.00  0.00    +0.000 A 
BRANCH  18  25
ATOM     24  C   UNL     1       7.757   5.186  13.252  0.00  0.00    +0.000 C 
ATOM     25  O   UNL     1       7.787   5.468  14.648  0.00  0.00    +0.000 OA
ENDBRANCH  18  25
ENDBRANCH   1  21
TORSDOF 3
ENDMDL
MODEL 5
REMARK VINA RESULT:      -7.8      2.483      6.578
REMARK  Name = 
REMARK  5 active torsions:
REMARK  status: ('A' for Active; 'I' for Inactive)
REMARK    1  A    between atoms: C_1  and  O_2
REMARK    2  A    between atoms: O_2  and  C_3
REMARK    3  A    between atoms: C_6  and  C_7
REMARK    4  A    between atoms: C_9  and  C_10
REMARK    5  A    between atoms: C_13  and  C_14
REMARK                            x       y       z     vdW  Elec       q    Type
REMARK                         _______ _______ _______ _____ _____    ______ ____
ROOT
ATOM      1  C   UNL     1       3.122   5.456  19.673  0.00  0.00    +0.000 C 
ATOM      2  C   UNL     1       4.319   5.388  18.703  0.00  0.00    +0.000 C 
ATOM      3  C   UNL     1       3.826   5.045  17.285  0.00  0.00    +0.000 C 
ATOM      4  N   UNL     1       3.130   3.763  17.323  0.00  0.00    +0.000 N 
ATOM      5  C   UNL     1       2.212   3.573  18.294  0.00  0.00    +0.000 A 
ATOM      6  N   UNL     1       1.222   2.720  18.358  0.00  0.00    +0.000 NA
ATOM      7  C   UNL     1       0.651   2.999  19.573  0.00  0.00    +0.000 A 
ATOM      8  N   UNL     1       1.231   3.978  20.277  0.00  0.00    +0.000 NA
ATOM      9  N   UNL     1       2.210   4.344  19.429  0.00  0.00    +0.000 N 
ATOM     10  H   UNL     1       2.928   3.342  16.419  0.00  0.00    +0.000 HD
ENDROOT
BRANCH   3  11
ATOM     11  C   UNL     1       4.943   5.014  16.265  0.00  0.00    +0.000 A 
ATOM     12  C   UNL     1       6.132   5.738  16.438  0.00  0.00    +0.000 A 
ATOM     13  C   UNL     1       7.127   5.716  15.457  0.00  0.00    +0.000 A 
ATOM     14  C   UNL     1       6.957   4.966  14.288  0.00  0.00    +0.000 A 
ATOM     15  C   UNL     1       8.010   4.943  13.219  0.00  0.00    +0.000 C 
ATOM     16  C   UNL     1       5.784   4.225  14.122  0.00  0.00    +0.000 A 
ATOM     17  C   UNL     1       4.788   4.249  15.099  0.00  0.00    +0.000 A 
ENDBRANCH   3  11
BRANCH   1  21
ATOM     18  C   UNL     1       1.091   9.303  19.611  0.00  0.00    +0.000 A 
ATOM     19  C   UNL     1       1.764   8.859  18.475  0.00  0.00    +0.000 A 
ATOM     20  C   UNL     1       2.411   7.621  18.471  0.00  0.00    +0.000 A 
ATOM     21  C   UNL     1       2.420   6.810  19.618  0.00  0.00    +0.000 A 
ATOM     22  C   UNL     1       1.777   7.291  20.771  0.00  0.00    +0.000 A 
ATOM     23  C   UNL     1       1.113   8.523  20.766  0.00  0.00    +0.000 A 
BRANCH  18  25
ATOM     24  C   UNL     1      -0.708  10.545  18.728  0.00  0.00    +0.000 C 
ATOM     25  O   UNL     1       0.488  10.526  19.501  0.00  0.00    +0.000 OA
ENDBRANCH  18  25
ENDBRANCH   1  21
TORSDOF 3
ENDMDL
MODEL 6
REMARK VINA RESULT:      -7.8      2.504      6.597
REMARK  Name = 
REMARK  5 active torsions:
REMARK  status: ('A' for Active; 'I' for Inactive)
REMARK    1  A    between atoms: C_1  and  O_2
REMARK    2  A    between atoms: O_2  and  C_3
REMARK    3  A    between atoms: C_6  and  C_7
REMARK    4  A    between atoms: C_9  and  C_10
REMARK    5  A    between atoms: C_13  and  C_14
REMARK                            x       y       z     vdW  Elec       q    Type
REMARK                         _______ _______ _______ _____ _____    ______ ____
ROOT
ATOM      1  C   UNL     1       3.057   5.810  19.896  0.00  0.00    +0.000 C 
ATOM      2  C   UNL     1       4.186   5.671  18.854  0.00  0.00    +0.000 C 
ATOM      3  C   UNL     1       3.609   5.159  17.520  0.00  0.00    +0.000 C 
ATOM      4  N   UNL     1       2.965   3.870  17.747  0.00  0.00    +0.000 N 
ATOM      5  C   UNL     1       2.124   3.760  18.797  0.00  0.00    +0.000 A 
ATOM      6  N   UNL     1       1.173   2.891  19.025  0.00  0.00    +0.000 NA
ATOM      7  C   UNL     1       0.678   3.285  20.241  0.00  0.00    +0.000 A 
ATOM      8  N   UNL     1       1.269   4.352  20.791  0.00  0.00    +0.000 NA
ATOM      9  N   UNL     1       2.172   4.651  19.839  0.00  0.00    +0.000 N 
ATOM     10  H   UNL     1       2.717   3.346  16.911  0.00  0.00    +0.000 HD
ENDROOT
BRANCH   3  11
ATOM     11  C   UNL     1       4.653   5.050  16.431  0.00  0.00    +0.000 A 
ATOM     12  C   UNL     1       5.129   3.812  15.975  0.00  0.00    +0.000 A 
ATOM     13  C   UNL     1       6.123   3.750  14.994  0.00  0.00    +0.000 A 
ATOM     14  C   UNL     1       6.654   4.922  14.444  0.00  0.00    +0.000 A 
ATOM     15  C   UNL     1       7.729   4.872  13.400  0.00  0.00    +0.000 C 
ATOM     16  C   UNL     1       6.165   6.157  14.879  0.00  0.00    +0.000 A 
ATOM     17  C   UNL     1       5.177   6.220  15.862  0.00  0.00    +0.000 A 
ENDBRANCH   3  11
BRANCH   1  21
ATOM     18  C   UNL     1       0.940   9.574  19.375  0.00  0.00    +0.000 A 
ATOM     19  C   UNL     1       0.880   8.913  20.599  0.00  0.00    +0.000 A 
ATOM     20  C   UNL     1       1.564   7.710  20.790  0.00  0.00    +0.000 A 
ATOM     21  C   UNL     1       2.303   7.129  19.746  0.00  0.00    +0.000 A 
ATOM     22  C   UNL     1       2.315   7.783  18.503  0.00  0.00    +0.000 A 
ATOM     23  C   UNL     1       1.646   8.998  18.321  0.00  0.00    +0.000 A 
BRANCH  18  25
ATOM     24  C   UNL     1      -1.072  10.637  18.753  0.00  0.00    +0.000 C 
ATOM     25  O   UNL     1       0.238  10.746  19.302  0.00  0.00    +0.000 OA
ENDBRANCH  18  25
ENDBRANCH   1  21
TORSDOF 3
ENDMDL
MODEL 7
REMARK VINA RESULT:      -7.7      2.451      6.641
REMARK  Name = 
REMARK  5 active torsions:
REMARK  status: ('A' for Active; 'I' for Inactive)
REMARK    1  A    between atoms: C_1  and  O_2
REMARK    2  A    between atoms: O_2  and  C_3
REMARK    3  A    between atoms: C_6  and  C_7
REMARK    4  A    between atoms: C_9  and  C_10
REMARK    5  A    between atoms: C_13  and  C_14
REMARK                            x       y       z     vdW  Elec       q    Type
REMARK                         _______ _______ _______ _____ _____    ______ ____
ROOT
ATOM      1  C   UNL     1       3.154   5.325  19.664  0.00  0.00    +0.000 C 
ATOM      2  C   UNL     1       4.348   5.278  18.688  0.00  0.00    +0.000 C 
ATOM      3  C   UNL     1       3.848   4.990  17.260  0.00  0.00    +0.000 C 
ATOM      4  N   UNL     1       3.138   3.716  17.255  0.00  0.00    +0.000 N 
ATOM      5  C   UNL     1       2.219   3.501  18.221  0.00  0.00    +0.000 A 
ATOM      6  N   UNL     1       1.220   2.657  18.258  0.00  0.00    +0.000 NA
ATOM      7  C   UNL     1       0.656   2.900  19.484  0.00  0.00    +0.000 A 
ATOM      8  N   UNL     1       1.248   3.848  20.220  0.00  0.00    +0.000 NA
ATOM      9  N   UNL     1       2.229   4.232  19.383  0.00  0.00    +0.000 N 
ATOM     10  H   UNL     1       2.929   3.329  16.338  0.00  0.00    +0.000 HD
ENDROOT
BRANCH   3  11
ATOM     11  C   UNL     1       4.962   4.983  16.237  0.00  0.00    +0.000 A 
ATOM     12  C   UNL     1       6.118   5.764  16.387  0.00  0.00    +0.000 A 
ATOM     13  C   UNL     1       7.110   5.761  15.402  0.00  0.00    +0.000 A 
ATOM     14  C   UNL     1       6.970   4.974  14.254  0.00  0.00    +0.000 A 
ATOM     15  C   UNL     1       8.020   4.970  13.182  0.00  0.00    +0.000 C 
ATOM     16  C   UNL     1       5.831   4.177  14.112  0.00  0.00    +0.000 A 
ATOM     17  C   UNL     1       4.838   4.182  15.092  0.00  0.00    +0.000 A 
ENDBRANCH   3  11
BRANCH   1  21
ATOM     18  C   UNL     1       1.226   9.223  19.552  0.00  0.00    +0.000 A 
ATOM     19  C   UNL     1       1.153   8.450  20.708  0.00  0.00    +0.000 A 
ATOM     20  C   UNL     1       1.777   7.201  20.769  0.00  0.00    +0.000 A 
ATOM     21  C   UNL     1       2.467   6.688  19.658  0.00  0.00    +0.000 A 
ATOM     22  C   UNL     1       2.492   7.458  18.483  0.00  0.00    +0.000 A 
ATOM     23  C   UNL     1       1.883   8.717  18.432  0.00  0.00    +0.000 A 
BRANCH  18  25
ATOM     24  C   UNL     1       0.539  11.035  20.896  0.00  0.00    +0.000 C 
ATOM     25  O   UNL     1       0.585  10.430  19.607  0.00  0.00    +0.000 OA
ENDBRANCH  18  25
ENDBRANCH   1  21
TORSDOF 3
ENDMDL
MODEL 8
REMARK VINA RESULT:      -7.5      4.058      7.821
REMARK  Name = 
REMARK  5 active torsions:
REMARK  status: ('A' for Active; 'I' for Inactive)
REMARK    1  A    between atoms: C_1  and  O_2
REMARK    2  A    between atoms: O_2  and  C_3
REMARK    3  A    between atoms: C_6  and  C_7
REMARK    4  A    between atoms: C_9  and  C_10
REMARK    5  A    between atoms: C_13  and  C_14
REMARK                            x       y       z     vdW  Elec       q    Type
REMARK                         _______ _______ _______ _____ _____    ______ ____
ROOT
ATOM      1  C   UNL     1       0.368  10.834  19.748  0.00  0.00    +0.000 C 
ATOM      2  C   UNL     1       1.513   9.940  19.231  0.00  0.00    +0.000 C 
ATOM      3  C   UNL     1       1.260   8.476  19.636  0.00  0.00    +0.000 C 
ATOM      4  N   UNL     1       1.171   8.396  21.090  0.00  0.00    +0.000 N 
ATOM      5  C   UNL     1       0.387   9.293  21.725  0.00  0.00    +0.000 A 
ATOM      6  N   UNL     1      -0.150   9.245  22.916  0.00  0.00    +0.000 NA
ATOM      7  C   UNL     1      -0.826  10.435  22.999  0.00  0.00    +0.000 A 
ATOM      8  N   UNL     1      -0.739  11.230  21.926  0.00  0.00    +0.000 NA
ATOM      9  N   UNL     1       0.021  10.468  21.117  0.00  0.00    +0.000 N 
ATOM     10  H   UNL     1       1.197   7.459  21.484  0.00  0.00    +0.000 HD
ENDROOT
BRANCH   3  11
ATOM     11  C   UNL     1       2.319   7.530  19.114  0.00  0.00    +0.000 A 
ATOM     12  C   UNL     1       2.664   6.350  19.788  0.00  0.00    +0.000 A 
ATOM     13  C   UNL     1       3.674   5.519  19.297  0.00  0.00    +0.000 A 
ATOM     14  C   UNL     1       4.355   5.847  18.119  0.00  0.00    +0.000 A 
ATOM     15  C   UNL     1       5.451   4.972  17.585  0.00  0.00    +0.000 C 
ATOM     16  C   UNL     1       3.999   7.011  17.432  0.00  0.00    +0.000 A 
ATOM     17  C   UNL     1       2.993   7.843  17.924  0.00  0.00    +0.000 A 
ENDBRANCH   3  11
BRANCH   1  21
ATOM     18  C   UNL     1      -3.115  10.842  17.142  0.00  0.00    +0.000 A 
ATOM     19  C   UNL     1      -2.054   9.982  16.873  0.00  0.00    +0.000 A 
ATOM     20  C   UNL     1      -0.932   9.955  17.705  0.00  0.00    +0.000 A 
ATOM     21  C   UNL     1      -0.839  10.812  18.814  0.00  0.00    +0.000 A 
ATOM     22  C   UNL     1      -1.897  11.707  19.047  0.00  0.00    +0.000 A 
ATOM     23  C   UNL     1      -3.027  11.717  18.223  0.00  0.00    +0.000 A 
BRANCH  18  25
ATOM     24  C   UNL     1      -3.828  10.359  14.947  0.00  0.00    +0.000 C 
ATOM     25  O   UNL     1      -4.164  10.779  16.266  0.00  0.00    +0.000 OA
ENDBRANCH  18  25
ENDBRANCH   1  21
TORSDOF 3
ENDMDL
MODEL 9
REMARK VINA RESULT:      -7.4      4.077      8.056
REMARK  Name = 
REMARK  5 active torsions:
REMARK  status: ('A' for Active; 'I' for Inactive)
REMARK    1  A    between atoms: C_1  and  O_2
REMARK    2  A    between atoms: O_2  and  C_3
REMARK    3  A    between atoms: C_6  and  C_7
REMARK    4  A    between atoms: C_9  and  C_10
REMARK    5  A    between atoms: C_13  and  C_14
REMARK                            x       y       z     vdW  Elec       q    Type
REMARK                         _______ _______ _______ _____ _____    ______ ____
ROOT
ATOM      1  C   UNL     1       0.373  10.943  19.851  0.00  0.00    +0.000 C 
ATOM      2  C   UNL     1       1.485  10.050  19.264  0.00  0.00    +0.000 C 
ATOM      3  C   UNL     1       1.225   8.577  19.633  0.00  0.00    +0.000 C 
ATOM      4  N   UNL     1       1.187   8.453  21.086  0.00  0.00    +0.000 N 
ATOM      5  C   UNL     1       0.440   9.341  21.776  0.00  0.00    +0.000 A 
ATOM      6  N   UNL     1      -0.054   9.263  22.985  0.00  0.00    +0.000 NA
ATOM      7  C   UNL     1      -0.708  10.459  23.129  0.00  0.00    +0.000 A 
ATOM      8  N   UNL     1      -0.648  11.285  22.079  0.00  0.00    +0.000 NA
ATOM      9  N   UNL     1       0.070  10.539  21.219  0.00  0.00    +0.000 N 
ATOM     10  H   UNL     1       1.213   7.503  21.449  0.00  0.00    +0.000 HD
ENDROOT
BRANCH   3  11
ATOM     11  C   UNL     1       2.250   7.634  19.044  0.00  0.00    +0.000 A 
ATOM     12  C   UNL     1       2.576   6.412  19.650  0.00  0.00    +0.000 A 
ATOM     13  C   UNL     1       3.556   5.583  19.098  0.00  0.00    +0.000 A 
ATOM     14  C   UNL     1       4.223   5.954  17.925  0.00  0.00    +0.000 A 
ATOM     15  C   UNL     1       5.287   5.081  17.327  0.00  0.00    +0.000 C 
ATOM     16  C   UNL     1       3.885   7.160  17.305  0.00  0.00    +0.000 A 
ATOM     17  C   UNL     1       2.910   7.990  17.858  0.00  0.00    +0.000 A 
ENDBRANCH   3  11
BRANCH   1  21
ATOM     18  C   UNL     1      -3.120  10.939  17.258  0.00  0.00    +0.000 A 
ATOM     19  C   UNL     1      -3.078  11.794  18.357  0.00  0.00    +0.000 A 
ATOM     20  C   UNL     1      -1.960  11.819  19.194  0.00  0.00    +0.000 A 
ATOM     21  C   UNL     1      -0.868  10.967  18.961  0.00  0.00    +0.000 A 
ATOM     22  C   UNL     1      -0.944  10.078  17.876  0.00  0.00    +0.000 A 
ATOM     23  C   UNL     1      -2.057  10.069  17.028  0.00  0.00    +0.000 A 
BRANCH  18  25
ATOM     24  C   UNL     1      -5.329  11.747  17.081  0.00  0.00    +0.000 C 
ATOM     25  O   UNL     1      -4.260  11.003  16.504  0.00  0.00    +0.000 OA
ENDBRANCH  18  25
ENDBRANCH   1  21
TORSDOF 3
ENDMDL
