MODEL 1
REMARK VINA RESULT:      -8.1      0.000      0.000
REMARK  Name = 
REMARK  4 active torsions:
REMARK  status: ('A' for Active; 'I' for Inactive)
REMARK    1  A    between atoms: C_1  and  N_2
REMARK    2  A    between atoms: N_10  and  C_11
REMARK    3  A    between atoms: C_11  and  C_12
REMARK    4  A    between atoms: C_14  and  C_15
REMARK                            x       y       z     vdW  Elec       q    Type
REMARK                         _______ _______ _______ _____ _____    ______ ____
ROOT
ATOM      1  C   UNL     1       8.317   5.420  13.170  0.00  0.00    +0.000 C 
ATOM      2  N   UNL     1       7.402   4.987  14.206  0.00  0.00    +0.000 N 
ATOM      3  N   UNL     1       7.682   5.393  15.488  0.00  0.00    +0.000 NA
ATOM      4  C   UNL     1       6.880   5.005  16.433  0.00  0.00    +0.000 A 
ATOM      5  C   UNL     1       5.686   4.160  16.224  0.00  0.00    +0.000 A 
ATOM      6  C   UNL     1       5.453   3.763  14.969  0.00  0.00    +0.000 A 
ATOM      7  C   UNL     1       6.331   4.178  13.858  0.00  0.00    +0.000 A 
ATOM      8  O   UNL     1       6.067   3.808  12.717  0.00  0.00    +0.000 OA
ATOM      9  C   UNL     1       4.809   3.801  17.381  0.00  0.00    +0.000 C 
ATOM     10  N   UNL     1       5.463   3.945  18.693  0.00  0.00    +0.000 NA
ATOM     11  C   UNL     1       6.054   5.289  18.799  0.00  0.00    +0.000 C 
ATOM     12  C   UNL     1       7.231   5.414  17.846  0.00  0.00    +0.000 C 
ENDROOT
BRANCH  10  13
ATOM     13  C   UNL     1       4.497   3.736  19.797  0.00  0.00    +0.000 C 
BRANCH  13  14
ATOM     14  C   UNL     1       3.446   4.792  19.908  0.00  0.00    +0.000 A 
ATOM     15  N   UNL     1       3.350   5.934  19.266  0.00  0.00    +0.000 NA
ATOM     16  C   UNL     1       2.232   6.505  19.838  0.00  0.00    +0.000 A 
ATOM     17  N   UNL     1       1.647   5.737  20.772  0.00  0.00    +0.000 NA
ATOM     18  O   UNL     1       2.452   4.597  20.819  0.00  0.00    +0.000 OA
BRANCH  16  19
ATOM     19  C   UNL     1       1.789   7.842  19.480  0.00  0.00    +0.000 A 
ATOM     20  C   UNL     1       1.952   8.369  18.194  0.00  0.00    +0.000 A 
ATOM     21  C   UNL     1       1.464   9.642  17.900  0.00  0.00    +0.000 A 
ATOM     22  C   UNL     1       0.832  10.355  18.906  0.00  0.00    +0.000 A 
ATOM     23  N   UNL     1       0.664   9.888  20.161  0.00  0.00    +0.000 NA
ATOM     24  C   UNL     1       1.145   8.645  20.416  0.00  0.00    +0.000 A 
ENDBRANCH  16  19
ENDBRANCH  13  14
ENDBRANCH  10  13
TORSDOF 3
ENDMDL
MODEL 2
REMARK VINA RESULT:      -8.1      0.752      1.075
REMARK  Name = 
REMARK  4 active torsions:
REMARK  status: ('A' for Active; 'I' for Inactive)
REMARK    1  A    between atoms: C_1  and  N_2
REMARK    2  A    between atoms: N_10  and  C_11
REMARK    3  A    between atoms: C_11  and  C_12
REMARK    4  A    between atoms: C_14  and  C_15
REMARK                            x       y       z     vdW  Elec       q    Type
REMARK                         _______ _______ _______ _____ _____    ______ ____
ROOT
ATOM      1  C   UNL     1       8.214   5.503  12.762  0.00  0.00    +0.000 C 
ATOM      2  N   UNL     1       7.302   5.032  13.784  0.00  0.00    +0.000 N 
ATOM      3  N   UNL     1       7.477   5.534  15.050  0.00  0.00    +0.000 NA
ATOM      4  C   UNL     1       6.677   5.114  15.982  0.00  0.00    +0.000 A 
ATOM      5  C   UNL     1       5.588   4.136  15.775  0.00  0.00    +0.000 A 
ATOM      6  C   UNL     1       5.457   3.650  14.538  0.00  0.00    +0.000 A 
ATOM      7  C   UNL     1       6.338   4.095  13.441  0.00  0.00    +0.000 A 
ATOM      8  O   UNL     1       6.168   3.637  12.314  0.00  0.00    +0.000 OA
ATOM      9  C   UNL     1       4.700   3.749  16.915  0.00  0.00    +0.000 C 
ATOM     10  N   UNL     1       5.274   4.033  18.241  0.00  0.00    +0.000 NA
ATOM     11  C   UNL     1       5.715   5.435  18.293  0.00  0.00    +0.000 C 
ATOM     12  C   UNL     1       6.916   5.634  17.382  0.00  0.00    +0.000 C 
ENDROOT
BRANCH  10  13
ATOM     13  C   UNL     1       4.284   3.782  19.315  0.00  0.00    +0.000 C 
BRANCH  13  14
ATOM     14  C   UNL     1       3.375   4.932  19.601  0.00  0.00    +0.000 A 
ATOM     15  N   UNL     1       3.172   6.021  18.895  0.00  0.00    +0.000 NA
ATOM     16  C   UNL     1       2.300   6.735  19.690  0.00  0.00    +0.000 A 
ATOM     17  N   UNL     1       1.957   6.103  20.824  0.00  0.00    +0.000 NA
ATOM     18  O   UNL     1       2.670   4.903  20.766  0.00  0.00    +0.000 OA
BRANCH  16  19
ATOM     19  C   UNL     1       1.857   8.072  19.330  0.00  0.00    +0.000 A 
ATOM     20  C   UNL     1       1.103   8.872  20.195  0.00  0.00    +0.000 A 
ATOM     21  C   UNL     1       0.747  10.164  19.808  0.00  0.00    +0.000 A 
ATOM     22  C   UNL     1       1.151  10.615  18.562  0.00  0.00    +0.000 A 
ATOM     23  N   UNL     1       1.869   9.872  17.695  0.00  0.00    +0.000 NA
ATOM     24  C   UNL     1       2.204   8.621  18.099  0.00  0.00    +0.000 A 
ENDBRANCH  16  19
ENDBRANCH  13  14
ENDBRANCH  10  13
TORSDOF 3
ENDMDL
MODEL 3
REMARK VINA RESULT:      -8.0      2.288      3.275
REMARK  Name = 
REMARK  4 active torsions:
REMARK  status: ('A' for Active; 'I' for Inactive)
REMARK    1  A    between atoms: C_1  and  N_2
REMARK    2  A    between atoms: N_10  and  C_11
REMARK    3  A    between atoms: C_11  and  C_12
REMARK    4  A    between atoms: C_14  and  C_15
REMARK                            x       y       z     vdW  Elec       q    Type
REMARK                         _______ _______ _______ _____ _____    ______ ____
ROOT
ATOM      1  C   UNL     1       6.393   3.505  13.501  0.00  0.00    +0.000 C 
ATOM      2  N   UNL     1       5.981   4.134  14.739  0.00  0.00    +0.000 N 
ATOM      3  N   UNL     1       4.832   3.660  15.323  0.00  0.00    +0.000 NA
ATOM      4  C   UNL     1       4.439   4.219  16.427  0.00  0.00    +0.000 A 
ATOM      5  C   UNL     1       5.145   5.329  17.101  0.00  0.00    +0.000 A 
ATOM      6  C   UNL     1       6.248   5.782  16.498  0.00  0.00    +0.000 A 
ATOM      7  C   UNL     1       6.739   5.181  15.243  0.00  0.00    +0.000 A 
ATOM      8  O   UNL     1       7.769   5.615  14.734  0.00  0.00    +0.000 OA
ATOM      9  C   UNL     1       4.624   5.875  18.392  0.00  0.00    +0.000 C 
ATOM     10  N   UNL     1       3.206   5.565  18.642  0.00  0.00    +0.000 NA
ATOM     11  C   UNL     1       2.989   4.118  18.488  0.00  0.00    +0.000 C 
ATOM     12  C   UNL     1       3.144   3.723  17.028  0.00  0.00    +0.000 C 
ENDROOT
BRANCH  10  13
ATOM     13  C   UNL     1       2.799   5.988  20.003  0.00  0.00    +0.000 C 
BRANCH  13  14
ATOM     14  C   UNL     1       2.105   7.309  20.059  0.00  0.00    +0.000 A 
ATOM     15  N   UNL     1       1.488   7.878  21.069  0.00  0.00    +0.000 NA
ATOM     16  C   UNL     1       0.987   9.032  20.503  0.00  0.00    +0.000 A 
ATOM     17  N   UNL     1       1.305   9.184  19.207  0.00  0.00    +0.000 NA
ATOM     18  O   UNL     1       2.049   8.040  18.910  0.00  0.00    +0.000 OA
BRANCH  16  19
ATOM     19  C   UNL     1       0.147   9.950  21.255  0.00  0.00    +0.000 A 
ATOM     20  C   UNL     1      -0.520  11.022  20.653  0.00  0.00    +0.000 A 
ATOM     21  C   UNL     1      -1.348  11.841  21.421  0.00  0.00    +0.000 A 
ATOM     22  C   UNL     1      -1.479  11.565  22.772  0.00  0.00    +0.000 A 
ATOM     23  N   UNL     1      -0.845  10.549  23.393  0.00  0.00    +0.000 NA
ATOM     24  C   UNL     1      -0.050   9.767  22.620  0.00  0.00    +0.000 A 
ENDBRANCH  16  19
ENDBRANCH  13  14
ENDBRANCH  10  13
TORSDOF 3
ENDMDL
MODEL 4
REMARK VINA RESULT:      -7.9      2.193      8.089
REMARK  Name = 
REMARK  4 active torsions:
REMARK  status: ('A' for Active; 'I' for Inactive)
REMARK    1  A    between atoms: C_1  and  N_2
REMARK    2  A    between atoms: N_10  and  C_11
REMARK    3  A    between atoms: C_11  and  C_12
REMARK    4  A    between atoms: C_14  and  C_15
REMARK                            x       y       z     vdW  Elec       q    Type
REMARK                         _______ _______ _______ _____ _____    ______ ____
ROOT
ATOM      1  C   UNL     1      -0.495  12.591  20.576  0.00  0.00    +0.000 C 
ATOM      2  N   UNL     1       0.042  11.262  20.788  0.00  0.00    +0.000 N 
ATOM      3  N   UNL     1       0.585  10.633  19.694  0.00  0.00    +0.000 NA
ATOM      4  C   UNL     1       1.061   9.436  19.860  0.00  0.00    +0.000 A 
ATOM      5  C   UNL     1       1.063   8.706  21.146  0.00  0.00    +0.000 A 
ATOM      6  C   UNL     1       0.508   9.336  22.185  0.00  0.00    +0.000 A 
ATOM      7  C   UNL     1      -0.045  10.698  22.051  0.00  0.00    +0.000 A 
ATOM      8  O   UNL     1      -0.526  11.248  23.038  0.00  0.00    +0.000 OA
ATOM      9  C   UNL     1       1.671   7.343  21.233  0.00  0.00    +0.000 C 
ATOM     10  N   UNL     1       1.808   6.666  19.932  0.00  0.00    +0.000 NA
ATOM     11  C   UNL     1       2.500   7.557  18.988  0.00  0.00    +0.000 C 
ATOM     12  C   UNL     1       1.605   8.735  18.637  0.00  0.00    +0.000 C 
ENDROOT
BRANCH  10  13
ATOM     13  C   UNL     1       2.564   5.398  20.068  0.00  0.00    +0.000 C 
BRANCH  13  14
ATOM     14  C   UNL     1       3.149   4.887  18.792  0.00  0.00    +0.000 A 
ATOM     15  N   UNL     1       4.295   5.191  18.227  0.00  0.00    +0.000 NA
ATOM     16  C   UNL     1       4.249   4.475  17.049  0.00  0.00    +0.000 A 
ATOM     17  N   UNL     1       3.135   3.737  16.906  0.00  0.00    +0.000 NA
ATOM     18  O   UNL     1       2.403   4.010  18.064  0.00  0.00    +0.000 OA
BRANCH  16  19
ATOM     19  C   UNL     1       5.300   4.575  16.051  0.00  0.00    +0.000 A 
ATOM     20  C   UNL     1       5.219   3.940  14.807  0.00  0.00    +0.000 A 
ATOM     21  C   UNL     1       6.240   4.112  13.873  0.00  0.00    +0.000 A 
ATOM     22  C   UNL     1       7.318   4.913  14.215  0.00  0.00    +0.000 A 
ATOM     23  N   UNL     1       7.440   5.534  15.406  0.00  0.00    +0.000 NA
ATOM     24  C   UNL     1       6.429   5.351  16.293  0.00  0.00    +0.000 A 
ENDBRANCH  16  19
ENDBRANCH  13  14
ENDBRANCH  10  13
TORSDOF 3
ENDMDL
MODEL 5
REMARK VINA RESULT:      -7.8      4.221      6.748
REMARK  Name = 
REMARK  4 active torsions:
REMARK  status: ('A' for Active; 'I' for Inactive)
REMARK    1  A    between atoms: C_1  and  N_2
REMARK    2  A    between atoms: N_10  and  C_11
REMARK    3  A    between atoms: C_11  and  C_12
REMARK    4  A    between atoms: C_14  and  C_15
REMARK                            x       y       z     vdW  Elec       q    Type
REMARK                         _______ _______ _______ _____ _____    ______ ____
ROOT
ATOM      1  C   UNL     1       0.971   2.580  19.714  0.00  0.00    +0.000 C 
ATOM      2  N   UNL     1       2.024   3.491  19.316  0.00  0.00    +0.000 N 
ATOM      3  N   UNL     1       2.686   3.201  18.148  0.00  0.00    +0.000 NA
ATOM      4  C   UNL     1       3.642   3.999  17.780  0.00  0.00    +0.000 A 
ATOM      5  C   UNL     1       4.064   5.202  18.529  0.00  0.00    +0.000 A 
ATOM      6  C   UNL     1       3.416   5.445  19.672  0.00  0.00    +0.000 A 
ATOM      7  C   UNL     1       2.321   4.571  20.134  0.00  0.00    +0.000 A 
ATOM      8  O   UNL     1       1.737   4.845  21.180  0.00  0.00    +0.000 OA
ATOM      9  C   UNL     1       5.155   6.074  17.995  0.00  0.00    +0.000 C 
ATOM     10  N   UNL     1       6.018   5.410  17.002  0.00  0.00    +0.000 NA
ATOM     11  C   UNL     1       5.180   4.809  15.952  0.00  0.00    +0.000 C 
ATOM     12  C   UNL     1       4.397   3.637  16.522  0.00  0.00    +0.000 C 
ENDROOT
BRANCH  10  13
ATOM     13  C   UNL     1       6.967   6.371  16.394  0.00  0.00    +0.000 C 
BRANCH  13  14
ATOM     14  C   UNL     1       7.602   7.313  17.364  0.00  0.00    +0.000 A 
ATOM     15  N   UNL     1       7.738   8.617  17.283  0.00  0.00    +0.000 NA
ATOM     16  C   UNL     1       8.461   8.914  18.420  0.00  0.00    +0.000 A 
ATOM     17  N   UNL     1       8.734   7.843  19.185  0.00  0.00    +0.000 NA
ATOM     18  O   UNL     1       8.163   6.778  18.485  0.00  0.00    +0.000 OA
BRANCH  16  19
ATOM     19  C   UNL     1       8.917  10.263  18.705  0.00  0.00    +0.000 A 
ATOM     20  C   UNL     1       8.714  11.328  17.821  0.00  0.00    +0.000 A 
ATOM     21  C   UNL     1       9.136  12.610  18.172  0.00  0.00    +0.000 A 
ATOM     22  C   UNL     1       9.757  12.788  19.398  0.00  0.00    +0.000 A 
ATOM     23  N   UNL     1       9.982  11.787  20.274  0.00  0.00    +0.000 NA
ATOM     24  C   UNL     1       9.557  10.552  19.907  0.00  0.00    +0.000 A 
ENDBRANCH  16  19
ENDBRANCH  13  14
ENDBRANCH  10  13
TORSDOF 3
ENDMDL
MODEL 6
REMARK VINA RESULT:      -7.7      4.512     10.002
REMARK  Name = 
REMARK  4 active torsions:
REMARK  status: ('A' for Active; 'I' for Inactive)
REMARK    1  A    between atoms: C_1  and  N_2
REMARK    2  A    between atoms: N_10  and  C_11
REMARK    3  A    between atoms: C_11  and  C_12
REMARK    4  A    between atoms: C_14  and  C_15
REMARK                            x       y       z     vdW  Elec       q    Type
REMARK                         _______ _______ _______ _____ _____    ______ ____
ROOT
ATOM      1  C   UNL     1      -7.038  11.662  18.146  0.00  0.00    +0.000 C 
ATOM      2  N   UNL     1      -5.629  11.716  18.479  0.00  0.00    +0.000 N 
ATOM      3  N   UNL     1      -4.801  10.847  17.812  0.00  0.00    +0.000 NA
ATOM      4  C   UNL     1      -3.537  10.872  18.105  0.00  0.00    +0.000 A 
ATOM      5  C   UNL     1      -2.926  11.773  19.105  0.00  0.00    +0.000 A 
ATOM      6  C   UNL     1      -3.761  12.591  19.752  0.00  0.00    +0.000 A 
ATOM      7  C   UNL     1      -5.206  12.605  19.455  0.00  0.00    +0.000 A 
ATOM      8  O   UNL     1      -5.933  13.389  20.060  0.00  0.00    +0.000 OA
ATOM      9  C   UNL     1      -1.449  11.744  19.338  0.00  0.00    +0.000 C 
ATOM     10  N   UNL     1      -0.797  10.506  18.878  0.00  0.00    +0.000 NA
ATOM     11  C   UNL     1      -1.174  10.245  17.480  0.00  0.00    +0.000 C 
ATOM     12  C   UNL     1      -2.646   9.873  17.402  0.00  0.00    +0.000 C 
ENDROOT
BRANCH  10  13
ATOM     13  C   UNL     1       0.678  10.608  18.986  0.00  0.00    +0.000 C 
BRANCH  13  14
ATOM     14  C   UNL     1       1.384   9.295  19.079  0.00  0.00    +0.000 A 
ATOM     15  N   UNL     1       2.051   8.647  18.152  0.00  0.00    +0.000 NA
ATOM     16  C   UNL     1       2.402   7.479  18.796  0.00  0.00    +0.000 A 
ATOM     17  N   UNL     1       1.995   7.421  20.075  0.00  0.00    +0.000 NA
ATOM     18  O   UNL     1       1.319   8.628  20.265  0.00  0.00    +0.000 OA
BRANCH  16  19
ATOM     19  C   UNL     1       3.100   6.406  18.108  0.00  0.00    +0.000 A 
ATOM     20  C   UNL     1       2.652   5.081  18.133  0.00  0.00    +0.000 A 
ATOM     21  C   UNL     1       3.340   4.103  17.414  0.00  0.00    +0.000 A 
ATOM     22  C   UNL     1       4.462   4.481  16.695  0.00  0.00    +0.000 A 
ATOM     23  N   UNL     1       4.933   5.744  16.653  0.00  0.00    +0.000 NA
ATOM     24  C   UNL     1       4.241   6.674  17.358  0.00  0.00    +0.000 A 
ENDBRANCH  16  19
ENDBRANCH  13  14
ENDBRANCH  10  13
TORSDOF 3
ENDMDL
MODEL 7
REMARK VINA RESULT:      -7.7      3.248      5.364
REMARK  Name = 
REMARK  4 active torsions:
REMARK  status: ('A' for Active; 'I' for Inactive)
REMARK    1  A    between atoms: C_1  and  N_2
REMARK    2  A    between atoms: N_10  and  C_11
REMARK    3  A    between atoms: C_11  and  C_12
REMARK    4  A    between atoms: C_14  and  C_15
REMARK                            x       y       z     vdW  Elec       q    Type
REMARK                         _______ _______ _______ _____ _____    ______ ____
ROOT
ATOM      1  C   UNL     1       4.870   1.250  21.199  0.00  0.00    +0.000 C 
ATOM      2  N   UNL     1       4.235   2.420  20.628  0.00  0.00    +0.000 N 
ATOM      3  N   UNL     1       4.935   3.092  19.657  0.00  0.00    +0.000 NA
ATOM      4  C   UNL     1       4.388   4.151  19.141  0.00  0.00    +0.000 A 
ATOM      5  C   UNL     1       3.062   4.681  19.524  0.00  0.00    +0.000 A 
ATOM      6  C   UNL     1       2.416   4.017  20.487  0.00  0.00    +0.000 A 
ATOM      7  C   UNL     1       2.992   2.807  21.105  0.00  0.00    +0.000 A 
ATOM      8  O   UNL     1       2.353   2.216  21.971  0.00  0.00    +0.000 OA
ATOM      9  C   UNL     1       2.510   5.889  18.838  0.00  0.00    +0.000 C 
ATOM     10  N   UNL     1       3.530   6.709  18.160  0.00  0.00    +0.000 NA
ATOM     11  C   UNL     1       4.337   5.852  17.278  0.00  0.00    +0.000 C 
ATOM     12  C   UNL     1       5.194   4.912  18.111  0.00  0.00    +0.000 C 
ENDROOT
BRANCH  10  13
ATOM     13  C   UNL     1       2.902   7.791  17.366  0.00  0.00    +0.000 C 
BRANCH  13  14
ATOM     14  C   UNL     1       2.103   8.764  18.169  0.00  0.00    +0.000 A 
ATOM     15  N   UNL     1       1.703   8.676  19.417  0.00  0.00    +0.000 NA
ATOM     16  C   UNL     1       0.951   9.822  19.573  0.00  0.00    +0.000 A 
ATOM     17  N   UNL     1       0.912  10.599  18.478  0.00  0.00    +0.000 NA
ATOM     18  O   UNL     1       1.678   9.898  17.544  0.00  0.00    +0.000 OA
BRANCH  16  19
ATOM     19  C   UNL     1       0.233  10.104  20.805  0.00  0.00    +0.000 A 
ATOM     20  C   UNL     1       0.205   9.209  21.880  0.00  0.00    +0.000 A 
ATOM     21  C   UNL     1      -0.464   9.558  23.053  0.00  0.00    +0.000 A 
ATOM     22  C   UNL     1      -1.092  10.791  23.113  0.00  0.00    +0.000 A 
ATOM     23  N   UNL     1      -1.098  11.677  22.096  0.00  0.00    +0.000 NA
ATOM     24  C   UNL     1      -0.436  11.313  20.970  0.00  0.00    +0.000 A 
ENDBRANCH  16  19
ENDBRANCH  13  14
ENDBRANCH  10  13
TORSDOF 3
ENDMDL
MODEL 8
REMARK VINA RESULT:      -7.7      2.086      8.175
REMARK  Name = 
REMARK  4 active torsions:
REMARK  status: ('A' for Active; 'I' for Inactive)
REMARK    1  A    between atoms: C_1  and  N_2
REMARK    2  A    between atoms: N_10  and  C_11
REMARK    3  A    between atoms: C_11  and  C_12
REMARK    4  A    between atoms: C_14  and  C_15
REMARK                            x       y       z     vdW  Elec       q    Type
REMARK                         _______ _______ _______ _____ _____    ______ ____
ROOT
ATOM      1  C   UNL     1      -0.487  11.426  20.647  0.00  0.00    +0.000 C 
ATOM      2  N   UNL     1       0.252  10.184  20.556  0.00  0.00    +0.000 N 
ATOM      3  N   UNL     1       0.850   9.905  19.352  0.00  0.00    +0.000 NA
ATOM      4  C   UNL     1       1.507   8.790  19.247  0.00  0.00    +0.000 A 
ATOM      5  C   UNL     1       1.658   7.801  20.335  0.00  0.00    +0.000 A 
ATOM      6  C   UNL     1       1.045   8.090  21.487  0.00  0.00    +0.000 A 
ATOM      7  C   UNL     1       0.289   9.345  21.660  0.00  0.00    +0.000 A 
ATOM      8  O   UNL     1      -0.240   9.581  22.743  0.00  0.00    +0.000 OA
ATOM      9  C   UNL     1       2.468   6.563  20.117  0.00  0.00    +0.000 C 
ATOM     10  N   UNL     1       2.667   6.223  18.698  0.00  0.00    +0.000 NA
ATOM     11  C   UNL     1       3.188   7.398  17.982  0.00  0.00    +0.000 C 
ATOM     12  C   UNL     1       2.115   8.472  17.900  0.00  0.00    +0.000 C 
ENDROOT
BRANCH  10  13
ATOM     13  C   UNL     1       3.611   5.089  18.549  0.00  0.00    +0.000 C 
BRANCH  13  14
ATOM     14  C   UNL     1       4.596   5.246  17.437  0.00  0.00    +0.000 A 
ATOM     15  N   UNL     1       4.591   4.697  16.244  0.00  0.00    +0.000 NA
ATOM     16  C   UNL     1       5.776   5.148  15.701  0.00  0.00    +0.000 A 
ATOM     17  N   UNL     1       6.469   5.964  16.513  0.00  0.00    +0.000 NA
ATOM     18  O   UNL     1       5.685   6.031  17.667  0.00  0.00    +0.000 OA
BRANCH  16  19
ATOM     19  C   UNL     1       6.231   4.715  14.391  0.00  0.00    +0.000 A 
ATOM     20  C   UNL     1       5.553   3.749  13.641  0.00  0.00    +0.000 A 
ATOM     21  C   UNL     1       6.015   3.409  12.369  0.00  0.00    +0.000 A 
ATOM     22  C   UNL     1       7.149   4.042  11.889  0.00  0.00    +0.000 A 
ATOM     23  N   UNL     1       7.838   4.970  12.584  0.00  0.00    +0.000 NA
ATOM     24  C   UNL     1       7.363   5.284  13.815  0.00  0.00    +0.000 A 
ENDBRANCH  16  19
ENDBRANCH  13  14
ENDBRANCH  10  13
TORSDOF 3
ENDMDL
MODEL 9
REMARK VINA RESULT:      -7.7      2.222      3.718
REMARK  Name = 
REMARK  4 active torsions:
REMARK  status: ('A' for Active; 'I' for Inactive)
REMARK    1  A    between atoms: C_1  and  N_2
REMARK    2  A    between atoms: N_10  and  C_11
REMARK    3  A    between atoms: C_11  and  C_12
REMARK    4  A    between atoms: C_14  and  C_15
REMARK                            x       y       z     vdW  Elec       q    Type
REMARK                         _______ _______ _______ _____ _____    ______ ____
ROOT
ATOM      1  C   UNL     1       6.386   4.058  14.845  0.00  0.00    +0.000 C 
ATOM      2  N   UNL     1       5.763   4.682  15.994  0.00  0.00    +0.000 N 
ATOM      3  N   UNL     1       4.551   4.175  16.393  0.00  0.00    +0.000 NA
ATOM      4  C   UNL     1       3.970   4.729  17.413  0.00  0.00    +0.000 A 
ATOM      5  C   UNL     1       4.525   5.866  18.178  0.00  0.00    +0.000 A 
ATOM      6  C   UNL     1       5.695   6.351  17.752  0.00  0.00    +0.000 A 
ATOM      7  C   UNL     1       6.398   5.757  16.599  0.00  0.00    +0.000 A 
ATOM      8  O   UNL     1       7.482   6.221  16.255  0.00  0.00    +0.000 OA
ATOM      9  C   UNL     1       3.788   6.405  19.362  0.00  0.00    +0.000 C 
ATOM     10  N   UNL     1       2.358   6.050  19.388  0.00  0.00    +0.000 NA
ATOM     11  C   UNL     1       2.213   4.596  19.219  0.00  0.00    +0.000 C 
ATOM     12  C   UNL     1       2.611   4.196  17.807  0.00  0.00    +0.000 C 
ENDROOT
BRANCH  10  13
ATOM     13  C   UNL     1       1.727   6.470  20.661  0.00  0.00    +0.000 C 
BRANCH  13  14
ATOM     14  C   UNL     1       1.357   7.916  20.721  0.00  0.00    +0.000 A 
ATOM     15  N   UNL     1       0.967   8.711  19.752  0.00  0.00    +0.000 NA
ATOM     16  C   UNL     1       0.848   9.927  20.391  0.00  0.00    +0.000 A 
ATOM     17  N   UNL     1       1.124   9.880  21.705  0.00  0.00    +0.000 NA
ATOM     18  O   UNL     1       1.462   8.543  21.926  0.00  0.00    +0.000 OA
BRANCH  16  19
ATOM     19  C   UNL     1       0.508  11.141  19.668  0.00  0.00    +0.000 A 
ATOM     20  C   UNL     1      -0.793  11.421  19.238  0.00  0.00    +0.000 A 
ATOM     21  C   UNL     1      -1.064  12.625  18.588  0.00  0.00    +0.000 A 
ATOM     22  C   UNL     1      -0.021  13.513  18.382  0.00  0.00    +0.000 A 
ATOM     23  N   UNL     1       1.249  13.277  18.770  0.00  0.00    +0.000 NA
ATOM     24  C   UNL     1       1.482  12.100  19.403  0.00  0.00    +0.000 A 
ENDBRANCH  16  19
ENDBRANCH  13  14
ENDBRANCH  10  13
TORSDOF 3
ENDMDL
