MODEL 1
REMARK VINA RESULT:      -8.0      0.000      0.000
REMARK  Name = 
REMARK  7 active torsions:
REMARK  status: ('A' for Active; 'I' for Inactive)
REMARK    1  A    between atoms: C_1  and  C_2
REMARK    2  A    between atoms: C_2  and  N_3
REMARK    3  A    between atoms: C_2  and  C_18
REMARK    4  A    between atoms: C_4  and  C_6
REMARK    5  A    between atoms: C_6  and  N_7
REMARK    6  A    between atoms: C_21  and  O_22
REMARK    7  A    between atoms: O_22  and  C_23
REMARK                            x       y       z     vdW  Elec       q    Type
REMARK                         _______ _______ _______ _____ _____    ______ ____
ROOT
ATOM      1  N   UNL     1       3.693   5.690  19.613  0.00  0.00    +0.000 N 
ATOM      2  C   UNL     1       4.300   4.494  19.309  0.00  0.00    +0.000 C 
ATOM      3  O   UNL     1       3.721   3.412  19.393  0.00  0.00    +0.000 OA
ATOM      4  H   UNL     1       4.244   6.526  19.433  0.00  0.00    +0.000 HD
ENDROOT
BRANCH   1   6
ATOM      5  C   UNL     1       1.919   5.105  21.197  0.00  0.00    +0.000 C 
ATOM      6  C   UNL     1       2.274   5.803  19.881  0.00  0.00    +0.000 C 
BRANCH   6   7
ATOM      7  C   UNL     1       1.838   7.257  19.893  0.00  0.00    +0.000 A 
ATOM      8  C   UNL     1       1.944   8.033  18.731  0.00  0.00    +0.000 A 
ATOM      9  C   UNL     1       1.481   9.353  18.715  0.00  0.00    +0.000 A 
ATOM     10  C   UNL     1       0.906   9.920  19.854  0.00  0.00    +0.000 A 
ATOM     11  C   UNL     1       0.872   9.182  21.034  0.00  0.00    +0.000 A 
ATOM     12  C   UNL     1       1.317   7.856  21.050  0.00  0.00    +0.000 A 
BRANCH  10  13
ATOM     13  O   UNL     1       0.480  11.205  19.712  0.00  0.00    +0.000 OA
BRANCH  13  14
ATOM     14  C   UNL     1      -0.833  11.449  19.226  0.00  0.00    +0.000 C 
ATOM     15  F   UNL     1      -1.617  10.354  19.139  0.00  0.00    +0.000 F 
ATOM     16  F   UNL     1      -1.440  12.349  20.030  0.00  0.00    +0.000 F 
ATOM     17  F   UNL     1      -0.742  11.987  17.988  0.00  0.00    +0.000 F 
ENDBRANCH  13  14
ENDBRANCH  10  13
ENDBRANCH   6   7
ENDBRANCH   1   6
BRANCH   2  18
ATOM     18  C   UNL     1       5.806   4.579  19.056  0.00  0.00    +0.000 C 
BRANCH  18  19
ATOM     19  N   UNL     1       6.213   4.462  17.670  0.00  0.00    +0.000 N 
ATOM     20  N   UNL     1       5.533   3.701  16.721  0.00  0.00    +0.000 NA
ATOM     21  C   UNL     1       6.071   4.064  15.597  0.00  0.00    +0.000 A 
ATOM     22  C   UNL     1       5.730   3.582  14.253  0.00  0.00    +0.000 A 
ATOM     23  C   UNL     1       6.408   4.095  13.221  0.00  0.00    +0.000 A 
ATOM     24  C   UNL     1       7.461   5.110  13.500  0.00  0.00    +0.000 A 
ATOM     25 CL   UNL     1       8.372   5.758  12.188  0.00  0.00    +0.000 Cl
ATOM     26  N   UNL     1       7.756   5.556  14.683  0.00  0.00    +0.000 NA
ATOM     27  N   UNL     1       7.041   5.000  15.700  0.00  0.00    +0.000 N 
ATOM     28  C   UNL     1       7.129   5.336  17.037  0.00  0.00    +0.000 A 
ATOM     29  O   UNL     1       7.792   6.212  17.571  0.00  0.00    +0.000 OA
ENDBRANCH  18  19
ENDBRANCH   2  18
TORSDOF 6
ENDMDL
MODEL 2
REMARK VINA RESULT:      -8.0      6.247      9.865
REMARK  Name = 
REMARK  7 active torsions:
REMARK  status: ('A' for Active; 'I' for Inactive)
REMARK    1  A    between atoms: C_1  and  C_2
REMARK    2  A    between atoms: C_2  and  N_3
REMARK    3  A    between atoms: C_2  and  C_18
REMARK    4  A    between atoms: C_4  and  C_6
REMARK    5  A    between atoms: C_6  and  N_7
REMARK    6  A    between atoms: C_21  and  O_22
REMARK    7  A    between atoms: O_22  and  C_23
REMARK                            x       y       z     vdW  Elec       q    Type
REMARK                         _______ _______ _______ _____ _____    ______ ____
ROOT
ATOM      1  N   UNL     1       0.549  10.080  20.045  0.00  0.00    +0.000 N 
ATOM      2  C   UNL     1       0.891  11.404  20.193  0.00  0.00    +0.000 C 
ATOM      3  O   UNL     1       1.447  11.839  21.201  0.00  0.00    +0.000 OA
ATOM      4  H   UNL     1       0.165   9.821  19.139  0.00  0.00    +0.000 HD
ENDROOT
BRANCH   1   6
ATOM      5  C   UNL     1      -0.203   8.595  21.840  0.00  0.00    +0.000 C 
ATOM      6  C   UNL     1       0.973   9.052  20.972  0.00  0.00    +0.000 C 
BRANCH   6   7
ATOM      7  C   UNL     1       1.602   7.882  20.237  0.00  0.00    +0.000 A 
ATOM      8  C   UNL     1       1.622   6.610  20.825  0.00  0.00    +0.000 A 
ATOM      9  C   UNL     1       2.138   5.514  20.126  0.00  0.00    +0.000 A 
ATOM     10  C   UNL     1       2.642   5.666  18.832  0.00  0.00    +0.000 A 
ATOM     11  C   UNL     1       2.700   6.941  18.275  0.00  0.00    +0.000 A 
ATOM     12  C   UNL     1       2.168   8.037  18.962  0.00  0.00    +0.000 A 
BRANCH  10  13
ATOM     13  O   UNL     1       3.103   4.526  18.251  0.00  0.00    +0.000 OA
BRANCH  13  14
ATOM     14  C   UNL     1       2.175   3.633  17.646  0.00  0.00    +0.000 C 
ATOM     15  F   UNL     1       1.910   2.523  18.365  0.00  0.00    +0.000 F 
ATOM     16  F   UNL     1       1.015   4.288  17.424  0.00  0.00    +0.000 F 
ATOM     17  F   UNL     1       2.671   3.240  16.451  0.00  0.00    +0.000 F 
ENDBRANCH  13  14
ENDBRANCH  10  13
ENDBRANCH   6   7
ENDBRANCH   1   6
BRANCH   2  18
ATOM     18  C   UNL     1       0.351  12.338  19.110  0.00  0.00    +0.000 C 
BRANCH  18  19
ATOM     19  N   UNL     1      -1.074  12.243  18.859  0.00  0.00    +0.000 N 
ATOM     20  N   UNL     1      -1.639  11.419  17.887  0.00  0.00    +0.000 NA
ATOM     21  C   UNL     1      -2.907  11.451  18.161  0.00  0.00    +0.000 A 
ATOM     22  C   UNL     1      -3.986  10.750  17.454  0.00  0.00    +0.000 A 
ATOM     23  C   UNL     1      -5.233  10.915  17.906  0.00  0.00    +0.000 A 
ATOM     24  C   UNL     1      -5.446  11.799  19.085  0.00  0.00    +0.000 A 
ATOM     25 CL   UNL     1      -7.049  12.057  19.664  0.00  0.00    +0.000 Cl
ATOM     26  N   UNL     1      -4.497  12.409  19.727  0.00  0.00    +0.000 NA
ATOM     27  N   UNL     1      -3.246  12.211  19.226  0.00  0.00    +0.000 N 
ATOM     28  C   UNL     1      -2.069  12.704  19.754  0.00  0.00    +0.000 A 
ATOM     29  O   UNL     1      -1.891  13.344  20.778  0.00  0.00    +0.000 OA
ENDBRANCH  18  19
ENDBRANCH   2  18
TORSDOF 6
ENDMDL
MODEL 3
REMARK VINA RESULT:      -8.0      1.443      1.864
REMARK  Name = 
REMARK  7 active torsions:
REMARK  status: ('A' for Active; 'I' for Inactive)
REMARK    1  A    between atoms: C_1  and  C_2
REMARK    2  A    between atoms: C_2  and  N_3
REMARK    3  A    between atoms: C_2  and  C_18
REMARK    4  A    between atoms: C_4  and  C_6
REMARK    5  A    between atoms: C_6  and  N_7
REMARK    6  A    between atoms: C_21  and  O_22
REMARK    7  A    between atoms: O_22  and  C_23
REMARK                            x       y       z     vdW  Elec       q    Type
REMARK                         _______ _______ _______ _____ _____    ______ ____
ROOT
ATOM      1  N   UNL     1       3.669   5.967  19.352  0.00  0.00    +0.000 N 
ATOM      2  C   UNL     1       4.247   4.720  19.386  0.00  0.00    +0.000 C 
ATOM      3  O   UNL     1       3.639   3.715  19.752  0.00  0.00    +0.000 OA
ATOM      4  H   UNL     1       4.243   6.711  18.959  0.00  0.00    +0.000 HD
ENDROOT
BRANCH   1   6
ATOM      5  C   UNL     1       1.856   5.779  20.987  0.00  0.00    +0.000 C 
ATOM      6  C   UNL     1       2.253   6.182  19.564  0.00  0.00    +0.000 C 
BRANCH   6   7
ATOM      7  C   UNL     1       1.872   7.622  19.273  0.00  0.00    +0.000 A 
ATOM      8  C   UNL     1       1.284   8.410  20.272  0.00  0.00    +0.000 A 
ATOM      9  C   UNL     1       0.992   9.758  20.033  0.00  0.00    +0.000 A 
ATOM     10  C   UNL     1       1.281  10.340  18.797  0.00  0.00    +0.000 A 
ATOM     11  C   UNL     1       1.788   9.543  17.775  0.00  0.00    +0.000 A 
ATOM     12  C   UNL     1       2.099   8.201  18.015  0.00  0.00    +0.000 A 
BRANCH  10  13
ATOM     13  O   UNL     1       0.965  11.660  18.690  0.00  0.00    +0.000 OA
BRANCH  13  14
ATOM     14  C   UNL     1       2.012  12.621  18.652  0.00  0.00    +0.000 C 
ATOM     15  F   UNL     1       3.082  12.262  17.914  0.00  0.00    +0.000 F 
ATOM     16  F   UNL     1       1.524  13.783  18.164  0.00  0.00    +0.000 F 
ATOM     17  F   UNL     1       2.440  12.844  19.915  0.00  0.00    +0.000 F 
ENDBRANCH  13  14
ENDBRANCH  10  13
ENDBRANCH   6   7
ENDBRANCH   1   6
BRANCH   2  18
ATOM     18  C   UNL     1       5.755   4.697  19.136  0.00  0.00    +0.000 C 
BRANCH  18  19
ATOM     19  N   UNL     1       6.156   4.548  17.751  0.00  0.00    +0.000 N 
ATOM     20  N   UNL     1       5.456   3.785  16.818  0.00  0.00    +0.000 NA
ATOM     21  C   UNL     1       5.998   4.116  15.686  0.00  0.00    +0.000 A 
ATOM     22  C   UNL     1       5.643   3.618  14.352  0.00  0.00    +0.000 A 
ATOM     23  C   UNL     1       6.328   4.098  13.309  0.00  0.00    +0.000 A 
ATOM     24  C   UNL     1       7.403   5.095  13.567  0.00  0.00    +0.000 A 
ATOM     25 CL   UNL     1       8.323   5.701  12.242  0.00  0.00    +0.000 Cl
ATOM     26  N   UNL     1       7.712   5.555  14.741  0.00  0.00    +0.000 NA
ATOM     27  N   UNL     1       6.988   5.033  15.770  0.00  0.00    +0.000 N 
ATOM     28  C   UNL     1       7.088   5.391  17.100  0.00  0.00    +0.000 A 
ATOM     29  O   UNL     1       7.770   6.262  17.616  0.00  0.00    +0.000 OA
ENDBRANCH  18  19
ENDBRANCH   2  18
TORSDOF 6
ENDMDL
MODEL 4
REMARK VINA RESULT:      -7.9      0.648      1.271
REMARK  Name = 
REMARK  7 active torsions:
REMARK  status: ('A' for Active; 'I' for Inactive)
REMARK    1  A    between atoms: C_1  and  C_2
REMARK    2  A    between atoms: C_2  and  N_3
REMARK    3  A    between atoms: C_2  and  C_18
REMARK    4  A    between atoms: C_4  and  C_6
REMARK    5  A    between atoms: C_6  and  N_7
REMARK    6  A    between atoms: C_21  and  O_22
REMARK    7  A    between atoms: O_22  and  C_23
REMARK                            x       y       z     vdW  Elec       q    Type
REMARK                         _______ _______ _______ _____ _____    ______ ____
ROOT
ATOM      1  N   UNL     1       3.668   6.082  19.304  0.00  0.00    +0.000 N 
ATOM      2  C   UNL     1       4.270   4.849  19.384  0.00  0.00    +0.000 C 
ATOM      3  O   UNL     1       3.684   3.846  19.789  0.00  0.00    +0.000 OA
ATOM      4  H   UNL     1       4.225   6.822  18.882  0.00  0.00    +0.000 HD
ENDROOT
BRANCH   1   6
ATOM      5  C   UNL     1       1.842   5.813  20.915  0.00  0.00    +0.000 C 
ATOM      6  C   UNL     1       2.248   6.276  19.513  0.00  0.00    +0.000 C 
BRANCH   6   7
ATOM      7  C   UNL     1       1.856   7.724  19.277  0.00  0.00    +0.000 A 
ATOM      8  C   UNL     1       1.217   8.454  20.288  0.00  0.00    +0.000 A 
ATOM      9  C   UNL     1       0.914   9.807  20.103  0.00  0.00    +0.000 A 
ATOM     10  C   UNL     1       1.243  10.454  18.910  0.00  0.00    +0.000 A 
ATOM     11  C   UNL     1       1.804   9.715  17.872  0.00  0.00    +0.000 A 
ATOM     12  C   UNL     1       2.125   8.367  18.059  0.00  0.00    +0.000 A 
BRANCH  10  13
ATOM     13  O   UNL     1       0.912  11.773  18.855  0.00  0.00    +0.000 OA
BRANCH  13  14
ATOM     14  C   UNL     1      -0.438  12.138  18.599  0.00  0.00    +0.000 C 
ATOM     15  F   UNL     1      -1.163  12.428  19.699  0.00  0.00    +0.000 F 
ATOM     16  F   UNL     1      -0.456  13.211  17.778  0.00  0.00    +0.000 F 
ATOM     17  F   UNL     1      -1.049  11.112  17.963  0.00  0.00    +0.000 F 
ENDBRANCH  13  14
ENDBRANCH  10  13
ENDBRANCH   6   7
ENDBRANCH   1   6
BRANCH   2  18
ATOM     18  C   UNL     1       5.778   4.848  19.131  0.00  0.00    +0.000 C 
BRANCH  18  19
ATOM     19  N   UNL     1       6.178   4.657  17.750  0.00  0.00    +0.000 N 
ATOM     20  N   UNL     1       5.484   3.858  16.843  0.00  0.00    +0.000 NA
ATOM     21  C   UNL     1       6.022   4.157  15.701  0.00  0.00    +0.000 A 
ATOM     22  C   UNL     1       5.670   3.613  14.384  0.00  0.00    +0.000 A 
ATOM     23  C   UNL     1       6.350   4.065  13.325  0.00  0.00    +0.000 A 
ATOM     24  C   UNL     1       7.416   5.080  13.549  0.00  0.00    +0.000 A 
ATOM     25 CL   UNL     1       8.329   5.650  12.203  0.00  0.00    +0.000 Cl
ATOM     26  N   UNL     1       7.722   5.580  14.707  0.00  0.00    +0.000 NA
ATOM     27  N   UNL     1       7.004   5.085  15.753  0.00  0.00    +0.000 N 
ATOM     28  C   UNL     1       7.102   5.487  17.071  0.00  0.00    +0.000 A 
ATOM     29  O   UNL     1       7.777   6.380  17.558  0.00  0.00    +0.000 OA
ENDBRANCH  18  19
ENDBRANCH   2  18
TORSDOF 6
ENDMDL
MODEL 5
REMARK VINA RESULT:      -7.9      6.032      9.897
REMARK  Name = 
REMARK  7 active torsions:
REMARK  status: ('A' for Active; 'I' for Inactive)
REMARK    1  A    between atoms: C_1  and  C_2
REMARK    2  A    between atoms: C_2  and  N_3
REMARK    3  A    between atoms: C_2  and  C_18
REMARK    4  A    between atoms: C_4  and  C_6
REMARK    5  A    between atoms: C_6  and  N_7
REMARK    6  A    between atoms: C_21  and  O_22
REMARK    7  A    between atoms: O_22  and  C_23
REMARK                            x       y       z     vdW  Elec       q    Type
REMARK                         _______ _______ _______ _____ _____    ______ ____
ROOT
ATOM      1  N   UNL     1       2.612   7.171  17.874  0.00  0.00    +0.000 N 
ATOM      2  C   UNL     1       2.154   8.087  18.792  0.00  0.00    +0.000 C 
ATOM      3  O   UNL     1       2.028   7.826  19.987  0.00  0.00    +0.000 OA
ATOM      4  H   UNL     1       2.749   7.520  16.928  0.00  0.00    +0.000 HD
ENDROOT
BRANCH   1   6
ATOM      5  C   UNL     1       2.031   4.880  18.518  0.00  0.00    +0.000 C 
ATOM      6  C   UNL     1       3.157   5.884  18.256  0.00  0.00    +0.000 C 
BRANCH   6   7
ATOM      7  C   UNL     1       4.120   5.368  17.202  0.00  0.00    +0.000 A 
ATOM      8  C   UNL     1       4.298   3.989  17.027  0.00  0.00    +0.000 A 
ATOM      9  C   UNL     1       5.132   3.504  16.013  0.00  0.00    +0.000 A 
ATOM     10  C   UNL     1       5.801   4.384  15.160  0.00  0.00    +0.000 A 
ATOM     11  C   UNL     1       5.693   5.754  15.381  0.00  0.00    +0.000 A 
ATOM     12  C   UNL     1       4.846   6.244  16.381  0.00  0.00    +0.000 A 
BRANCH  10  13
ATOM     13  O   UNL     1       6.570   3.794  14.205  0.00  0.00    +0.000 OA
BRANCH  13  14
ATOM     14  C   UNL     1       6.051   3.647  12.890  0.00  0.00    +0.000 C 
ATOM     15  F   UNL     1       4.770   4.045  12.741  0.00  0.00    +0.000 F 
ATOM     16  F   UNL     1       6.821   4.351  12.031  0.00  0.00    +0.000 F 
ATOM     17  F   UNL     1       6.118   2.342  12.542  0.00  0.00    +0.000 F 
ENDBRANCH  13  14
ENDBRANCH  10  13
ENDBRANCH   6   7
ENDBRANCH   1   6
BRANCH   2  18
ATOM     18  C   UNL     1       1.618   9.388  18.194  0.00  0.00    +0.000 C 
BRANCH  18  19
ATOM     19  N   UNL     1       0.612  10.069  18.985  0.00  0.00    +0.000 N 
ATOM     20  N   UNL     1       0.889  10.778  20.152  0.00  0.00    +0.000 NA
ATOM     21  C   UNL     1      -0.216  11.415  20.392  0.00  0.00    +0.000 A 
ATOM     22  C   UNL     1      -0.491  12.328  21.507  0.00  0.00    +0.000 A 
ATOM     23  C   UNL     1      -1.704  12.889  21.565  0.00  0.00    +0.000 A 
ATOM     24  C   UNL     1      -2.692  12.547  20.505  0.00  0.00    +0.000 A 
ATOM     25 CL   UNL     1      -4.273  13.229  20.579  0.00  0.00    +0.000 Cl
ATOM     26  N   UNL     1      -2.452  11.754  19.505  0.00  0.00    +0.000 NA
ATOM     27  N   UNL     1      -1.205  11.207  19.493  0.00  0.00    +0.000 N 
ATOM     28  C   UNL     1      -0.689  10.377  18.518  0.00  0.00    +0.000 A 
ATOM     29  O   UNL     1      -1.191  10.018  17.464  0.00  0.00    +0.000 OA
ENDBRANCH  18  19
ENDBRANCH   2  18
TORSDOF 6
ENDMDL
MODEL 6
REMARK VINA RESULT:      -7.8      5.577      9.273
REMARK  Name = 
REMARK  7 active torsions:
REMARK  status: ('A' for Active; 'I' for Inactive)
REMARK    1  A    between atoms: C_1  and  C_2
REMARK    2  A    between atoms: C_2  and  N_3
REMARK    3  A    between atoms: C_2  and  C_18
REMARK    4  A    between atoms: C_4  and  C_6
REMARK    5  A    between atoms: C_6  and  N_7
REMARK    6  A    between atoms: C_21  and  O_22
REMARK    7  A    between atoms: O_22  and  C_23
REMARK                            x       y       z     vdW  Elec       q    Type
REMARK                         _______ _______ _______ _____ _____    ______ ____
ROOT
ATOM      1  N   UNL     1       2.896   6.963  19.708  0.00  0.00    +0.000 N 
ATOM      2  C   UNL     1       2.263   7.451  18.589  0.00  0.00    +0.000 C 
ATOM      3  O   UNL     1       2.017   6.754  17.605  0.00  0.00    +0.000 OA
ATOM      4  H   UNL     1       2.978   7.610  20.489  0.00  0.00    +0.000 HD
ENDROOT
BRANCH   1   6
ATOM      5  C   UNL     1       1.853   4.766  19.996  0.00  0.00    +0.000 C 
ATOM      6  C   UNL     1       3.163   5.553  19.905  0.00  0.00    +0.000 C 
BRANCH   6   7
ATOM      7  C   UNL     1       4.056   5.010  18.804  0.00  0.00    +0.000 A 
ATOM      8  C   UNL     1       3.584   4.010  17.943  0.00  0.00    +0.000 A 
ATOM      9  C   UNL     1       4.376   3.553  16.884  0.00  0.00    +0.000 A 
ATOM     10  C   UNL     1       5.649   4.083  16.667  0.00  0.00    +0.000 A 
ATOM     11  C   UNL     1       6.156   5.017  17.566  0.00  0.00    +0.000 A 
ATOM     12  C   UNL     1       5.361   5.491  18.615  0.00  0.00    +0.000 A 
BRANCH  10  13
ATOM     13  O   UNL     1       6.317   3.569  15.598  0.00  0.00    +0.000 OA
BRANCH  13  14
ATOM     14  C   UNL     1       6.307   4.281  14.368  0.00  0.00    +0.000 C 
ATOM     15  F   UNL     1       7.445   4.953  14.095  0.00  0.00    +0.000 F 
ATOM     16  F   UNL     1       6.069   3.414  13.359  0.00  0.00    +0.000 F 
ATOM     17  F   UNL     1       5.297   5.179  14.396  0.00  0.00    +0.000 F 
ENDBRANCH  13  14
ENDBRANCH  10  13
ENDBRANCH   6   7
ENDBRANCH   1   6
BRANCH   2  18
ATOM     18  C   UNL     1       2.070   8.968  18.565  0.00  0.00    +0.000 C 
BRANCH  18  19
ATOM     19  N   UNL     1       1.155   9.496  19.558  0.00  0.00    +0.000 N 
ATOM     20  N   UNL     1       0.724   8.782  20.675  0.00  0.00    +0.000 NA
ATOM     21  C   UNL     1       0.137   9.681  21.403  0.00  0.00    +0.000 A 
ATOM     22  C   UNL     1      -0.504   9.488  22.709  0.00  0.00    +0.000 A 
ATOM     23  C   UNL     1      -1.050  10.557  23.297  0.00  0.00    +0.000 A 
ATOM     24  C   UNL     1      -0.978  11.865  22.590  0.00  0.00    +0.000 A 
ATOM     25 CL   UNL     1      -1.706  13.251  23.312  0.00  0.00    +0.000 Cl
ATOM     26  N   UNL     1      -0.399  12.051  21.444  0.00  0.00    +0.000 NA
ATOM     27  N   UNL     1       0.138  10.931  20.885  0.00  0.00    +0.000 N 
ATOM     28  C   UNL     1       0.848  10.870  19.702  0.00  0.00    +0.000 A 
ATOM     29  O   UNL     1       1.192  11.777  18.960  0.00  0.00    +0.000 OA
ENDBRANCH  18  19
ENDBRANCH   2  18
TORSDOF 6
ENDMDL
MODEL 7
REMARK VINA RESULT:      -7.7      6.035      9.868
REMARK  Name = 
REMARK  7 active torsions:
REMARK  status: ('A' for Active; 'I' for Inactive)
REMARK    1  A    between atoms: C_1  and  C_2
REMARK    2  A    between atoms: C_2  and  N_3
REMARK    3  A    between atoms: C_2  and  C_18
REMARK    4  A    between atoms: C_4  and  C_6
REMARK    5  A    between atoms: C_6  and  N_7
REMARK    6  A    between atoms: C_21  and  O_22
REMARK    7  A    between atoms: O_22  and  C_23
REMARK                            x       y       z     vdW  Elec       q    Type
REMARK                         _______ _______ _______ _____ _____    ______ ____
ROOT
ATOM      1  N   UNL     1       2.868   7.343  17.802  0.00  0.00    +0.000 N 
ATOM      2  C   UNL     1       2.242   8.206  18.671  0.00  0.00    +0.000 C 
ATOM      3  O   UNL     1       1.979   7.905  19.834  0.00  0.00    +0.000 OA
ATOM      4  H   UNL     1       3.104   7.726  16.889  0.00  0.00    +0.000 HD
ENDROOT
BRANCH   1   6
ATOM      5  C   UNL     1       2.336   5.139  18.729  0.00  0.00    +0.000 C 
ATOM      6  C   UNL     1       3.435   6.079  18.224  0.00  0.00    +0.000 C 
BRANCH   6   7
ATOM      7  C   UNL     1       4.234   5.440  17.103  0.00  0.00    +0.000 A 
ATOM      8  C   UNL     1       4.938   6.242  16.194  0.00  0.00    +0.000 A 
ATOM      9  C   UNL     1       5.730   5.659  15.200  0.00  0.00    +0.000 A 
ATOM     10  C   UNL     1       5.835   4.270  15.094  0.00  0.00    +0.000 A 
ATOM     11  C   UNL     1       5.074   3.469  15.941  0.00  0.00    +0.000 A 
ATOM     12  C   UNL     1       4.295   4.046  16.949  0.00  0.00    +0.000 A 
BRANCH  10  13
ATOM     13  O   UNL     1       6.646   3.823  14.098  0.00  0.00    +0.000 OA
BRANCH  13  14
ATOM     14  C   UNL     1       6.095   3.589  12.809  0.00  0.00    +0.000 C 
ATOM     15  F   UNL     1       6.091   2.296  12.423  0.00  0.00    +0.000 F 
ATOM     16  F   UNL     1       4.825   4.049  12.782  0.00  0.00    +0.000 F 
ATOM     17  F   UNL     1       6.814   4.286  11.899  0.00  0.00    +0.000 F 
ENDBRANCH  13  14
ENDBRANCH  10  13
ENDBRANCH   6   7
ENDBRANCH   1   6
BRANCH   2  18
ATOM     18  C   UNL     1       1.710   9.491  18.036  0.00  0.00    +0.000 C 
BRANCH  18  19
ATOM     19  N   UNL     1       0.681  10.180  18.790  0.00  0.00    +0.000 N 
ATOM     20  N   UNL     1       0.941  11.022  19.869  0.00  0.00    +0.000 NA
ATOM     21  C   UNL     1      -0.199  11.604  20.083  0.00  0.00    +0.000 A 
ATOM     22  C   UNL     1      -0.506  12.607  21.109  0.00  0.00    +0.000 A 
ATOM     23  C   UNL     1      -1.753  13.086  21.155  0.00  0.00    +0.000 A 
ATOM     24  C   UNL     1      -2.745  12.569  20.172  0.00  0.00    +0.000 A 
ATOM     25 CL   UNL     1      -4.368  13.146  20.234  0.00  0.00    +0.000 Cl
ATOM     26  N   UNL     1      -2.479  11.696  19.249  0.00  0.00    +0.000 NA
ATOM     27  N   UNL     1      -1.197  11.237  19.247  0.00  0.00    +0.000 N 
ATOM     28  C   UNL     1      -0.651  10.347  18.342  0.00  0.00    +0.000 A 
ATOM     29  O   UNL     1      -1.157   9.848  17.350  0.00  0.00    +0.000 OA
ENDBRANCH  18  19
ENDBRANCH   2  18
TORSDOF 6
ENDMDL
MODEL 8
REMARK VINA RESULT:      -7.7      0.938      1.377
REMARK  Name = 
REMARK  7 active torsions:
REMARK  status: ('A' for Active; 'I' for Inactive)
REMARK    1  A    between atoms: C_1  and  C_2
REMARK    2  A    between atoms: C_2  and  N_3
REMARK    3  A    between atoms: C_2  and  C_18
REMARK    4  A    between atoms: C_4  and  C_6
REMARK    5  A    between atoms: C_6  and  N_7
REMARK    6  A    between atoms: C_21  and  O_22
REMARK    7  A    between atoms: O_22  and  C_23
REMARK                            x       y       z     vdW  Elec       q    Type
REMARK                         _______ _______ _______ _____ _____    ______ ____
ROOT
ATOM      1  N   UNL     1       3.949   5.026  19.432  0.00  0.00    +0.000 N 
ATOM      2  C   UNL     1       4.373   4.333  18.322  0.00  0.00    +0.000 C 
ATOM      3  O   UNL     1       3.615   3.655  17.630  0.00  0.00    +0.000 OA
ATOM      4  H   UNL     1       4.647   5.614  19.882  0.00  0.00    +0.000 HD
ENDROOT
BRANCH   1   6
ATOM      5  C   UNL     1       2.290   4.646  21.193  0.00  0.00    +0.000 C 
ATOM      6  C   UNL     1       2.550   5.171  19.778  0.00  0.00    +0.000 C 
BRANCH   6   7
ATOM      7  C   UNL     1       2.102   6.614  19.635  0.00  0.00    +0.000 A 
ATOM      8  C   UNL     1       1.502   7.276  20.716  0.00  0.00    +0.000 A 
ATOM      9  C   UNL     1       1.148   8.625  20.613  0.00  0.00    +0.000 A 
ATOM     10  C   UNL     1       1.385   9.336  19.435  0.00  0.00    +0.000 A 
ATOM     11  C   UNL     1       1.904   8.665  18.332  0.00  0.00    +0.000 A 
ATOM     12  C   UNL     1       2.276   7.321  18.435  0.00  0.00    +0.000 A 
BRANCH  10  13
ATOM     13  O   UNL     1       1.011  10.644  19.462  0.00  0.00    +0.000 OA
BRANCH  13  14
ATOM     14  C   UNL     1      -0.373  10.969  19.486  0.00  0.00    +0.000 C 
ATOM     15  F   UNL     1      -0.958  10.859  20.697  0.00  0.00    +0.000 F 
ATOM     16  F   UNL     1      -0.536  12.235  19.044  0.00  0.00    +0.000 F 
ATOM     17  F   UNL     1      -1.026  10.141  18.639  0.00  0.00    +0.000 F 
ENDBRANCH  13  14
ENDBRANCH  10  13
ENDBRANCH   6   7
ENDBRANCH   1   6
BRANCH   2  18
ATOM     18  C   UNL     1       5.889   4.293  18.125  0.00  0.00    +0.000 C 
BRANCH  18  19
ATOM     19  N   UNL     1       6.338   4.295  16.746  0.00  0.00    +0.000 N 
ATOM     20  N   UNL     1       5.836   3.443  15.764  0.00  0.00    +0.000 NA
ATOM     21  C   UNL     1       6.316   3.933  14.662  0.00  0.00    +0.000 A 
ATOM     22  C   UNL     1       6.102   3.431  13.300  0.00  0.00    +0.000 A 
ATOM     23  C   UNL     1       6.688   4.092  12.296  0.00  0.00    +0.000 A 
ATOM     24  C   UNL     1       7.520   5.283  12.625  0.00  0.00    +0.000 A 
ATOM     25 CL   UNL     1       8.315   6.129  11.351  0.00  0.00    +0.000 Cl
ATOM     26  N   UNL     1       7.701   5.745  13.824  0.00  0.00    +0.000 NA
ATOM     27  N   UNL     1       7.086   5.035  14.811  0.00  0.00    +0.000 N 
ATOM     28  C   UNL     1       7.081   5.345  16.156  0.00  0.00    +0.000 A 
ATOM     29  O   UNL     1       7.552   6.317  16.726  0.00  0.00    +0.000 OA
ENDBRANCH  18  19
ENDBRANCH   2  18
TORSDOF 6
ENDMDL
MODEL 9
REMARK VINA RESULT:      -7.6      5.294      8.725
REMARK  Name = 
REMARK  7 active torsions:
REMARK  status: ('A' for Active; 'I' for Inactive)
REMARK    1  A    between atoms: C_1  and  C_2
REMARK    2  A    between atoms: C_2  and  N_3
REMARK    3  A    between atoms: C_2  and  C_18
REMARK    4  A    between atoms: C_4  and  C_6
REMARK    5  A    between atoms: C_6  and  N_7
REMARK    6  A    between atoms: C_21  and  O_22
REMARK    7  A    between atoms: O_22  and  C_23
REMARK                            x       y       z     vdW  Elec       q    Type
REMARK                         _______ _______ _______ _____ _____    ______ ____
ROOT
ATOM      1  N   UNL     1       2.070   7.539  19.859  0.00  0.00    +0.000 N 
ATOM      2  C   UNL     1       1.542   8.452  20.742  0.00  0.00    +0.000 C 
ATOM      3  O   UNL     1       1.156   8.142  21.868  0.00  0.00    +0.000 OA
ATOM      4  H   UNL     1       2.426   7.922  18.986  0.00  0.00    +0.000 HD
ENDROOT
BRANCH   1   6
ATOM      5  C   UNL     1       1.109   5.373  20.476  0.00  0.00    +0.000 C 
ATOM      6  C   UNL     1       2.389   6.178  20.235  0.00  0.00    +0.000 C 
BRANCH   6   7
ATOM      7  C   UNL     1       3.267   5.516  19.188  0.00  0.00    +0.000 A 
ATOM      8  C   UNL     1       2.685   4.854  18.098  0.00  0.00    +0.000 A 
ATOM      9  C   UNL     1       3.487   4.300  17.094  0.00  0.00    +0.000 A 
ATOM     10  C   UNL     1       4.878   4.397  17.159  0.00  0.00    +0.000 A 
ATOM     11  C   UNL     1       5.464   4.981  18.279  0.00  0.00    +0.000 A 
ATOM     12  C   UNL     1       4.667   5.552  19.276  0.00  0.00    +0.000 A 
BRANCH  10  13
ATOM     13  O   UNL     1       5.548   3.834  16.118  0.00  0.00    +0.000 OA
BRANCH  13  14
ATOM     14  C   UNL     1       5.858   4.630  14.982  0.00  0.00    +0.000 C 
ATOM     15  F   UNL     1       7.173   4.707  14.688  0.00  0.00    +0.000 F 
ATOM     16  F   UNL     1       5.206   4.136  13.907  0.00  0.00    +0.000 F 
ATOM     17  F   UNL     1       5.412   5.888  15.201  0.00  0.00    +0.000 F 
ENDBRANCH  13  14
ENDBRANCH  10  13
ENDBRANCH   6   7
ENDBRANCH   1   6
BRANCH   2  18
ATOM     18  C   UNL     1       1.275   9.839  20.157  0.00  0.00    +0.000 C 
BRANCH  18  19
ATOM     19  N   UNL     1       0.055   9.965  19.383  0.00  0.00    +0.000 N 
ATOM     20  N   UNL     1      -1.017  10.776  19.749  0.00  0.00    +0.000 NA
ATOM     21  C   UNL     1      -1.767  10.787  18.690  0.00  0.00    +0.000 A 
ATOM     22  C   UNL     1      -3.038  11.497  18.508  0.00  0.00    +0.000 A 
ATOM     23  C   UNL     1      -3.652  11.378  17.327  0.00  0.00    +0.000 A 
ATOM     24  C   UNL     1      -3.011  10.534  16.280  0.00  0.00    +0.000 A 
ATOM     25 CL   UNL     1      -3.801  10.337  14.760  0.00  0.00    +0.000 Cl
ATOM     26  N   UNL     1      -1.879   9.917  16.424  0.00  0.00    +0.000 NA
ATOM     27  N   UNL     1      -1.296  10.067  17.646  0.00  0.00    +0.000 N 
ATOM     28  C   UNL     1      -0.073   9.557  18.034  0.00  0.00    +0.000 A 
ATOM     29  O   UNL     1       0.751   8.942  17.375  0.00  0.00    +0.000 OA
ENDBRANCH  18  19
ENDBRANCH   2  18
TORSDOF 6
ENDMDL
