MODEL 1
REMARK VINA RESULT:      -6.4      0.000      0.000
REMARK  Name = 
REMARK  7 active torsions:
REMARK  status: ('A' for Active; 'I' for Inactive)
REMARK    1  A    between atoms: C_1  and  C_2
REMARK    2  A    between atoms: C_2  and  C_3
REMARK    3  A    between atoms: C_2  and  C_4
REMARK    4  A    between atoms: C_6  and  C_7
REMARK    5  A    between atoms: C_14  and  C_15
REMARK    6  A    between atoms: C_15  and  C_16
REMARK    7  A    between atoms: C_15  and  C_17
REMARK                            x       y       z     vdW  Elec       q    Type
REMARK                         _______ _______ _______ _____ _____    ______ ____
ROOT
ATOM      1  C   UNL     1      -4.473  12.045  18.822  0.00  0.00    +0.000 A 
ATOM      2  C   UNL     1      -4.531  12.593  20.134  0.00  0.00    +0.000 A 
ATOM      3  C   UNL     1      -3.413  12.771  20.948  0.00  0.00    +0.000 A 
ATOM      4  C   UNL     1      -2.209  12.340  20.401  0.00  0.00    +0.000 A 
ATOM      5  C   UNL     1      -2.094  11.829  19.085  0.00  0.00    +0.000 A 
ATOM      6  N   UNL     1      -3.233  11.693  18.306  0.00  0.00    +0.000 N 
ATOM      7  C   UNL     1      -3.104  11.125  17.009  0.00  0.00    +0.000 A 
ATOM      8  N   UNL     1      -2.284  10.125  16.740  0.00  0.00    +0.000 NA
ATOM      9  C   UNL     1      -2.542   9.708  15.463  0.00  0.00    +0.000 A 
ATOM     10  C   UNL     1      -3.503  10.499  14.896  0.00  0.00    +0.000 A 
ATOM     11  N   UNL     1      -3.767  11.456  15.839  0.00  0.00    +0.000 N 
ATOM     12  H   UNL     1      -4.429  12.202  15.712  0.00  0.00    +0.000 HD
ENDROOT
BRANCH   3  13
ATOM     13  C   UNL     1      -3.490  13.421  22.288  0.00  0.00    +0.000 A 
ATOM     14  C   UNL     1      -3.208  14.787  22.469  0.00  0.00    +0.000 A 
ATOM     15  C   UNL     1      -3.206  15.378  23.740  0.00  0.00    +0.000 A 
ATOM     16  C   UNL     1      -3.507  14.623  24.870  0.00  0.00    +0.000 A 
ATOM     17  C   UNL     1      -3.829  13.280  24.722  0.00  0.00    +0.000 A 
ATOM     18  C   UNL     1      -3.819  12.689  23.451  0.00  0.00    +0.000 A 
ENDBRANCH   3  13
BRANCH   1  20
ATOM     19  C   UNL     1      -6.759  10.860  18.499  0.00  0.00    +0.000 C 
ATOM     20  C   UNL     1      -5.770  11.932  17.997  0.00  0.00    +0.000 C 
ATOM     21  C   UNL     1      -6.505  13.242  17.654  0.00  0.00    +0.000 C 
ENDBRANCH   1  20
BRANCH   5  22
ATOM     22  C   UNL     1      -0.678  11.561  18.531  0.00  0.00    +0.000 C 
ATOM     23  C   UNL     1       0.238  12.799  18.459  0.00  0.00    +0.000 C 
ATOM     24  C   UNL     1       0.058  10.464  19.310  0.00  0.00    +0.000 C 
ENDBRANCH   5  22
TORSDOF 3
ENDMDL
MODEL 2
REMARK VINA RESULT:      -6.2      0.652      3.657
REMARK  Name = 
REMARK  7 active torsions:
REMARK  status: ('A' for Active; 'I' for Inactive)
REMARK    1  A    between atoms: C_1  and  C_2
REMARK    2  A    between atoms: C_2  and  C_3
REMARK    3  A    between atoms: C_2  and  C_4
REMARK    4  A    between atoms: C_6  and  C_7
REMARK    5  A    between atoms: C_14  and  C_15
REMARK    6  A    between atoms: C_15  and  C_16
REMARK    7  A    between atoms: C_15  and  C_17
REMARK                            x       y       z     vdW  Elec       q    Type
REMARK                         _______ _______ _______ _____ _____    ______ ____
ROOT
ATOM      1  C   UNL     1      -2.394  12.011  19.012  0.00  0.00    +0.000 A 
ATOM      2  C   UNL     1      -2.572  12.716  20.235  0.00  0.00    +0.000 A 
ATOM      3  C   UNL     1      -3.821  13.032  20.771  0.00  0.00    +0.000 A 
ATOM      4  C   UNL     1      -4.910  12.635  20.004  0.00  0.00    +0.000 A 
ATOM      5  C   UNL     1      -4.786  11.895  18.804  0.00  0.00    +0.000 A 
ATOM      6  N   UNL     1      -3.522  11.584  18.323  0.00  0.00    +0.000 N 
ATOM      7  C   UNL     1      -3.417  10.890  17.087  0.00  0.00    +0.000 A 
ATOM      8  N   UNL     1      -4.216  11.123  16.062  0.00  0.00    +0.000 NA
ATOM      9  C   UNL     1      -3.729  10.426  14.989  0.00  0.00    +0.000 A 
ATOM     10  C   UNL     1      -2.637   9.694  15.363  0.00  0.00    +0.000 A 
ATOM     11  N   UNL     1      -2.519   9.906  16.710  0.00  0.00    +0.000 N 
ATOM     12  H   UNL     1      -1.808   9.486  17.285  0.00  0.00    +0.000 HD
ENDROOT
BRANCH   3  13
ATOM     13  C   UNL     1      -3.980  13.701  22.094  0.00  0.00    +0.000 A 
ATOM     14  C   UNL     1      -4.546  14.983  22.214  0.00  0.00    +0.000 A 
ATOM     15  C   UNL     1      -4.624  15.643  23.449  0.00  0.00    +0.000 A 
ATOM     16  C   UNL     1      -4.156  15.029  24.607  0.00  0.00    +0.000 A 
ATOM     17  C   UNL     1      -3.629  13.747  24.530  0.00  0.00    +0.000 A 
ATOM     18  C   UNL     1      -3.541  13.095  23.292  0.00  0.00    +0.000 A 
ENDBRANCH   3  13
BRANCH   1  20
ATOM     19  C   UNL     1      -0.067  12.912  18.302  0.00  0.00    +0.000 C 
ATOM     20  C   UNL     1      -0.966  11.681  18.535  0.00  0.00    +0.000 C 
ATOM     21  C   UNL     1      -0.204  10.581  19.299  0.00  0.00    +0.000 C 
ENDBRANCH   1  20
BRANCH   5  22
ATOM     22  C   UNL     1      -6.074  11.355  18.146  0.00  0.00    +0.000 C 
ATOM     23  C   UNL     1      -6.780  10.228  18.923  0.00  0.00    +0.000 C 
ATOM     24  C   UNL     1      -7.100  12.462  17.870  0.00  0.00    +0.000 C 
ENDBRANCH   5  22
TORSDOF 3
ENDMDL
MODEL 3
REMARK VINA RESULT:      -6.1      0.553      3.761
REMARK  Name = 
REMARK  7 active torsions:
REMARK  status: ('A' for Active; 'I' for Inactive)
REMARK    1  A    between atoms: C_1  and  C_2
REMARK    2  A    between atoms: C_2  and  C_3
REMARK    3  A    between atoms: C_2  and  C_4
REMARK    4  A    between atoms: C_6  and  C_7
REMARK    5  A    between atoms: C_14  and  C_15
REMARK    6  A    between atoms: C_15  and  C_16
REMARK    7  A    between atoms: C_15  and  C_17
REMARK                            x       y       z     vdW  Elec       q    Type
REMARK                         _______ _______ _______ _____ _____    ______ ____
ROOT
ATOM      1  C   UNL     1      -2.305  11.950  18.949  0.00  0.00    +0.000 A 
ATOM      2  C   UNL     1      -2.458  12.639  20.183  0.00  0.00    +0.000 A 
ATOM      3  C   UNL     1      -3.696  12.966  20.738  0.00  0.00    +0.000 A 
ATOM      4  C   UNL     1      -4.800  12.598  19.978  0.00  0.00    +0.000 A 
ATOM      5  C   UNL     1      -4.700  11.874  18.766  0.00  0.00    +0.000 A 
ATOM      6  N   UNL     1      -3.447  11.551  18.266  0.00  0.00    +0.000 N 
ATOM      7  C   UNL     1      -3.367  10.874  17.019  0.00  0.00    +0.000 A 
ATOM      8  N   UNL     1      -4.174  11.135  16.006  0.00  0.00    +0.000 NA
ATOM      9  C   UNL     1      -3.710  10.447  14.918  0.00  0.00    +0.000 A 
ATOM     10  C   UNL     1      -2.625   9.692  15.268  0.00  0.00    +0.000 A 
ATOM     11  N   UNL     1      -2.489   9.882  16.617  0.00  0.00    +0.000 N 
ATOM     12  H   UNL     1      -1.778   9.442  17.178  0.00  0.00    +0.000 HD
ENDROOT
BRANCH   3  13
ATOM     13  C   UNL     1      -3.830  13.618  22.073  0.00  0.00    +0.000 A 
ATOM     14  C   UNL     1      -3.596  12.918  23.270  0.00  0.00    +0.000 A 
ATOM     15  C   UNL     1      -3.798  13.511  24.524  0.00  0.00    +0.000 A 
ATOM     16  C   UNL     1      -4.222  14.833  24.619  0.00  0.00    +0.000 A 
ATOM     17  C   UNL     1      -4.425  15.565  23.457  0.00  0.00    +0.000 A 
ATOM     18  C   UNL     1      -4.233  14.966  22.204  0.00  0.00    +0.000 A 
ENDBRANCH   3  13
BRANCH   1  20
ATOM     19  C   UNL     1       0.061  12.814  18.327  0.00  0.00    +0.000 C 
ATOM     20  C   UNL     1      -0.887  11.605  18.451  0.00  0.00    +0.000 C 
ATOM     21  C   UNL     1      -0.176  10.414  19.120  0.00  0.00    +0.000 C 
ENDBRANCH   1  20
BRANCH   5  22
ATOM     22  C   UNL     1      -6.005  11.365  18.114  0.00  0.00    +0.000 C 
ATOM     23  C   UNL     1      -6.747  10.274  18.910  0.00  0.00    +0.000 C 
ATOM     24  C   UNL     1      -6.994  12.499  17.818  0.00  0.00    +0.000 C 
ENDBRANCH   5  22
TORSDOF 3
ENDMDL
MODEL 4
REMARK VINA RESULT:      -6.0      1.204      1.537
REMARK  Name = 
REMARK  7 active torsions:
REMARK  status: ('A' for Active; 'I' for Inactive)
REMARK    1  A    between atoms: C_1  and  C_2
REMARK    2  A    between atoms: C_2  and  C_3
REMARK    3  A    between atoms: C_2  and  C_4
REMARK    4  A    between atoms: C_6  and  C_7
REMARK    5  A    between atoms: C_14  and  C_15
REMARK    6  A    between atoms: C_15  and  C_16
REMARK    7  A    between atoms: C_15  and  C_17
REMARK                            x       y       z     vdW  Elec       q    Type
REMARK                         _______ _______ _______ _____ _____    ______ ____
ROOT
ATOM      1  C   UNL     1      -4.055  12.541  19.904  0.00  0.00    +0.000 A 
ATOM      2  C   UNL     1      -3.865  13.119  21.189  0.00  0.00    +0.000 A 
ATOM      3  C   UNL     1      -2.629  13.183  21.834  0.00  0.00    +0.000 A 
ATOM      4  C   UNL     1      -1.572  12.602  21.143  0.00  0.00    +0.000 A 
ATOM      5  C   UNL     1      -1.703  12.053  19.845  0.00  0.00    +0.000 A 
ATOM      6  N   UNL     1      -2.948  12.034  19.235  0.00  0.00    +0.000 N 
ATOM      7  C   UNL     1      -3.070  11.427  17.955  0.00  0.00    +0.000 A 
ATOM      8  N   UNL     1      -2.414  10.333  17.614  0.00  0.00    +0.000 NA
ATOM      9  C   UNL     1      -2.895   9.921  16.401  0.00  0.00    +0.000 A 
ATOM     10  C   UNL     1      -3.831  10.807  15.943  0.00  0.00    +0.000 A 
ATOM     11  N   UNL     1      -3.848  11.809  16.876  0.00  0.00    +0.000 N 
ATOM     12  H   UNL     1      -4.434  12.624  16.814  0.00  0.00    +0.000 HD
ENDROOT
BRANCH   3  13
ATOM     13  C   UNL     1      -2.442  13.866  23.146  0.00  0.00    +0.000 A 
ATOM     14  C   UNL     1      -3.465  13.916  24.111  0.00  0.00    +0.000 A 
ATOM     15  C   UNL     1      -3.314  14.625  25.311  0.00  0.00    +0.000 A 
ATOM     16  C   UNL     1      -2.124  15.289  25.593  0.00  0.00    +0.000 A 
ATOM     17  C   UNL     1      -1.079  15.226  24.680  0.00  0.00    +0.000 A 
ATOM     18  C   UNL     1      -1.237  14.527  23.475  0.00  0.00    +0.000 A 
ENDBRANCH   3  13
BRANCH   1  20
ATOM     19  C   UNL     1      -6.396  11.432  19.744  0.00  0.00    +0.000 C 
ATOM     20  C   UNL     1      -5.460  12.563  19.270  0.00  0.00    +0.000 C 
ATOM     21  C   UNL     1      -6.200  13.914  19.242  0.00  0.00    +0.000 C 
ENDBRANCH   1  20
BRANCH   5  22
ATOM     22  C   UNL     1      -0.418  11.608  19.111  0.00  0.00    +0.000 C 
ATOM     23  C   UNL     1       0.498  12.757  18.647  0.00  0.00    +0.000 C 
ATOM     24  C   UNL     1       0.422  10.630  19.941  0.00  0.00    +0.000 C 
ENDBRANCH   5  22
TORSDOF 3
ENDMDL
MODEL 5
REMARK VINA RESULT:      -5.9     11.438     13.279
REMARK  Name = 
REMARK  7 active torsions:
REMARK  status: ('A' for Active; 'I' for Inactive)
REMARK    1  A    between atoms: C_1  and  C_2
REMARK    2  A    between atoms: C_2  and  C_3
REMARK    3  A    between atoms: C_2  and  C_4
REMARK    4  A    between atoms: C_6  and  C_7
REMARK    5  A    between atoms: C_14  and  C_15
REMARK    6  A    between atoms: C_15  and  C_16
REMARK    7  A    between atoms: C_15  and  C_17
REMARK                            x       y       z     vdW  Elec       q    Type
REMARK                         _______ _______ _______ _____ _____    ______ ____
ROOT
ATOM      1  C   UNL     1       9.790  12.875  20.187  0.00  0.00    +0.000 A 
ATOM      2  C   UNL     1       9.207  12.358  21.377  0.00  0.00    +0.000 A 
ATOM      3  C   UNL     1       8.603  13.153  22.351  0.00  0.00    +0.000 A 
ATOM      4  C   UNL     1       8.634  14.520  22.101  0.00  0.00    +0.000 A 
ATOM      5  C   UNL     1       9.163  15.079  20.913  0.00  0.00    +0.000 A 
ATOM      6  N   UNL     1       9.732  14.245  19.963  0.00  0.00    +0.000 N 
ATOM      7  C   UNL     1      10.310  14.830  18.803  0.00  0.00    +0.000 A 
ATOM      8  N   UNL     1      10.986  15.965  18.831  0.00  0.00    +0.000 NA
ATOM      9  C   UNL     1      11.552  16.142  17.598  0.00  0.00    +0.000 A 
ATOM     10  C   UNL     1      11.177  15.129  16.760  0.00  0.00    +0.000 A 
ATOM     11  N   UNL     1      10.305  14.372  17.497  0.00  0.00    +0.000 N 
ATOM     12  H   UNL     1       9.840  13.552  17.147  0.00  0.00    +0.000 HD
ENDROOT
BRANCH   3  13
ATOM     13  C   UNL     1       7.928  12.579  23.551  0.00  0.00    +0.000 A 
ATOM     14  C   UNL     1       6.728  11.853  23.453  0.00  0.00    +0.000 A 
ATOM     15  C   UNL     1       6.055  11.381  24.589  0.00  0.00    +0.000 A 
ATOM     16  C   UNL     1       6.576  11.604  25.860  0.00  0.00    +0.000 A 
ATOM     17  C   UNL     1       7.780  12.283  25.991  0.00  0.00    +0.000 A 
ATOM     18  C   UNL     1       8.445  12.764  24.854  0.00  0.00    +0.000 A 
ENDBRANCH   3  13
BRANCH   1  20
ATOM     19  C   UNL     1      11.889  11.584  19.375  0.00  0.00    +0.000 C 
ATOM     20  C   UNL     1      10.394  11.898  19.159  0.00  0.00    +0.000 C 
ATOM     21  C   UNL     1       9.600  10.613  18.856  0.00  0.00    +0.000 C 
ENDBRANCH   1  20
BRANCH   5  22
ATOM     22  C   UNL     1       8.970  16.592  20.673  0.00  0.00    +0.000 C 
ATOM     23  C   UNL     1       7.544  17.010  20.263  0.00  0.00    +0.000 C 
ATOM     24  C   UNL     1       9.387  17.436  21.884  0.00  0.00    +0.000 C 
ENDBRANCH   5  22
TORSDOF 3
ENDMDL
MODEL 6
REMARK VINA RESULT:      -5.9      1.199      1.346
REMARK  Name = 
REMARK  7 active torsions:
REMARK  status: ('A' for Active; 'I' for Inactive)
REMARK    1  A    between atoms: C_1  and  C_2
REMARK    2  A    between atoms: C_2  and  C_3
REMARK    3  A    between atoms: C_2  and  C_4
REMARK    4  A    between atoms: C_6  and  C_7
REMARK    5  A    between atoms: C_14  and  C_15
REMARK    6  A    between atoms: C_15  and  C_16
REMARK    7  A    between atoms: C_15  and  C_17
REMARK                            x       y       z     vdW  Elec       q    Type
REMARK                         _______ _______ _______ _____ _____    ______ ____
ROOT
ATOM      1  C   UNL     1      -4.088  12.579  19.896  0.00  0.00    +0.000 A 
ATOM      2  C   UNL     1      -3.900  13.188  21.168  0.00  0.00    +0.000 A 
ATOM      3  C   UNL     1      -2.660  13.297  21.798  0.00  0.00    +0.000 A 
ATOM      4  C   UNL     1      -1.595  12.731  21.106  0.00  0.00    +0.000 A 
ATOM      5  C   UNL     1      -1.724  12.154  19.820  0.00  0.00    +0.000 A 
ATOM      6  N   UNL     1      -2.975  12.090  19.225  0.00  0.00    +0.000 N 
ATOM      7  C   UNL     1      -3.094  11.455  17.958  0.00  0.00    +0.000 A 
ATOM      8  N   UNL     1      -2.412  10.372  17.631  0.00  0.00    +0.000 NA
ATOM      9  C   UNL     1      -2.895   9.924  16.432  0.00  0.00    +0.000 A 
ATOM     10  C   UNL     1      -3.859  10.776  15.967  0.00  0.00    +0.000 A 
ATOM     11  N   UNL     1      -3.894  11.794  16.881  0.00  0.00    +0.000 N 
ATOM     12  H   UNL     1      -4.502  12.593  16.809  0.00  0.00    +0.000 HD
ENDROOT
BRANCH   3  13
ATOM     13  C   UNL     1      -2.478  14.010  23.095  0.00  0.00    +0.000 A 
ATOM     14  C   UNL     1      -1.269  14.647  23.429  0.00  0.00    +0.000 A 
ATOM     15  C   UNL     1      -1.074  15.250  24.680  0.00  0.00    +0.000 A 
ATOM     16  C   UNL     1      -2.092  15.251  25.629  0.00  0.00    +0.000 A 
ATOM     17  C   UNL     1      -3.311  14.666  25.317  0.00  0.00    +0.000 A 
ATOM     18  C   UNL     1      -3.500  14.053  24.070  0.00  0.00    +0.000 A 
ENDBRANCH   3  13
BRANCH   1  20
ATOM     19  C   UNL     1      -6.410  11.425  19.807  0.00  0.00    +0.000 C 
ATOM     20  C   UNL     1      -5.500  12.551  19.278  0.00  0.00    +0.000 C 
ATOM     21  C   UNL     1      -6.264  13.887  19.204  0.00  0.00    +0.000 C 
ENDBRANCH   1  20
BRANCH   5  22
ATOM     22  C   UNL     1      -0.436  11.730  19.081  0.00  0.00    +0.000 C 
ATOM     23  C   UNL     1       0.447  12.894  18.591  0.00  0.00    +0.000 C 
ATOM     24  C   UNL     1       0.436  10.785  19.917  0.00  0.00    +0.000 C 
ENDBRANCH   5  22
TORSDOF 3
ENDMDL
MODEL 7
REMARK VINA RESULT:      -5.8      2.343      6.504
REMARK  Name = 
REMARK  7 active torsions:
REMARK  status: ('A' for Active; 'I' for Inactive)
REMARK    1  A    between atoms: C_1  and  C_2
REMARK    2  A    between atoms: C_2  and  C_3
REMARK    3  A    between atoms: C_2  and  C_4
REMARK    4  A    between atoms: C_6  and  C_7
REMARK    5  A    between atoms: C_14  and  C_15
REMARK    6  A    between atoms: C_15  and  C_16
REMARK    7  A    between atoms: C_15  and  C_17
REMARK                            x       y       z     vdW  Elec       q    Type
REMARK                         _______ _______ _______ _____ _____    ______ ____
ROOT
ATOM      1  C   UNL     1      -1.200  12.058  20.700  0.00  0.00    +0.000 A 
ATOM      2  C   UNL     1      -0.183  11.094  20.452  0.00  0.00    +0.000 A 
ATOM      3  C   UNL     1      -0.223  10.182  19.397  0.00  0.00    +0.000 A 
ATOM      4  C   UNL     1      -1.360  10.250  18.601  0.00  0.00    +0.000 A 
ATOM      5  C   UNL     1      -2.377  11.218  18.781  0.00  0.00    +0.000 A 
ATOM      6  N   UNL     1      -2.281  12.119  19.831  0.00  0.00    +0.000 N 
ATOM      7  C   UNL     1      -3.341  13.046  20.029  0.00  0.00    +0.000 A 
ATOM      8  N   UNL     1      -4.612  12.733  19.853  0.00  0.00    +0.000 NA
ATOM      9  C   UNL     1      -5.364  13.784  20.303  0.00  0.00    +0.000 A 
ATOM     10  C   UNL     1      -4.549  14.802  20.715  0.00  0.00    +0.000 A 
ATOM     11  N   UNL     1      -3.281  14.369  20.432  0.00  0.00    +0.000 N 
ATOM     12  H   UNL     1      -2.451  14.909  20.609  0.00  0.00    +0.000 HD
ENDROOT
BRANCH   3  13
ATOM     13  C   UNL     1       0.894   9.236  19.112  0.00  0.00    +0.000 A 
ATOM     14  C   UNL     1       1.543   9.206  17.865  0.00  0.00    +0.000 A 
ATOM     15  C   UNL     1       2.539   8.264  17.573  0.00  0.00    +0.000 A 
ATOM     16  C   UNL     1       2.931   7.333  18.530  0.00  0.00    +0.000 A 
ATOM     17  C   UNL     1       2.339   7.360  19.785  0.00  0.00    +0.000 A 
ATOM     18  C   UNL     1       1.334   8.295  20.071  0.00  0.00    +0.000 A 
ENDBRANCH   3  13
BRANCH   1  20
ATOM     19  C   UNL     1      -1.379  12.460  23.257  0.00  0.00    +0.000 C 
ATOM     20  C   UNL     1      -1.031  13.044  21.874  0.00  0.00    +0.000 C 
ATOM     21  C   UNL     1       0.278  13.853  21.931  0.00  0.00    +0.000 C 
ENDBRANCH   1  20
BRANCH   5  22
ATOM     22  C   UNL     1      -3.493  11.305  17.718  0.00  0.00    +0.000 C 
ATOM     23  C   UNL     1      -3.001  11.353  16.258  0.00  0.00    +0.000 C 
ATOM     24  C   UNL     1      -4.513  10.167  17.842  0.00  0.00    +0.000 C 
ENDBRANCH   5  22
TORSDOF 3
ENDMDL
MODEL 8
REMARK VINA RESULT:      -5.8      2.137      5.837
REMARK  Name = 
REMARK  7 active torsions:
REMARK  status: ('A' for Active; 'I' for Inactive)
REMARK    1  A    between atoms: C_1  and  C_2
REMARK    2  A    between atoms: C_2  and  C_3
REMARK    3  A    between atoms: C_2  and  C_4
REMARK    4  A    between atoms: C_6  and  C_7
REMARK    5  A    between atoms: C_14  and  C_15
REMARK    6  A    between atoms: C_15  and  C_16
REMARK    7  A    between atoms: C_15  and  C_17
REMARK                            x       y       z     vdW  Elec       q    Type
REMARK                         _______ _______ _______ _____ _____    ______ ____
ROOT
ATOM      1  C   UNL     1      -2.943  11.556  18.794  0.00  0.00    +0.000 A 
ATOM      2  C   UNL     1      -1.822  10.706  18.580  0.00  0.00    +0.000 A 
ATOM      3  C   UNL     1      -0.736  10.626  19.451  0.00  0.00    +0.000 A 
ATOM      4  C   UNL     1      -0.798  11.471  20.553  0.00  0.00    +0.000 A 
ATOM      5  C   UNL     1      -1.909  12.302  20.831  0.00  0.00    +0.000 A 
ATOM      6  N   UNL     1      -2.977  12.330  19.947  0.00  0.00    +0.000 N 
ATOM      7  C   UNL     1      -4.058  13.214  20.214  0.00  0.00    +0.000 A 
ATOM      8  N   UNL     1      -3.890  14.424  20.715  0.00  0.00    +0.000 NA
ATOM      9  C   UNL     1      -5.100  15.063  20.672  0.00  0.00    +0.000 A 
ATOM     10  C   UNL     1      -6.060  14.217  20.190  0.00  0.00    +0.000 A 
ATOM     11  N   UNL     1      -5.414  13.022  20.013  0.00  0.00    +0.000 N 
ATOM     12  H   UNL     1      -5.862  12.187  19.677  0.00  0.00    +0.000 HD
ENDROOT
BRANCH   3  13
ATOM     13  C   UNL     1       0.389   9.668  19.246  0.00  0.00    +0.000 A 
ATOM     14  C   UNL     1       1.011   9.509  17.994  0.00  0.00    +0.000 A 
ATOM     15  C   UNL     1       2.015   8.554  17.784  0.00  0.00    +0.000 A 
ATOM     16  C   UNL     1       2.444   7.741  18.829  0.00  0.00    +0.000 A 
ATOM     17  C   UNL     1       1.880   7.899  20.087  0.00  0.00    +0.000 A 
ATOM     18  C   UNL     1       0.867   8.847  20.292  0.00  0.00    +0.000 A 
ENDBRANCH   3  13
BRANCH   1  20
ATOM     19  C   UNL     1      -3.673  11.455  16.306  0.00  0.00    +0.000 C 
ATOM     20  C   UNL     1      -4.107  11.533  17.784  0.00  0.00    +0.000 C 
ATOM     21  C   UNL     1      -5.269  10.562  18.068  0.00  0.00    +0.000 C 
ENDBRANCH   1  20
BRANCH   5  22
ATOM     22  C   UNL     1      -1.936  13.052  22.181  0.00  0.00    +0.000 C 
ATOM     23  C   UNL     1      -2.372  12.202  23.390  0.00  0.00    +0.000 C 
ATOM     24  C   UNL     1      -0.590  13.706  22.515  0.00  0.00    +0.000 C 
ENDBRANCH   5  22
TORSDOF 3
ENDMDL
MODEL 9
REMARK VINA RESULT:      -5.8     11.539     13.316
REMARK  Name = 
REMARK  7 active torsions:
REMARK  status: ('A' for Active; 'I' for Inactive)
REMARK    1  A    between atoms: C_1  and  C_2
REMARK    2  A    between atoms: C_2  and  C_3
REMARK    3  A    between atoms: C_2  and  C_4
REMARK    4  A    between atoms: C_6  and  C_7
REMARK    5  A    between atoms: C_14  and  C_15
REMARK    6  A    between atoms: C_15  and  C_16
REMARK    7  A    between atoms: C_15  and  C_17
REMARK                            x       y       z     vdW  Elec       q    Type
REMARK                         _______ _______ _______ _____ _____    ______ ____
ROOT
ATOM      1  C   UNL     1       9.898  13.087  20.274  0.00  0.00    +0.000 A 
ATOM      2  C   UNL     1       9.310  12.586  21.468  0.00  0.00    +0.000 A 
ATOM      3  C   UNL     1       8.595  13.377  22.368  0.00  0.00    +0.000 A 
ATOM      4  C   UNL     1       8.518  14.725  22.038  0.00  0.00    +0.000 A 
ATOM      5  C   UNL     1       9.049  15.262  20.841  0.00  0.00    +0.000 A 
ATOM      6  N   UNL     1       9.732  14.430  19.966  0.00  0.00    +0.000 N 
ATOM      7  C   UNL     1      10.307  15.000  18.797  0.00  0.00    +0.000 A 
ATOM      8  N   UNL     1      10.879  16.190  18.784  0.00  0.00    +0.000 NA
ATOM      9  C   UNL     1      11.483  16.348  17.566  0.00  0.00    +0.000 A 
ATOM     10  C   UNL     1      11.236  15.260  16.776  0.00  0.00    +0.000 A 
ATOM     11  N   UNL     1      10.401  14.470  17.521  0.00  0.00    +0.000 N 
ATOM     12  H   UNL     1      10.026  13.593  17.203  0.00  0.00    +0.000 HD
ENDROOT
BRANCH   3  13
ATOM     13  C   UNL     1       7.920  12.813  23.573  0.00  0.00    +0.000 A 
ATOM     14  C   UNL     1       8.378  13.080  24.875  0.00  0.00    +0.000 A 
ATOM     15  C   UNL     1       7.790  12.486  26.001  0.00  0.00    +0.000 A 
ATOM     16  C   UNL     1       6.710  11.622  25.859  0.00  0.00    +0.000 A 
ATOM     17  C   UNL     1       6.207  11.367  24.590  0.00  0.00    +0.000 A 
ATOM     18  C   UNL     1       6.804  11.952  23.465  0.00  0.00    +0.000 A 
ENDBRANCH   3  13
BRANCH   1  20
ATOM     19  C   UNL     1      12.103  11.842  19.706  0.00  0.00    +0.000 C 
ATOM     20  C   UNL     1      10.632  12.111  19.331  0.00  0.00    +0.000 C 
ATOM     21  C   UNL     1       9.907  10.801  18.969  0.00  0.00    +0.000 C 
ENDBRANCH   1  20
BRANCH   5  22
ATOM     22  C   UNL     1       8.735  16.736  20.503  0.00  0.00    +0.000 C 
ATOM     23  C   UNL     1       7.310  16.993  19.975  0.00  0.00    +0.000 C 
ATOM     24  C   UNL     1       8.984  17.675  21.689  0.00  0.00    +0.000 C 
ENDBRANCH   5  22
TORSDOF 3
ENDMDL
