MODEL 1
REMARK VINA RESULT:      -7.2      0.000      0.000
REMARK  Name = 
REMARK  13 active torsions:
REMARK  status: ('A' for Active; 'I' for Inactive)
REMARK    1  A    between atoms: C_1  and  O_2
REMARK    2  A    between atoms: O_2  and  C_3
REMARK    3  A    between atoms: C_6  and  C_7
REMARK    4  A    between atoms: C_7  and  S_8
REMARK    5  A    between atoms: S_8  and  C_11
REMARK    6  A    between atoms: C_12  and  C_13
REMARK    7  A    between atoms: C_14  and  O_15
REMARK    8  A    between atoms: O_15  and  C_16
REMARK    9  A    between atoms: C_18  and  O_19
REMARK   10  A    between atoms: O_19  and  C_20
REMARK   11  A    between atoms: C_22  and  O_23
REMARK   12  A    between atoms: O_23  and  C_24
REMARK   13  A    between atoms: C_25  and  N_26
REMARK                            x       y       z     vdW  Elec       q    Type
REMARK                         _______ _______ _______ _____ _____    ______ ____
ROOT
ATOM      1  S   UNL     1       5.257   6.219  16.596  0.00  0.00    +0.000 S 
ATOM      2  O   UNL     1       6.561   6.172  17.236  0.00  0.00    +0.000 OA
ATOM      3  O   UNL     1       5.058   6.998  15.391  0.00  0.00    +0.000 OA
ENDROOT
BRANCH   1   4
ATOM      4  C   UNL     1       4.134   6.808  17.792  0.00  0.00    +0.000 C 
ATOM      5  C   UNL     1       3.290   7.810  17.496  0.00  0.00    +0.000 C 
BRANCH   5   6
ATOM      6  C   UNL     1       2.374   8.388  18.491  0.00  0.00    +0.000 A 
ATOM      7  C   UNL     1       1.958   7.636  19.616  0.00  0.00    +0.000 A 
ATOM      8  C   UNL     1       1.101   8.204  20.571  0.00  0.00    +0.000 A 
ATOM      9  C   UNL     1       0.669   9.522  20.465  0.00  0.00    +0.000 A 
ATOM     10  C   UNL     1       1.062  10.268  19.362  0.00  0.00    +0.000 A 
ATOM     11  C   UNL     1       1.903   9.719  18.377  0.00  0.00    +0.000 A 
BRANCH   7  12
ATOM     12  O   UNL     1       2.235   6.319  19.893  0.00  0.00    +0.000 OA
ATOM     13  C   UNL     1       1.565   5.699  20.984  0.00  0.00    +0.000 C 
ENDBRANCH   7  12
BRANCH   9  14
ATOM     14  O   UNL     1      -0.145   9.964  21.470  0.00  0.00    +0.000 OA
ATOM     15  C   UNL     1       0.051   9.352  22.742  0.00  0.00    +0.000 C 
ENDBRANCH   9  14
BRANCH  11  16
ATOM     16  O   UNL     1       2.253  10.654  17.436  0.00  0.00    +0.000 OA
ATOM     17  C   UNL     1       2.510  11.978  17.872  0.00  0.00    +0.000 C 
ENDBRANCH  11  16
ENDBRANCH   5   6
ENDBRANCH   1   4
BRANCH   1  18
ATOM     18  C   UNL     1       4.708   4.544  16.304  0.00  0.00    +0.000 C 
BRANCH  18  22
ATOM     19  C   UNL     1       2.270   2.741  19.383  0.00  0.00    +0.000 A 
ATOM     20  C   UNL     1       1.702   3.206  18.204  0.00  0.00    +0.000 A 
ATOM     21  C   UNL     1       2.508   3.824  17.244  0.00  0.00    +0.000 A 
ATOM     22  C   UNL     1       3.890   4.006  17.453  0.00  0.00    +0.000 A 
ATOM     23  C   UNL     1       4.452   3.597  18.675  0.00  0.00    +0.000 A 
ATOM     24  C   UNL     1       3.635   2.936  19.606  0.00  0.00    +0.000 A 
BRANCH  23  25
ATOM     25  N   UNL     1       5.839   3.612  18.901  0.00  0.00    +0.000 N 
ATOM     26  H   UNL     1       6.400   3.688  18.046  0.00  0.00    +0.000 HD
ATOM     27  H   UNL     1       6.123   4.353  19.539  0.00  0.00    +0.000 HD
ENDBRANCH  23  25
BRANCH  19  29
ATOM     28  C   UNL     1       1.980   2.458  21.716  0.00  0.00    +0.000 C 
ATOM     29  O   UNL     1       1.603   2.101  20.391  0.00  0.00    +0.000 OA
ENDBRANCH  19  29
ENDBRANCH  18  22
ENDBRANCH   1  18
TORSDOF 9
ENDMDL
MODEL 2
REMARK VINA RESULT:      -6.8      1.934      4.441
REMARK  Name = 
REMARK  13 active torsions:
REMARK  status: ('A' for Active; 'I' for Inactive)
REMARK    1  A    between atoms: C_1  and  O_2
REMARK    2  A    between atoms: O_2  and  C_3
REMARK    3  A    between atoms: C_6  and  C_7
REMARK    4  A    between atoms: C_7  and  S_8
REMARK    5  A    between atoms: S_8  and  C_11
REMARK    6  A    between atoms: C_12  and  C_13
REMARK    7  A    between atoms: C_14  and  O_15
REMARK    8  A    between atoms: O_15  and  C_16
REMARK    9  A    between atoms: C_18  and  O_19
REMARK   10  A    between atoms: O_19  and  C_20
REMARK   11  A    between atoms: C_22  and  O_23
REMARK   12  A    between atoms: O_23  and  C_24
REMARK   13  A    between atoms: C_25  and  N_26
REMARK                            x       y       z     vdW  Elec       q    Type
REMARK                         _______ _______ _______ _____ _____    ______ ____
ROOT
ATOM      1  S   UNL     1       2.119   3.204  20.822  0.00  0.00    +0.000 S 
ATOM      2  O   UNL     1       1.094   2.345  20.252  0.00  0.00    +0.000 OA
ATOM      3  O   UNL     1       2.160   3.450  22.248  0.00  0.00    +0.000 OA
ENDROOT
BRANCH   1   4
ATOM      4  C   UNL     1       1.975   4.749  20.027  0.00  0.00    +0.000 C 
ATOM      5  C   UNL     1       1.904   5.879  20.749  0.00  0.00    +0.000 C 
BRANCH   5   6
ATOM      6  C   UNL     1       1.712   7.199  20.129  0.00  0.00    +0.000 A 
ATOM      7  C   UNL     1       1.015   8.225  20.813  0.00  0.00    +0.000 A 
ATOM      8  C   UNL     1       0.857   9.488  20.221  0.00  0.00    +0.000 A 
ATOM      9  C   UNL     1       1.406   9.781  18.977  0.00  0.00    +0.000 A 
ATOM     10  C   UNL     1       2.083   8.781  18.294  0.00  0.00    +0.000 A 
ATOM     11  C   UNL     1       2.240   7.499  18.850  0.00  0.00    +0.000 A 
BRANCH   7  12
ATOM     12  O   UNL     1       0.369   8.139  22.021  0.00  0.00    +0.000 OA
ATOM     13  C   UNL     1      -0.037   9.342  22.662  0.00  0.00    +0.000 C 
ENDBRANCH   7  12
BRANCH   9  14
ATOM     14  O   UNL     1       1.199  11.053  18.520  0.00  0.00    +0.000 OA
ATOM     15  C   UNL     1       0.774  12.001  19.495  0.00  0.00    +0.000 C 
ENDBRANCH   9  14
BRANCH  11  16
ATOM     16  O   UNL     1       3.029   6.700  18.060  0.00  0.00    +0.000 OA
ATOM     17  C   UNL     1       3.974   7.325  17.210  0.00  0.00    +0.000 C 
ENDBRANCH  11  16
ENDBRANCH   5   6
ENDBRANCH   1   4
BRANCH   1  18
ATOM     18  C   UNL     1       3.718   2.611  20.286  0.00  0.00    +0.000 C 
BRANCH  18  22
ATOM     19  C   UNL     1       5.258   4.251  16.597  0.00  0.00    +0.000 A 
ATOM     20  C   UNL     1       5.818   4.596  17.820  0.00  0.00    +0.000 A 
ATOM     21  C   UNL     1       5.273   4.085  19.000  0.00  0.00    +0.000 A 
ATOM     22  C   UNL     1       4.147   3.237  18.981  0.00  0.00    +0.000 A 
ATOM     23  C   UNL     1       3.539   2.944  17.748  0.00  0.00    +0.000 A 
ATOM     24  C   UNL     1       4.131   3.428  16.571  0.00  0.00    +0.000 A 
BRANCH  23  25
ATOM     25  N   UNL     1       2.507   1.996  17.631  0.00  0.00    +0.000 N 
ATOM     26  H   UNL     1       2.790   1.039  17.868  0.00  0.00    +0.000 HD
ATOM     27  H   UNL     1       1.691   2.237  18.189  0.00  0.00    +0.000 HD
ENDBRANCH  23  25
BRANCH  19  29
ATOM     28  C   UNL     1       7.118   4.681  15.196  0.00  0.00    +0.000 C 
ATOM     29  O   UNL     1       5.706   4.661  15.371  0.00  0.00    +0.000 OA
ENDBRANCH  19  29
ENDBRANCH  18  22
ENDBRANCH   1  18
TORSDOF 9
ENDMDL
MODEL 3
REMARK VINA RESULT:      -6.8      1.910      4.595
REMARK  Name = 
REMARK  13 active torsions:
REMARK  status: ('A' for Active; 'I' for Inactive)
REMARK    1  A    between atoms: C_1  and  O_2
REMARK    2  A    between atoms: O_2  and  C_3
REMARK    3  A    between atoms: C_6  and  C_7
REMARK    4  A    between atoms: C_7  and  S_8
REMARK    5  A    between atoms: S_8  and  C_11
REMARK    6  A    between atoms: C_12  and  C_13
REMARK    7  A    between atoms: C_14  and  O_15
REMARK    8  A    between atoms: O_15  and  C_16
REMARK    9  A    between atoms: C_18  and  O_19
REMARK   10  A    between atoms: O_19  and  C_20
REMARK   11  A    between atoms: C_22  and  O_23
REMARK   12  A    between atoms: O_23  and  C_24
REMARK   13  A    between atoms: C_25  and  N_26
REMARK                            x       y       z     vdW  Elec       q    Type
REMARK                         _______ _______ _______ _____ _____    ______ ____
ROOT
ATOM      1  S   UNL     1       2.161   3.232  20.843  0.00  0.00    +0.000 S 
ATOM      2  O   UNL     1       1.174   2.342  20.255  0.00  0.00    +0.000 OA
ATOM      3  O   UNL     1       2.175   3.472  22.271  0.00  0.00    +0.000 OA
ENDROOT
BRANCH   1   4
ATOM      4  C   UNL     1       1.976   4.775  20.053  0.00  0.00    +0.000 C 
ATOM      5  C   UNL     1       2.043   5.913  20.764  0.00  0.00    +0.000 C 
BRANCH   5   6
ATOM      6  C   UNL     1       1.824   7.235  20.157  0.00  0.00    +0.000 A 
ATOM      7  C   UNL     1       2.313   7.526  18.861  0.00  0.00    +0.000 A 
ATOM      8  C   UNL     1       2.080   8.783  18.281  0.00  0.00    +0.000 A 
ATOM      9  C   UNL     1       1.335   9.758  18.938  0.00  0.00    +0.000 A 
ATOM     10  C   UNL     1       0.857   9.488  20.213  0.00  0.00    +0.000 A 
ATOM     11  C   UNL     1       1.094   8.246  20.828  0.00  0.00    +0.000 A 
BRANCH   7  12
ATOM     12  O   UNL     1       3.095   6.730  18.061  0.00  0.00    +0.000 OA
ATOM     13  C   UNL     1       3.992   7.353  17.149  0.00  0.00    +0.000 C 
ENDBRANCH   7  12
BRANCH   9  14
ATOM     14  O   UNL     1       1.161  10.932  18.259  0.00  0.00    +0.000 OA
ATOM     15  C   UNL     1       2.235  11.864  18.346  0.00  0.00    +0.000 C 
ENDBRANCH   9  14
BRANCH  11  16
ATOM     16  O   UNL     1       0.445   8.150  22.034  0.00  0.00    +0.000 OA
ATOM     17  C   UNL     1       0.094   9.350  22.701  0.00  0.00    +0.000 C 
ENDBRANCH  11  16
ENDBRANCH   5   6
ENDBRANCH   1   4
BRANCH   1  18
ATOM     18  C   UNL     1       3.786   2.697  20.326  0.00  0.00    +0.000 C 
BRANCH  18  22
ATOM     19  C   UNL     1       5.168   4.110  16.484  0.00  0.00    +0.000 A 
ATOM     20  C   UNL     1       5.769   4.539  17.660  0.00  0.00    +0.000 A 
ATOM     21  C   UNL     1       5.274   4.099  18.890  0.00  0.00    +0.000 A 
ATOM     22  C   UNL     1       4.158   3.241  18.969  0.00  0.00    +0.000 A 
ATOM     23  C   UNL     1       3.509   2.862  17.781  0.00  0.00    +0.000 A 
ATOM     24  C   UNL     1       4.050   3.276  16.554  0.00  0.00    +0.000 A 
BRANCH  23  25
ATOM     25  N   UNL     1       2.485   1.899  17.764  0.00  0.00    +0.000 N 
ATOM     26  H   UNL     1       1.735   2.076  18.441  0.00  0.00    +0.000 HD
ATOM     27  H   UNL     1       2.067   1.789  16.843  0.00  0.00    +0.000 HD
ENDBRANCH  23  25
BRANCH  19  29
ATOM     28  C   UNL     1       6.930   4.814  15.068  0.00  0.00    +0.000 C 
ATOM     29  O   UNL     1       5.564   4.445  15.218  0.00  0.00    +0.000 OA
ENDBRANCH  19  29
ENDBRANCH  18  22
ENDBRANCH   1  18
TORSDOF 9
ENDMDL
MODEL 4
REMARK VINA RESULT:      -6.7      0.668      2.617
REMARK  Name = 
REMARK  13 active torsions:
REMARK  status: ('A' for Active; 'I' for Inactive)
REMARK    1  A    between atoms: C_1  and  O_2
REMARK    2  A    between atoms: O_2  and  C_3
REMARK    3  A    between atoms: C_6  and  C_7
REMARK    4  A    between atoms: C_7  and  S_8
REMARK    5  A    between atoms: S_8  and  C_11
REMARK    6  A    between atoms: C_12  and  C_13
REMARK    7  A    between atoms: C_14  and  O_15
REMARK    8  A    between atoms: O_15  and  C_16
REMARK    9  A    between atoms: C_18  and  O_19
REMARK   10  A    between atoms: O_19  and  C_20
REMARK   11  A    between atoms: C_22  and  O_23
REMARK   12  A    between atoms: O_23  and  C_24
REMARK   13  A    between atoms: C_25  and  N_26
REMARK                            x       y       z     vdW  Elec       q    Type
REMARK                         _______ _______ _______ _____ _____    ______ ____
ROOT
ATOM      1  S   UNL     1       5.330   6.414  16.286  0.00  0.00    +0.000 S 
ATOM      2  O   UNL     1       6.690   6.552  16.779  0.00  0.00    +0.000 OA
ATOM      3  O   UNL     1       4.908   7.114  15.090  0.00  0.00    +0.000 OA
ENDROOT
BRANCH   1   4
ATOM      4  C   UNL     1       4.275   6.907  17.582  0.00  0.00    +0.000 C 
ATOM      5  C   UNL     1       3.330   7.838  17.372  0.00  0.00    +0.000 C 
BRANCH   5   6
ATOM      6  C   UNL     1       2.463   8.339  18.449  0.00  0.00    +0.000 A 
ATOM      7  C   UNL     1       1.909   9.640  18.387  0.00  0.00    +0.000 A 
ATOM      8  C   UNL     1       1.064  10.099  19.409  0.00  0.00    +0.000 A 
ATOM      9  C   UNL     1       0.717   9.287  20.484  0.00  0.00    +0.000 A 
ATOM     10  C   UNL     1       1.261   8.013  20.561  0.00  0.00    +0.000 A 
ATOM     11  C   UNL     1       2.127   7.532  19.563  0.00  0.00    +0.000 A 
BRANCH   7  12
ATOM     12  O   UNL     1       2.147  10.609  17.443  0.00  0.00    +0.000 OA
ATOM     13  C   UNL     1       2.458  11.925  17.884  0.00  0.00    +0.000 C 
ENDBRANCH   7  12
BRANCH   9  14
ATOM     14  O   UNL     1      -0.129   9.845  21.402  0.00  0.00    +0.000 OA
ATOM     15  C   UNL     1      -0.201  11.267  21.395  0.00  0.00    +0.000 C 
ENDBRANCH   9  14
BRANCH  11  16
ATOM     16  O   UNL     1       2.462   6.218  19.778  0.00  0.00    +0.000 OA
ATOM     17  C   UNL     1       1.867   5.547  20.875  0.00  0.00    +0.000 C 
ENDBRANCH  11  16
ENDBRANCH   5   6
ENDBRANCH   1   4
BRANCH   1  18
ATOM     18  C   UNL     1       4.968   4.673  16.099  0.00  0.00    +0.000 C 
BRANCH  18  22
ATOM     19  C   UNL     1       3.134   2.701  19.478  0.00  0.00    +0.000 A 
ATOM     20  C   UNL     1       2.401   2.985  18.333  0.00  0.00    +0.000 A 
ATOM     21  C   UNL     1       3.008   3.662  17.273  0.00  0.00    +0.000 A 
ATOM     22  C   UNL     1       4.351   4.086  17.344  0.00  0.00    +0.000 A 
ATOM     23  C   UNL     1       5.071   3.858  18.530  0.00  0.00    +0.000 A 
ATOM     24  C   UNL     1       4.458   3.135  19.565  0.00  0.00    +0.000 A 
BRANCH  23  25
ATOM     25  N   UNL     1       6.449   4.119  18.628  0.00  0.00    +0.000 N 
ATOM     26  H   UNL     1       6.836   4.624  17.823  0.00  0.00    +0.000 HD
ATOM     27  H   UNL     1       6.691   4.630  19.474  0.00  0.00    +0.000 HD
ENDBRANCH  23  25
BRANCH  19  29
ATOM     28  C   UNL     1       1.421   2.467  21.096  0.00  0.00    +0.000 C 
ATOM     29  O   UNL     1       2.670   2.028  20.575  0.00  0.00    +0.000 OA
ENDBRANCH  19  29
ENDBRANCH  18  22
ENDBRANCH   1  18
TORSDOF 9
ENDMDL
MODEL 5
REMARK VINA RESULT:      -6.5      3.554      7.479
REMARK  Name = 
REMARK  13 active torsions:
REMARK  status: ('A' for Active; 'I' for Inactive)
REMARK    1  A    between atoms: C_1  and  O_2
REMARK    2  A    between atoms: O_2  and  C_3
REMARK    3  A    between atoms: C_6  and  C_7
REMARK    4  A    between atoms: C_7  and  S_8
REMARK    5  A    between atoms: S_8  and  C_11
REMARK    6  A    between atoms: C_12  and  C_13
REMARK    7  A    between atoms: C_14  and  O_15
REMARK    8  A    between atoms: O_15  and  C_16
REMARK    9  A    between atoms: C_18  and  O_19
REMARK   10  A    between atoms: O_19  and  C_20
REMARK   11  A    between atoms: C_22  and  O_23
REMARK   12  A    between atoms: O_23  and  C_24
REMARK   13  A    between atoms: C_25  and  N_26
REMARK                            x       y       z     vdW  Elec       q    Type
REMARK                         _______ _______ _______ _____ _____    ______ ____
ROOT
ATOM      1  S   UNL     1       0.878   9.120  21.227  0.00  0.00    +0.000 S 
ATOM      2  O   UNL     1       1.633   9.638  22.355  0.00  0.00    +0.000 OA
ATOM      3  O   UNL     1      -0.540   8.853  21.353  0.00  0.00    +0.000 OA
ENDROOT
BRANCH   1   4
ATOM      4  C   UNL     1       1.651   7.633  20.748  0.00  0.00    +0.000 C 
ATOM      5  C   UNL     1       1.986   7.425  19.464  0.00  0.00    +0.000 C 
BRANCH   5   6
ATOM      6  C   UNL     1       2.576   6.161  18.998  0.00  0.00    +0.000 A 
ATOM      7  C   UNL     1       2.157   4.923  19.543  0.00  0.00    +0.000 A 
ATOM      8  C   UNL     1       2.710   3.721  19.076  0.00  0.00    +0.000 A 
ATOM      9  C   UNL     1       3.647   3.704  18.048  0.00  0.00    +0.000 A 
ATOM     10  C   UNL     1       4.072   4.911  17.512  0.00  0.00    +0.000 A 
ATOM     11  C   UNL     1       3.553   6.133  17.974  0.00  0.00    +0.000 A 
BRANCH   7  12
ATOM     12  O   UNL     1       1.280   4.717  20.579  0.00  0.00    +0.000 OA
ATOM     13  C   UNL     1       1.188   3.414  21.143  0.00  0.00    +0.000 C 
ENDBRANCH   7  12
BRANCH   9  14
ATOM     14  O   UNL     1       4.093   2.468  17.670  0.00  0.00    +0.000 OA
ATOM     15  C   UNL     1       3.549   1.365  18.390  0.00  0.00    +0.000 C 
ENDBRANCH   9  14
BRANCH  11  16
ATOM     16  O   UNL     1       4.026   7.192  17.239  0.00  0.00    +0.000 OA
ATOM     17  C   UNL     1       5.215   7.008  16.490  0.00  0.00    +0.000 C 
ENDBRANCH  11  16
ENDBRANCH   5   6
ENDBRANCH   1   4
BRANCH   1  18
ATOM     18  C   UNL     1       1.145  10.195  19.824  0.00  0.00    +0.000 C 
BRANCH  18  22
ATOM     19  C   UNL     1      -2.676  11.065  18.002  0.00  0.00    +0.000 A 
ATOM     20  C   UNL     1      -1.785  10.180  17.406  0.00  0.00    +0.000 A 
ATOM     21  C   UNL     1      -0.539   9.951  17.995  0.00  0.00    +0.000 A 
ATOM     22  C   UNL     1      -0.152  10.615  19.176  0.00  0.00    +0.000 A 
ATOM     23  C   UNL     1      -1.026  11.561  19.741  0.00  0.00    +0.000 A 
ATOM     24  C   UNL     1      -2.291  11.741  19.161  0.00  0.00    +0.000 A 
BRANCH  23  25
ATOM     25  N   UNL     1      -0.777  12.155  20.990  0.00  0.00    +0.000 N 
ATOM     26  H   UNL     1      -1.082  11.590  21.789  0.00  0.00    +0.000 HD
ATOM     27  H   UNL     1       0.204  12.393  21.120  0.00  0.00    +0.000 HD
ENDBRANCH  23  25
BRANCH  19  29
ATOM     28  C   UNL     1      -4.856  11.829  18.518  0.00  0.00    +0.000 C 
ATOM     29  O   UNL     1      -3.930  11.361  17.544  0.00  0.00    +0.000 OA
ENDBRANCH  19  29
ENDBRANCH  18  22
ENDBRANCH   1  18
TORSDOF 9
ENDMDL
MODEL 6
REMARK VINA RESULT:      -6.4      3.243      7.827
REMARK  Name = 
REMARK  13 active torsions:
REMARK  status: ('A' for Active; 'I' for Inactive)
REMARK    1  A    between atoms: C_1  and  O_2
REMARK    2  A    between atoms: O_2  and  C_3
REMARK    3  A    between atoms: C_6  and  C_7
REMARK    4  A    between atoms: C_7  and  S_8
REMARK    5  A    between atoms: S_8  and  C_11
REMARK    6  A    between atoms: C_12  and  C_13
REMARK    7  A    between atoms: C_14  and  O_15
REMARK    8  A    between atoms: O_15  and  C_16
REMARK    9  A    between atoms: C_18  and  O_19
REMARK   10  A    between atoms: O_19  and  C_20
REMARK   11  A    between atoms: C_22  and  O_23
REMARK   12  A    between atoms: O_23  and  C_24
REMARK   13  A    between atoms: C_25  and  N_26
REMARK                            x       y       z     vdW  Elec       q    Type
REMARK                         _______ _______ _______ _____ _____    ______ ____
ROOT
ATOM      1  S   UNL     1       0.846   9.250  21.703  0.00  0.00    +0.000 S 
ATOM      2  O   UNL     1       1.607   9.481  22.919  0.00  0.00    +0.000 OA
ATOM      3  O   UNL     1      -0.513   8.755  21.771  0.00  0.00    +0.000 OA
ENDROOT
BRANCH   1   4
ATOM      4  C   UNL     1       1.767   8.124  20.744  0.00  0.00    +0.000 C 
ATOM      5  C   UNL     1       1.271   6.908  20.461  0.00  0.00    +0.000 C 
BRANCH   5   6
ATOM      6  C   UNL     1       2.037   5.898  19.715  0.00  0.00    +0.000 A 
ATOM      7  C   UNL     1       2.868   6.274  18.633  0.00  0.00    +0.000 A 
ATOM      8  C   UNL     1       3.612   5.305  17.942  0.00  0.00    +0.000 A 
ATOM      9  C   UNL     1       3.589   3.966  18.319  0.00  0.00    +0.000 A 
ATOM     10  C   UNL     1       2.771   3.584  19.374  0.00  0.00    +0.000 A 
ATOM     11  C   UNL     1       1.997   4.528  20.071  0.00  0.00    +0.000 A 
BRANCH   7  12
ATOM     12  O   UNL     1       3.010   7.522  18.078  0.00  0.00    +0.000 OA
ATOM     13  C   UNL     1       4.027   7.722  17.103  0.00  0.00    +0.000 C 
ENDBRANCH   7  12
BRANCH   9  14
ATOM     14  O   UNL     1       4.373   3.126  17.580  0.00  0.00    +0.000 OA
ATOM     15  C   UNL     1       5.130   3.738  16.540  0.00  0.00    +0.000 C 
ENDBRANCH   9  14
BRANCH  11  16
ATOM     16  O   UNL     1       1.349   3.958  21.139  0.00  0.00    +0.000 OA
ATOM     17  C   UNL     1       2.020   2.942  21.864  0.00  0.00    +0.000 C 
ENDBRANCH  11  16
ENDBRANCH   5   6
ENDBRANCH   1   4
BRANCH   1  18
ATOM     18  C   UNL     1       0.873  10.745  20.724  0.00  0.00    +0.000 C 
BRANCH  18  22
ATOM     19  C   UNL     1      -2.545  11.418  18.168  0.00  0.00    +0.000 A 
ATOM     20  C   UNL     1      -2.522  11.900  19.471  0.00  0.00    +0.000 A 
ATOM     21  C   UNL     1      -1.422  11.631  20.289  0.00  0.00    +0.000 A 
ATOM     22  C   UNL     1      -0.336  10.859  19.829  0.00  0.00    +0.000 A 
ATOM     23  C   UNL     1      -0.392  10.314  18.533  0.00  0.00    +0.000 A 
ATOM     24  C   UNL     1      -1.483  10.636  17.712  0.00  0.00    +0.000 A 
BRANCH  23  25
ATOM     25  N   UNL     1       0.707   9.658  17.952  0.00  0.00    +0.000 N 
ATOM     26  H   UNL     1       1.169   8.985  18.574  0.00  0.00    +0.000 HD
ATOM     27  H   UNL     1       0.465   9.182  17.086  0.00  0.00    +0.000 HD
ENDBRANCH  23  25
BRANCH  19  29
ATOM     28  C   UNL     1      -3.382  10.997  15.994  0.00  0.00    +0.000 C 
ATOM     29  O   UNL     1      -3.546  11.627  17.259  0.00  0.00    +0.000 OA
ENDBRANCH  19  29
ENDBRANCH  18  22
ENDBRANCH   1  18
TORSDOF 9
ENDMDL
MODEL 7
REMARK VINA RESULT:      -6.4      3.298      7.523
REMARK  Name = 
REMARK  13 active torsions:
REMARK  status: ('A' for Active; 'I' for Inactive)
REMARK    1  A    between atoms: C_1  and  O_2
REMARK    2  A    between atoms: O_2  and  C_3
REMARK    3  A    between atoms: C_6  and  C_7
REMARK    4  A    between atoms: C_7  and  S_8
REMARK    5  A    between atoms: S_8  and  C_11
REMARK    6  A    between atoms: C_12  and  C_13
REMARK    7  A    between atoms: C_14  and  O_15
REMARK    8  A    between atoms: O_15  and  C_16
REMARK    9  A    between atoms: C_18  and  O_19
REMARK   10  A    between atoms: O_19  and  C_20
REMARK   11  A    between atoms: C_22  and  O_23
REMARK   12  A    between atoms: O_23  and  C_24
REMARK   13  A    between atoms: C_25  and  N_26
REMARK                            x       y       z     vdW  Elec       q    Type
REMARK                         _______ _______ _______ _____ _____    ______ ____
ROOT
ATOM      1  S   UNL     1       0.819   9.254  21.496  0.00  0.00    +0.000 S 
ATOM      2  O   UNL     1       1.818   9.390  22.542  0.00  0.00    +0.000 OA
ATOM      3  O   UNL     1      -0.550   8.917  21.828  0.00  0.00    +0.000 OA
ENDROOT
BRANCH   1   4
ATOM      4  C   UNL     1       1.408   8.036  20.397  0.00  0.00    +0.000 C 
ATOM      5  C   UNL     1       1.644   6.787  20.832  0.00  0.00    +0.000 C 
BRANCH   5   6
ATOM      6  C   UNL     1       2.207   5.743  19.962  0.00  0.00    +0.000 A 
ATOM      7  C   UNL     1       1.918   4.376  20.191  0.00  0.00    +0.000 A 
ATOM      8  C   UNL     1       2.442   3.390  19.342  0.00  0.00    +0.000 A 
ATOM      9  C   UNL     1       3.220   3.721  18.237  0.00  0.00    +0.000 A 
ATOM     10  C   UNL     1       3.518   5.057  18.007  0.00  0.00    +0.000 A 
ATOM     11  C   UNL     1       3.026   6.067  18.853  0.00  0.00    +0.000 A 
BRANCH   7  12
ATOM     12  O   UNL     1       1.208   3.832  21.233  0.00  0.00    +0.000 OA
ATOM     13  C   UNL     1       1.668   2.615  21.807  0.00  0.00    +0.000 C 
ENDBRANCH   7  12
BRANCH   9  14
ATOM     14  O   UNL     1       3.653   2.670  17.477  0.00  0.00    +0.000 OA
ATOM     15  C   UNL     1       3.688   1.405  18.131  0.00  0.00    +0.000 C 
ENDBRANCH   9  14
BRANCH  11  16
ATOM     16  O   UNL     1       3.348   7.317  18.385  0.00  0.00    +0.000 OA
ATOM     17  C   UNL     1       4.139   7.409  17.214  0.00  0.00    +0.000 C 
ENDBRANCH  11  16
ENDBRANCH   5   6
ENDBRANCH   1   4
BRANCH   1  18
ATOM     18  C   UNL     1       0.828  10.742  20.506  0.00  0.00    +0.000 C 
BRANCH  18  22
ATOM     19  C   UNL     1      -2.718  11.491  18.152  0.00  0.00    +0.000 A 
ATOM     20  C   UNL     1      -2.608  11.973  19.450  0.00  0.00    +0.000 A 
ATOM     21  C   UNL     1      -1.468  11.679  20.203  0.00  0.00    +0.000 A 
ATOM     22  C   UNL     1      -0.429  10.883  19.682  0.00  0.00    +0.000 A 
ATOM     23  C   UNL     1      -0.572  10.338  18.393  0.00  0.00    +0.000 A 
ATOM     24  C   UNL     1      -1.702  10.685  17.636  0.00  0.00    +0.000 A 
BRANCH  23  25
ATOM     25  N   UNL     1       0.476   9.658  17.750  0.00  0.00    +0.000 N 
ATOM     26  H   UNL     1       1.131   9.198  18.391  0.00  0.00    +0.000 HD
ATOM     27  H   UNL     1       0.141   8.966  17.083  0.00  0.00    +0.000 HD
ENDBRANCH  23  25
BRANCH  19  29
ATOM     28  C   UNL     1      -3.688  11.090  16.030  0.00  0.00    +0.000 C 
ATOM     29  O   UNL     1      -3.764  11.723  17.302  0.00  0.00    +0.000 OA
ENDBRANCH  19  29
ENDBRANCH  18  22
ENDBRANCH   1  18
TORSDOF 9
ENDMDL
MODEL 8
REMARK VINA RESULT:      -6.4      3.267      5.860
REMARK  Name = 
REMARK  13 active torsions:
REMARK  status: ('A' for Active; 'I' for Inactive)
REMARK    1  A    between atoms: C_1  and  O_2
REMARK    2  A    between atoms: O_2  and  C_3
REMARK    3  A    between atoms: C_6  and  C_7
REMARK    4  A    between atoms: C_7  and  S_8
REMARK    5  A    between atoms: S_8  and  C_11
REMARK    6  A    between atoms: C_12  and  C_13
REMARK    7  A    between atoms: C_14  and  O_15
REMARK    8  A    between atoms: O_15  and  C_16
REMARK    9  A    between atoms: C_18  and  O_19
REMARK   10  A    between atoms: O_19  and  C_20
REMARK   11  A    between atoms: C_22  and  O_23
REMARK   12  A    between atoms: O_23  and  C_24
REMARK   13  A    between atoms: C_25  and  N_26
REMARK                            x       y       z     vdW  Elec       q    Type
REMARK                         _______ _______ _______ _____ _____    ______ ____
ROOT
ATOM      1  S   UNL     1       7.070   5.697  16.465  0.00  0.00    +0.000 S 
ATOM      2  O   UNL     1       7.977   4.587  16.222  0.00  0.00    +0.000 OA
ATOM      3  O   UNL     1       7.581   6.977  16.910  0.00  0.00    +0.000 OA
ENDROOT
BRANCH   1   4
ATOM      4  C   UNL     1       5.917   5.150  17.652  0.00  0.00    +0.000 C 
ATOM      5  C   UNL     1       4.612   5.073  17.345  0.00  0.00    +0.000 C 
BRANCH   5   6
ATOM      6  C   UNL     1       3.592   4.685  18.332  0.00  0.00    +0.000 A 
ATOM      7  C   UNL     1       3.299   3.321  18.571  0.00  0.00    +0.000 A 
ATOM      8  C   UNL     1       2.340   2.961  19.531  0.00  0.00    +0.000 A 
ATOM      9  C   UNL     1       1.683   3.920  20.296  0.00  0.00    +0.000 A 
ATOM     10  C   UNL     1       1.955   5.261  20.064  0.00  0.00    +0.000 A 
ATOM     11  C   UNL     1       2.895   5.653  19.094  0.00  0.00    +0.000 A 
BRANCH   7  12
ATOM     12  O   UNL     1       3.799   2.227  17.910  0.00  0.00    +0.000 OA
ATOM     13  C   UNL     1       3.886   0.991  18.609  0.00  0.00    +0.000 C 
ENDBRANCH   7  12
BRANCH   9  14
ATOM     14  O   UNL     1       0.787   3.439  21.210  0.00  0.00    +0.000 OA
ATOM     15  C   UNL     1       1.261   2.392  22.052  0.00  0.00    +0.000 C 
ENDBRANCH   9  14
BRANCH  11  16
ATOM     16  O   UNL     1       3.089   7.012  19.103  0.00  0.00    +0.000 OA
ATOM     17  C   UNL     1       2.330   7.802  18.205  0.00  0.00    +0.000 C 
ENDBRANCH  11  16
ENDBRANCH   5   6
ENDBRANCH   1   4
BRANCH   1  18
ATOM     18  C   UNL     1       6.072   5.944  15.003  0.00  0.00    +0.000 C 
BRANCH  18  22
ATOM     19  C   UNL     1       6.404   2.945  11.909  0.00  0.00    +0.000 A 
ATOM     20  C   UNL     1       5.338   2.938  12.800  0.00  0.00    +0.000 A 
ATOM     21  C   UNL     1       5.279   3.893  13.817  0.00  0.00    +0.000 A 
ATOM     22  C   UNL     1       6.292   4.860  13.976  0.00  0.00    +0.000 A 
ATOM     23  C   UNL     1       7.405   4.825  13.117  0.00  0.00    +0.000 A 
ATOM     24  C   UNL     1       7.422   3.888  12.072  0.00  0.00    +0.000 A 
BRANCH  23  25
ATOM     25  N   UNL     1       8.381   5.836  13.118  0.00  0.00    +0.000 N 
ATOM     26  H   UNL     1       9.341   5.490  13.217  0.00  0.00    +0.000 HD
ATOM     27  H   UNL     1       8.335   6.424  12.289  0.00  0.00    +0.000 HD
ENDBRANCH  23  25
BRANCH  19  29
ATOM     28  C   UNL     1       6.127   0.750  11.068  0.00  0.00    +0.000 C 
ATOM     29  O   UNL     1       6.572   2.085  10.859  0.00  0.00    +0.000 OA
ENDBRANCH  19  29
ENDBRANCH  18  22
ENDBRANCH   1  18
TORSDOF 9
ENDMDL
MODEL 9
REMARK VINA RESULT:      -6.4      2.863      5.627
REMARK  Name = 
REMARK  13 active torsions:
REMARK  status: ('A' for Active; 'I' for Inactive)
REMARK    1  A    between atoms: C_1  and  O_2
REMARK    2  A    between atoms: O_2  and  C_3
REMARK    3  A    between atoms: C_6  and  C_7
REMARK    4  A    between atoms: C_7  and  S_8
REMARK    5  A    between atoms: S_8  and  C_11
REMARK    6  A    between atoms: C_12  and  C_13
REMARK    7  A    between atoms: C_14  and  O_15
REMARK    8  A    between atoms: O_15  and  C_16
REMARK    9  A    between atoms: C_18  and  O_19
REMARK   10  A    between atoms: O_19  and  C_20
REMARK   11  A    between atoms: C_22  and  O_23
REMARK   12  A    between atoms: O_23  and  C_24
REMARK   13  A    between atoms: C_25  and  N_26
REMARK                            x       y       z     vdW  Elec       q    Type
REMARK                         _______ _______ _______ _____ _____    ______ ____
ROOT
ATOM      1  S   UNL     1       6.266   6.769  16.484  0.00  0.00    +0.000 S 
ATOM      2  O   UNL     1       7.000   7.823  17.162  0.00  0.00    +0.000 OA
ATOM      3  O   UNL     1       5.380   7.083  15.383  0.00  0.00    +0.000 OA
ENDROOT
BRANCH   1   4
ATOM      4  C   UNL     1       5.321   5.954  17.701  0.00  0.00    +0.000 C 
ATOM      5  C   UNL     1       4.012   5.729  17.506  0.00  0.00    +0.000 C 
BRANCH   5   6
ATOM      6  C   UNL     1       3.158   5.109  18.531  0.00  0.00    +0.000 A 
ATOM      7  C   UNL     1       3.089   3.701  18.661  0.00  0.00    +0.000 A 
ATOM      8  C   UNL     1       2.289   3.120  19.657  0.00  0.00    +0.000 A 
ATOM      9  C   UNL     1       1.576   3.900  20.562  0.00  0.00    +0.000 A 
ATOM     10  C   UNL     1       1.628   5.282  20.439  0.00  0.00    +0.000 A 
ATOM     11  C   UNL     1       2.404   5.893  19.438  0.00  0.00    +0.000 A 
BRANCH   7  12
ATOM     12  O   UNL     1       3.677   2.755  17.858  0.00  0.00    +0.000 OA
ATOM     13  C   UNL     1       3.647   1.396  18.275  0.00  0.00    +0.000 C 
ENDBRANCH   7  12
BRANCH   9  14
ATOM     14  O   UNL     1       0.851   3.214  21.496  0.00  0.00    +0.000 OA
ATOM     15  C   UNL     1       1.548   2.183  22.188  0.00  0.00    +0.000 C 
ENDBRANCH   9  14
BRANCH  11  16
ATOM     16  O   UNL     1       2.399   7.260  19.562  0.00  0.00    +0.000 OA
ATOM     17  C   UNL     1       1.650   7.833  20.619  0.00  0.00    +0.000 C 
ENDBRANCH  11  16
ENDBRANCH   5   6
ENDBRANCH   1   4
BRANCH   1  18
ATOM     18  C   UNL     1       7.428   5.517  15.957  0.00  0.00    +0.000 C 
BRANCH  18  22
ATOM     19  C   UNL     1       6.525   3.510  12.238  0.00  0.00    +0.000 A 
ATOM     20  C   UNL     1       7.332   4.640  12.262  0.00  0.00    +0.000 A 
ATOM     21  C   UNL     1       7.572   5.294  13.473  0.00  0.00    +0.000 A 
ATOM     22  C   UNL     1       6.995   4.844  14.677  0.00  0.00    +0.000 A 
ATOM     23  C   UNL     1       6.123   3.741  14.642  0.00  0.00    +0.000 A 
ATOM     24  C   UNL     1       5.933   3.070  13.424  0.00  0.00    +0.000 A 
BRANCH  23  25
ATOM     25  N   UNL     1       5.624   3.146  15.813  0.00  0.00    +0.000 N 
ATOM     26  H   UNL     1       4.808   2.544  15.661  0.00  0.00    +0.000 HD
ATOM     27  H   UNL     1       6.331   2.609  16.310  0.00  0.00    +0.000 HD
ENDBRANCH  23  25
BRANCH  19  29
ATOM     28  C   UNL     1       6.578   1.387  11.191  0.00  0.00    +0.000 C 
ATOM     29  O   UNL     1       6.228   2.765  11.130  0.00  0.00    +0.000 OA
ENDBRANCH  19  29
ENDBRANCH  18  22
ENDBRANCH   1  18
TORSDOF 9
ENDMDL
