MODEL 1
REMARK VINA RESULT:      -7.6      0.000      0.000
REMARK  Name = 
REMARK  4 active torsions:
REMARK  status: ('A' for Active; 'I' for Inactive)
REMARK    1  A    between atoms: N_3  and  C_4
REMARK    2  A    between atoms: C_4  and  C_5
REMARK    3  A    between atoms: N_12  and  C_13
REMARK    4  A    between atoms: C_13  and  C_14
REMARK                            x       y       z     vdW  Elec       q    Type
REMARK                         _______ _______ _______ _____ _____    ______ ____
ROOT
ATOM      1  O   UNL     1       7.516   7.284  16.647  0.00  0.00    +0.000 OA
ATOM      2  C   UNL     1       7.836   7.292  17.830  0.00  0.00    +0.000 C 
ATOM      3  N   UNL     1       7.852   6.174  18.620  0.00  0.00    +0.000 N 
ATOM      4  N   UNL     1       8.235   8.413  18.499  0.00  0.00    +0.000 N 
ATOM      5  H   UNL     1       7.942   6.287  19.617  0.00  0.00    +0.000 HD
ATOM      6  H   UNL     1       8.500   8.346  19.468  0.00  0.00    +0.000 HD
ENDROOT
BRANCH   3   7
ATOM      7  C   UNL     1       7.441   4.883  18.116  0.00  0.00    +0.000 C 
BRANCH   7   8
ATOM      8  C   UNL     1       5.939   4.741  18.061  0.00  0.00    +0.000 A 
ATOM      9  C   UNL     1       5.321   4.208  16.918  0.00  0.00    +0.000 A 
ATOM     10  C   UNL     1       3.931   4.083  16.849  0.00  0.00    +0.000 A 
ATOM     11  C   UNL     1       3.140   4.498  17.919  0.00  0.00    +0.000 A 
ATOM     12  C   UNL     1       3.744   5.033  19.054  0.00  0.00    +0.000 A 
ATOM     13 CL   UNL     1       2.768   5.554  20.373  0.00  0.00    +0.000 Cl
ATOM     14  C   UNL     1       5.133   5.154  19.132  0.00  0.00    +0.000 A 
ENDBRANCH   7   8
ENDBRANCH   3   7
BRANCH   4  15
ATOM     15  C   UNL     1       8.302   9.712  17.865  0.00  0.00    +0.000 C 
BRANCH  15  16
ATOM     16  C   UNL     1       9.302  10.603  18.562  0.00  0.00    +0.000 A 
ATOM     17  C   UNL     1       9.309  10.686  19.963  0.00  0.00    +0.000 A 
ATOM     18  C   UNL     1      10.249  11.476  20.627  0.00  0.00    +0.000 A 
ATOM     19  C   UNL     1      11.186  12.205  19.898  0.00  0.00    +0.000 A 
ATOM     20  C   UNL     1      11.171  12.150  18.506  0.00  0.00    +0.000 A 
ATOM     21 CL   UNL     1      12.319  13.063  17.605  0.00  0.00    +0.000 Cl
ATOM     22  C   UNL     1      10.237  11.357  17.835  0.00  0.00    +0.000 A 
ENDBRANCH  15  16
ENDBRANCH   4  15
TORSDOF 4
ENDMDL
MODEL 2
REMARK VINA RESULT:      -7.5      1.598      1.851
REMARK  Name = 
REMARK  4 active torsions:
REMARK  status: ('A' for Active; 'I' for Inactive)
REMARK    1  A    between atoms: N_3  and  C_4
REMARK    2  A    between atoms: C_4  and  C_5
REMARK    3  A    between atoms: N_12  and  C_13
REMARK    4  A    between atoms: C_13  and  C_14
REMARK                            x       y       z     vdW  Elec       q    Type
REMARK                         _______ _______ _______ _____ _____    ______ ____
ROOT
ATOM      1  O   UNL     1       8.079   6.689  18.769  0.00  0.00    +0.000 OA
ATOM      2  C   UNL     1       7.765   7.489  17.896  0.00  0.00    +0.000 C 
ATOM      3  N   UNL     1       7.018   7.160  16.797  0.00  0.00    +0.000 N 
ATOM      4  N   UNL     1       8.105   8.812  17.921  0.00  0.00    +0.000 N 
ATOM      5  H   UNL     1       6.959   7.817  16.035  0.00  0.00    +0.000 HD
ATOM      6  H   UNL     1       7.799   9.418  17.178  0.00  0.00    +0.000 HD
ENDROOT
BRANCH   3   7
ATOM      7  C   UNL     1       6.573   5.804  16.561  0.00  0.00    +0.000 C 
BRANCH   7   8
ATOM      8  C   UNL     1       5.161   5.572  17.041  0.00  0.00    +0.000 A 
ATOM      9  C   UNL     1       4.569   4.306  16.910  0.00  0.00    +0.000 A 
ATOM     10  C   UNL     1       3.258   4.080  17.338  0.00  0.00    +0.000 A 
ATOM     11  C   UNL     1       2.519   5.121  17.896  0.00  0.00    +0.000 A 
ATOM     12  C   UNL     1       3.096   6.383  18.026  0.00  0.00    +0.000 A 
ATOM     13 CL   UNL     1       2.181   7.673  18.706  0.00  0.00    +0.000 Cl
ATOM     14  C   UNL     1       4.408   6.613  17.605  0.00  0.00    +0.000 A 
ENDBRANCH   7   8
ENDBRANCH   3   7
BRANCH   4  15
ATOM     15  C   UNL     1       8.890   9.390  18.990  0.00  0.00    +0.000 C 
BRANCH  15  16
ATOM     16  C   UNL     1       9.314  10.799  18.648  0.00  0.00    +0.000 A 
ATOM     17  C   UNL     1       8.504  11.591  17.821  0.00  0.00    +0.000 A 
ATOM     18  C   UNL     1       8.859  12.908  17.522  0.00  0.00    +0.000 A 
ATOM     19  C   UNL     1      10.038  13.444  18.037  0.00  0.00    +0.000 A 
ATOM     20  C   UNL     1      10.862  12.657  18.838  0.00  0.00    +0.000 A 
ATOM     21 CL   UNL     1      12.326  13.315  19.461  0.00  0.00    +0.000 Cl
ATOM     22  C   UNL     1      10.509  11.341  19.145  0.00  0.00    +0.000 A 
ENDBRANCH  15  16
ENDBRANCH   4  15
TORSDOF 4
ENDMDL
MODEL 3
REMARK VINA RESULT:      -7.5      1.991      2.305
REMARK  Name = 
REMARK  4 active torsions:
REMARK  status: ('A' for Active; 'I' for Inactive)
REMARK    1  A    between atoms: N_3  and  C_4
REMARK    2  A    between atoms: C_4  and  C_5
REMARK    3  A    between atoms: N_12  and  C_13
REMARK    4  A    between atoms: C_13  and  C_14
REMARK                            x       y       z     vdW  Elec       q    Type
REMARK                         _______ _______ _______ _____ _____    ______ ____
ROOT
ATOM      1  O   UNL     1       8.368   7.214  18.740  0.00  0.00    +0.000 OA
ATOM      2  C   UNL     1       7.938   7.982  17.888  0.00  0.00    +0.000 C 
ATOM      3  N   UNL     1       7.126   7.595  16.856  0.00  0.00    +0.000 N 
ATOM      4  N   UNL     1       8.200   9.322  17.874  0.00  0.00    +0.000 N 
ATOM      5  H   UNL     1       6.968   8.237  16.096  0.00  0.00    +0.000 HD
ATOM      6  H   UNL     1       7.801   9.900  17.152  0.00  0.00    +0.000 HD
ENDROOT
BRANCH   3   7
ATOM      7  C   UNL     1       6.745   6.212  16.669  0.00  0.00    +0.000 C 
BRANCH   7   8
ATOM      8  C   UNL     1       5.335   5.939  17.132  0.00  0.00    +0.000 A 
ATOM      9  C   UNL     1       4.865   4.619  17.225  0.00  0.00    +0.000 A 
ATOM     10  C   UNL     1       3.557   4.352  17.640  0.00  0.00    +0.000 A 
ATOM     11  C   UNL     1       2.700   5.402  17.960  0.00  0.00    +0.000 A 
ATOM     12  C   UNL     1       3.156   6.716  17.865  0.00  0.00    +0.000 A 
ATOM     13 CL   UNL     1       2.094   8.015  18.250  0.00  0.00    +0.000 Cl
ATOM     14  C   UNL     1       4.463   6.989  17.457  0.00  0.00    +0.000 A 
ENDBRANCH   7   8
ENDBRANCH   3   7
BRANCH   4  15
ATOM     15  C   UNL     1       9.033   9.960  18.870  0.00  0.00    +0.000 C 
BRANCH  15  16
ATOM     16  C   UNL     1       9.557  11.285  18.369  0.00  0.00    +0.000 A 
ATOM     17  C   UNL     1      10.847  11.366  17.825  0.00  0.00    +0.000 A 
ATOM     18  C   UNL     1      11.337  12.574  17.324  0.00  0.00    +0.000 A 
ATOM     19  C   UNL     1      10.545  13.721  17.373  0.00  0.00    +0.000 A 
ATOM     20  C   UNL     1       9.272  13.656  17.936  0.00  0.00    +0.000 A 
ATOM     21 CL   UNL     1       8.301  15.075  18.011  0.00  0.00    +0.000 Cl
ATOM     22  C   UNL     1       8.775  12.449  18.434  0.00  0.00    +0.000 A 
ENDBRANCH  15  16
ENDBRANCH   4  15
TORSDOF 4
ENDMDL
MODEL 4
REMARK VINA RESULT:      -7.4      5.917      8.580
REMARK  Name = 
REMARK  4 active torsions:
REMARK  status: ('A' for Active; 'I' for Inactive)
REMARK    1  A    between atoms: N_3  and  C_4
REMARK    2  A    between atoms: C_4  and  C_5
REMARK    3  A    between atoms: N_12  and  C_13
REMARK    4  A    between atoms: C_13  and  C_14
REMARK                            x       y       z     vdW  Elec       q    Type
REMARK                         _______ _______ _______ _____ _____    ______ ____
ROOT
ATOM      1  O   UNL     1       5.251   4.888  18.411  0.00  0.00    +0.000 OA
ATOM      2  C   UNL     1       4.883   5.649  17.523  0.00  0.00    +0.000 C 
ATOM      3  N   UNL     1       5.516   5.770  16.315  0.00  0.00    +0.000 N 
ATOM      4  N   UNL     1       3.785   6.455  17.623  0.00  0.00    +0.000 N 
ATOM      5  H   UNL     1       5.273   6.542  15.716  0.00  0.00    +0.000 HD
ATOM      6  H   UNL     1       3.530   7.045  16.848  0.00  0.00    +0.000 HD
ENDROOT
BRANCH   3   7
ATOM      7  C   UNL     1       6.718   5.024  16.011  0.00  0.00    +0.000 C 
BRANCH   7   8
ATOM      8  C   UNL     1       6.875   4.771  14.532  0.00  0.00    +0.000 A 
ATOM      9  C   UNL     1       7.785   5.530  13.778  0.00  0.00    +0.000 A 
ATOM     10  C   UNL     1       7.932   5.315  12.405  0.00  0.00    +0.000 A 
ATOM     11  C   UNL     1       7.165   4.343  11.766  0.00  0.00    +0.000 A 
ATOM     12  C   UNL     1       6.256   3.589  12.505  0.00  0.00    +0.000 A 
ATOM     13 CL   UNL     1       5.300   2.394  11.715  0.00  0.00    +0.000 Cl
ATOM     14  C   UNL     1       6.109   3.795  13.878  0.00  0.00    +0.000 A 
ENDBRANCH   7   8
ENDBRANCH   3   7
BRANCH   4  15
ATOM     15  C   UNL     1       2.956   6.492  18.807  0.00  0.00    +0.000 C 
BRANCH  15  16
ATOM     16  C   UNL     1       2.252   5.173  19.017  0.00  0.00    +0.000 A 
ATOM     17  C   UNL     1       1.683   4.502  17.924  0.00  0.00    +0.000 A 
ATOM     18  C   UNL     1       1.059   3.265  18.091  0.00  0.00    +0.000 A 
ATOM     19  C   UNL     1       0.985   2.688  19.358  0.00  0.00    +0.000 A 
ATOM     20  C   UNL     1       1.524   3.358  20.454  0.00  0.00    +0.000 A 
ATOM     21 CL   UNL     1       1.418   2.652  22.020  0.00  0.00    +0.000 Cl
ATOM     22  C   UNL     1       2.154   4.595  20.292  0.00  0.00    +0.000 A 
ENDBRANCH  15  16
ENDBRANCH   4  15
TORSDOF 4
ENDMDL
MODEL 5
REMARK VINA RESULT:      -7.3      1.922      2.329
REMARK  Name = 
REMARK  4 active torsions:
REMARK  status: ('A' for Active; 'I' for Inactive)
REMARK    1  A    between atoms: N_3  and  C_4
REMARK    2  A    between atoms: C_4  and  C_5
REMARK    3  A    between atoms: N_12  and  C_13
REMARK    4  A    between atoms: C_13  and  C_14
REMARK                            x       y       z     vdW  Elec       q    Type
REMARK                         _______ _______ _______ _____ _____    ______ ____
ROOT
ATOM      1  O   UNL     1       8.431   7.299  18.851  0.00  0.00    +0.000 OA
ATOM      2  C   UNL     1       8.021   8.034  17.960  0.00  0.00    +0.000 C 
ATOM      3  N   UNL     1       7.257   7.602  16.909  0.00  0.00    +0.000 N 
ATOM      4  N   UNL     1       8.260   9.378  17.916  0.00  0.00    +0.000 N 
ATOM      5  H   UNL     1       7.118   8.219  16.125  0.00  0.00    +0.000 HD
ATOM      6  H   UNL     1       7.880   9.927  17.163  0.00  0.00    +0.000 HD
ENDROOT
BRANCH   3   7
ATOM      7  C   UNL     1       6.909   6.208  16.749  0.00  0.00    +0.000 C 
BRANCH   7   8
ATOM      8  C   UNL     1       5.622   5.854  17.453  0.00  0.00    +0.000 A 
ATOM      9  C   UNL     1       4.512   6.711  17.369  0.00  0.00    +0.000 A 
ATOM     10  C   UNL     1       3.318   6.402  18.027  0.00  0.00    +0.000 A 
ATOM     11  C   UNL     1       3.222   5.237  18.786  0.00  0.00    +0.000 A 
ATOM     12  C   UNL     1       4.320   4.385  18.880  0.00  0.00    +0.000 A 
ATOM     13 CL   UNL     1       4.205   2.950  19.824  0.00  0.00    +0.000 Cl
ATOM     14  C   UNL     1       5.513   4.684  18.219  0.00  0.00    +0.000 A 
ENDBRANCH   7   8
ENDBRANCH   3   7
BRANCH   4  15
ATOM     15  C   UNL     1       9.042  10.060  18.925  0.00  0.00    +0.000 C 
BRANCH  15  16
ATOM     16  C   UNL     1       9.577  11.371  18.400  0.00  0.00    +0.000 A 
ATOM     17  C   UNL     1      10.834  11.415  17.779  0.00  0.00    +0.000 A 
ATOM     18  C   UNL     1      11.331  12.610  17.256  0.00  0.00    +0.000 A 
ATOM     19  C   UNL     1      10.581  13.781  17.359  0.00  0.00    +0.000 A 
ATOM     20  C   UNL     1       9.343  13.752  17.998  0.00  0.00    +0.000 A 
ATOM     21 CL   UNL     1       8.424  15.201  18.139  0.00  0.00    +0.000 Cl
ATOM     22  C   UNL     1       8.838  12.558  18.519  0.00  0.00    +0.000 A 
ENDBRANCH  15  16
ENDBRANCH   4  15
TORSDOF 4
ENDMDL
MODEL 6
REMARK VINA RESULT:      -7.3      5.831      7.040
REMARK  Name = 
REMARK  4 active torsions:
REMARK  status: ('A' for Active; 'I' for Inactive)
REMARK    1  A    between atoms: N_3  and  C_4
REMARK    2  A    between atoms: C_4  and  C_5
REMARK    3  A    between atoms: N_12  and  C_13
REMARK    4  A    between atoms: C_13  and  C_14
REMARK                            x       y       z     vdW  Elec       q    Type
REMARK                         _______ _______ _______ _____ _____    ______ ____
ROOT
ATOM      1  O   UNL     1       5.924   4.922  18.510  0.00  0.00    +0.000 OA
ATOM      2  C   UNL     1       5.324   5.511  17.617  0.00  0.00    +0.000 C 
ATOM      3  N   UNL     1       4.126   6.148  17.798  0.00  0.00    +0.000 N 
ATOM      4  N   UNL     1       5.788   5.620  16.337  0.00  0.00    +0.000 N 
ATOM      5  H   UNL     1       3.607   6.445  16.988  0.00  0.00    +0.000 HD
ATOM      6  H   UNL     1       5.252   6.133  15.657  0.00  0.00    +0.000 HD
ENDROOT
BRANCH   3   7
ATOM      7  C   UNL     1       3.446   6.134  19.074  0.00  0.00    +0.000 C 
BRANCH   7   8
ATOM      8  C   UNL     1       2.537   4.939  19.226  0.00  0.00    +0.000 A 
ATOM      9  C   UNL     1       1.819   4.453  18.121  0.00  0.00    +0.000 A 
ATOM     10  C   UNL     1       0.964   3.354  18.250  0.00  0.00    +0.000 A 
ATOM     11  C   UNL     1       0.810   2.733  19.487  0.00  0.00    +0.000 A 
ATOM     12  C   UNL     1       1.514   3.212  20.590  0.00  0.00    +0.000 A 
ATOM     13 CL   UNL     1       1.317   2.451  22.122  0.00  0.00    +0.000 Cl
ATOM     14  C   UNL     1       2.375   4.305  20.467  0.00  0.00    +0.000 A 
ENDBRANCH   7   8
ENDBRANCH   3   7
BRANCH   4  15
ATOM     15  C   UNL     1       7.038   5.029  15.912  0.00  0.00    +0.000 C 
BRANCH  15  16
ATOM     16  C   UNL     1       7.044   4.789  14.421  0.00  0.00    +0.000 A 
ATOM     17  C   UNL     1       7.847   5.582  13.588  0.00  0.00    +0.000 A 
ATOM     18  C   UNL     1       7.893   5.353  12.212  0.00  0.00    +0.000 A 
ATOM     19  C   UNL     1       7.124   4.335  11.649  0.00  0.00    +0.000 A 
ATOM     20  C   UNL     1       6.303   3.559  12.465  0.00  0.00    +0.000 A 
ATOM     21 CL   UNL     1       5.343   2.313  11.767  0.00  0.00    +0.000 Cl
ATOM     22  C   UNL     1       6.257   3.781  13.844  0.00  0.00    +0.000 A 
ENDBRANCH  15  16
ENDBRANCH   4  15
TORSDOF 4
ENDMDL
MODEL 7
REMARK VINA RESULT:      -7.3      1.667      8.443
REMARK  Name = 
REMARK  4 active torsions:
REMARK  status: ('A' for Active; 'I' for Inactive)
REMARK    1  A    between atoms: N_3  and  C_4
REMARK    2  A    between atoms: C_4  and  C_5
REMARK    3  A    between atoms: N_12  and  C_13
REMARK    4  A    between atoms: C_13  and  C_14
REMARK                            x       y       z     vdW  Elec       q    Type
REMARK                         _______ _______ _______ _____ _____    ______ ____
ROOT
ATOM      1  O   UNL     1       8.211   6.866  18.688  0.00  0.00    +0.000 OA
ATOM      2  C   UNL     1       7.782   7.689  17.889  0.00  0.00    +0.000 C 
ATOM      3  N   UNL     1       8.128   9.013  17.902  0.00  0.00    +0.000 N 
ATOM      4  N   UNL     1       6.920   7.383  16.875  0.00  0.00    +0.000 N 
ATOM      5  H   UNL     1       7.597   9.659  17.340  0.00  0.00    +0.000 HD
ATOM      6  H   UNL     1       6.619   8.106  16.242  0.00  0.00    +0.000 HD
ENDROOT
BRANCH   3   7
ATOM      7  C   UNL     1       9.012   9.556  18.910  0.00  0.00    +0.000 C 
BRANCH   7   8
ATOM      8  C   UNL     1       9.388  10.990  18.631  0.00  0.00    +0.000 A 
ATOM      9  C   UNL     1       8.581  11.783  17.799  0.00  0.00    +0.000 A 
ATOM     10  C   UNL     1       8.925  13.109  17.521  0.00  0.00    +0.000 A 
ATOM     11  C   UNL     1      10.085  13.657  18.065  0.00  0.00    +0.000 A 
ATOM     12  C   UNL     1      10.895  12.876  18.887  0.00  0.00    +0.000 A 
ATOM     13 CL   UNL     1      12.333  13.548  19.553  0.00  0.00    +0.000 Cl
ATOM     14  C   UNL     1      10.553  11.552  19.174  0.00  0.00    +0.000 A 
ENDBRANCH   7   8
ENDBRANCH   3   7
BRANCH   4  15
ATOM     15  C   UNL     1       6.419   6.042  16.660  0.00  0.00    +0.000 C 
BRANCH  15  16
ATOM     16  C   UNL     1       5.137   5.816  17.425  0.00  0.00    +0.000 A 
ATOM     17  C   UNL     1       4.110   6.770  17.367  0.00  0.00    +0.000 A 
ATOM     18  C   UNL     1       2.903   6.562  18.038  0.00  0.00    +0.000 A 
ATOM     19  C   UNL     1       2.714   5.403  18.788  0.00  0.00    +0.000 A 
ATOM     20  C   UNL     1       3.738   4.461  18.873  0.00  0.00    +0.000 A 
ATOM     21 CL   UNL     1       3.508   3.037  19.811  0.00  0.00    +0.000 Cl
ATOM     22  C   UNL     1       4.945   4.661  18.200  0.00  0.00    +0.000 A 
ENDBRANCH  15  16
ENDBRANCH   4  15
TORSDOF 4
ENDMDL
MODEL 8
REMARK VINA RESULT:      -7.3      1.905      8.385
REMARK  Name = 
REMARK  4 active torsions:
REMARK  status: ('A' for Active; 'I' for Inactive)
REMARK    1  A    between atoms: N_3  and  C_4
REMARK    2  A    between atoms: C_4  and  C_5
REMARK    3  A    between atoms: N_12  and  C_13
REMARK    4  A    between atoms: C_13  and  C_14
REMARK                            x       y       z     vdW  Elec       q    Type
REMARK                         _______ _______ _______ _____ _____    ______ ____
ROOT
ATOM      1  O   UNL     1       7.648   6.053  18.042  0.00  0.00    +0.000 OA
ATOM      2  C   UNL     1       7.247   6.983  17.352  0.00  0.00    +0.000 C 
ATOM      3  N   UNL     1       7.680   8.274  17.489  0.00  0.00    +0.000 N 
ATOM      4  N   UNL     1       6.333   6.840  16.347  0.00  0.00    +0.000 N 
ATOM      5  H   UNL     1       7.174   9.008  17.020  0.00  0.00    +0.000 HD
ATOM      6  H   UNL     1       6.059   7.644  15.806  0.00  0.00    +0.000 HD
ENDROOT
BRANCH   3   7
ATOM      7  C   UNL     1       8.631   8.650  18.512  0.00  0.00    +0.000 C 
BRANCH   7   8
ATOM      8  C   UNL     1       8.863  10.140  18.558  0.00  0.00    +0.000 A 
ATOM      9  C   UNL     1       8.277  10.977  17.595  0.00  0.00    +0.000 A 
ATOM     10  C   UNL     1       8.494  12.358  17.619  0.00  0.00    +0.000 A 
ATOM     11  C   UNL     1       9.308  12.918  18.601  0.00  0.00    +0.000 A 
ATOM     12  C   UNL     1       9.898  12.095  19.558  0.00  0.00    +0.000 A 
ATOM     13 CL   UNL     1      10.912  12.784  20.767  0.00  0.00    +0.000 Cl
ATOM     14  C   UNL     1       9.680  10.715  19.543  0.00  0.00    +0.000 A 
ENDBRANCH   7   8
ENDBRANCH   3   7
BRANCH   4  15
ATOM     15  C   UNL     1       5.738   5.564  16.014  0.00  0.00    +0.000 C 
BRANCH  15  16
ATOM     16  C   UNL     1       4.494   5.318  16.834  0.00  0.00    +0.000 A 
ATOM     17  C   UNL     1       3.844   6.393  17.459  0.00  0.00    +0.000 A 
ATOM     18  C   UNL     1       2.672   6.191  18.191  0.00  0.00    +0.000 A 
ATOM     19  C   UNL     1       2.143   4.908  18.319  0.00  0.00    +0.000 A 
ATOM     20  C   UNL     1       2.796   3.830  17.724  0.00  0.00    +0.000 A 
ATOM     21 CL   UNL     1       2.150   2.244  17.895  0.00  0.00    +0.000 Cl
ATOM     22  C   UNL     1       3.965   4.026  16.985  0.00  0.00    +0.000 A 
ENDBRANCH  15  16
ENDBRANCH   4  15
TORSDOF 4
ENDMDL
MODEL 9
REMARK VINA RESULT:      -7.3      2.021      8.163
REMARK  Name = 
REMARK  4 active torsions:
REMARK  status: ('A' for Active; 'I' for Inactive)
REMARK    1  A    between atoms: N_3  and  C_4
REMARK    2  A    between atoms: C_4  and  C_5
REMARK    3  A    between atoms: N_12  and  C_13
REMARK    4  A    between atoms: C_13  and  C_14
REMARK                            x       y       z     vdW  Elec       q    Type
REMARK                         _______ _______ _______ _____ _____    ______ ____
ROOT
ATOM      1  O   UNL     1       7.933   6.658  18.490  0.00  0.00    +0.000 OA
ATOM      2  C   UNL     1       7.573   7.415  17.596  0.00  0.00    +0.000 C 
ATOM      3  N   UNL     1       7.948   8.730  17.518  0.00  0.00    +0.000 N 
ATOM      4  N   UNL     1       6.772   7.036  16.558  0.00  0.00    +0.000 N 
ATOM      5  H   UNL     1       7.468   9.333  16.869  0.00  0.00    +0.000 HD
ATOM      6  H   UNL     1       6.528   7.706  15.847  0.00  0.00    +0.000 HD
ENDROOT
BRANCH   3   7
ATOM      7  C   UNL     1       8.777   9.343  18.532  0.00  0.00    +0.000 C 
BRANCH   7   8
ATOM      8  C   UNL     1       9.141  10.767  18.190  0.00  0.00    +0.000 A 
ATOM      9  C   UNL     1      10.489  11.141  18.064  0.00  0.00    +0.000 A 
ATOM     10  C   UNL     1      10.841  12.459  17.760  0.00  0.00    +0.000 A 
ATOM     11  C   UNL     1       9.850  13.423  17.586  0.00  0.00    +0.000 A 
ATOM     12  C   UNL     1       8.510  13.062  17.714  0.00  0.00    +0.000 A 
ATOM     13 CL   UNL     1       7.284  14.253  17.509  0.00  0.00    +0.000 Cl
ATOM     14  C   UNL     1       8.151  11.745  18.012  0.00  0.00    +0.000 A 
ENDBRANCH   7   8
ENDBRANCH   3   7
BRANCH   4  15
ATOM     15  C   UNL     1       6.256   5.691  16.428  0.00  0.00    +0.000 C 
BRANCH  15  16
ATOM     16  C   UNL     1       4.861   5.589  16.997  0.00  0.00    +0.000 A 
ATOM     17  C   UNL     1       4.215   4.344  17.048  0.00  0.00    +0.000 A 
ATOM     18  C   UNL     1       2.940   4.223  17.602  0.00  0.00    +0.000 A 
ATOM     19  C   UNL     1       2.287   5.350  18.101  0.00  0.00    +0.000 A 
ATOM     20  C   UNL     1       2.910   6.594  18.031  0.00  0.00    +0.000 A 
ATOM     21 CL   UNL     1       2.097   7.987  18.633  0.00  0.00    +0.000 Cl
ATOM     22  C   UNL     1       4.188   6.721  17.482  0.00  0.00    +0.000 A 
ENDBRANCH  15  16
ENDBRANCH   4  15
TORSDOF 4
ENDMDL
