MODEL 1
REMARK VINA RESULT:      -8.1      0.000      0.000
REMARK  Name = 
REMARK  6 active torsions:
REMARK  status: ('A' for Active; 'I' for Inactive)
REMARK    1  A    between atoms: C_1  and  O_2
REMARK    2  A    between atoms: O_2  and  C_3
REMARK    3  A    between atoms: CA_6  and  C_7
REMARK    4  A    between atoms: C_7  and  OXT_9
REMARK    5  A    between atoms: C_11  and  C_12
REMARK    6  A    between atoms: C_15  and  C_16
REMARK                            x       y       z     vdW  Elec       q    Type
REMARK                         _______ _______ _______ _____ _____    ______ ____
ROOT
ATOM      1  C   UNL     1       3.126   6.450  18.931  0.00  0.00    +0.000 A 
ATOM      2  C   UNL     1       2.022   6.551  19.780  0.00  0.00    +0.000 A 
ATOM      3  C   UNL     1       1.665   5.473  20.583  0.00  0.00    +0.000 A 
ATOM      4  CA  UNL     1       2.425   4.317  20.501  0.00  0.00    +0.000 A 
ATOM      5  N   UNL     1       3.519   4.164  19.697  0.00  0.00    +0.000 NA
ATOM      6  C   UNL     1       3.856   5.245  18.929  0.00  0.00    +0.000 A 
ENDROOT
BRANCH   6   7
ATOM      7  C   UNL     1       5.052   5.085  18.091  0.00  0.00    +0.000 A 
ATOM      8  C   UNL     1       6.334   5.014  18.597  0.00  0.00    +0.000 A 
ATOM      9  S   UNL     1       7.453   4.741  17.327  0.00  0.00    +0.000 S 
ATOM     10  C   UNL     1       6.162   4.741  16.185  0.00  0.00    +0.000 A 
ATOM     11  N   UNL     1       4.979   4.997  16.706  0.00  0.00    +0.000 NA
BRANCH  10  12
ATOM     12  C   UNL     1       6.395   4.507  14.748  0.00  0.00    +0.000 A 
ATOM     13  C   UNL     1       5.603   3.635  13.983  0.00  0.00    +0.000 A 
ATOM     14  C   UNL     1       5.852   3.449  12.619  0.00  0.00    +0.000 A 
ATOM     15  C   UNL     1       6.891   4.136  11.997  0.00  0.00    +0.000 A 
ATOM     16  C   UNL     1       7.674   5.021  12.733  0.00  0.00    +0.000 A 
ATOM     17  C   UNL     1       7.423   5.209  14.096  0.00  0.00    +0.000 A 
ENDBRANCH  10  12
ENDBRANCH   6   7
BRANCH   1  19
ATOM     18  C   UNL     1       2.510   8.460  17.817  0.00  0.00    +0.000 C 
ATOM     19  O   UNL     1       3.462   7.428  18.033  0.00  0.00    +0.000 OA
ENDBRANCH   1  19
BRANCH   4  20
ATOM     20  C   UNL     1       2.040   3.126  21.316  0.00  0.00    +0.000 C 
ATOM     21  O   UNL     1       2.792   2.519  22.056  0.00  0.00    +0.000 OA
BRANCH  20  22
ATOM     22  OXT UNL     1       0.735   2.818  21.128  0.00  0.00    +0.000 OA
ATOM     23  HXT UNL     1       0.673   1.954  20.659  0.00  0.00    +0.000 HD
ENDBRANCH  20  22
ENDBRANCH   4  20
TORSDOF 5
ENDMDL
MODEL 2
REMARK VINA RESULT:      -7.7      1.560      2.928
REMARK  Name = 
REMARK  6 active torsions:
REMARK  status: ('A' for Active; 'I' for Inactive)
REMARK    1  A    between atoms: C_1  and  O_2
REMARK    2  A    between atoms: O_2  and  C_3
REMARK    3  A    between atoms: CA_6  and  C_7
REMARK    4  A    between atoms: C_7  and  OXT_9
REMARK    5  A    between atoms: C_11  and  C_12
REMARK    6  A    between atoms: C_15  and  C_16
REMARK                            x       y       z     vdW  Elec       q    Type
REMARK                         _______ _______ _______ _____ _____    ______ ____
ROOT
ATOM      1  C   UNL     1       3.210   3.869  19.390  0.00  0.00    +0.000 A 
ATOM      2  C   UNL     1       2.048   4.028  20.149  0.00  0.00    +0.000 A 
ATOM      3  C   UNL     1       1.570   5.306  20.422  0.00  0.00    +0.000 A 
ATOM      4  CA  UNL     1       2.283   6.389  19.933  0.00  0.00    +0.000 A 
ATOM      5  N   UNL     1       3.417   6.294  19.179  0.00  0.00    +0.000 NA
ATOM      6  C   UNL     1       3.857   5.026  18.912  0.00  0.00    +0.000 A 
ENDROOT
BRANCH   6   7
ATOM      7  C   UNL     1       5.060   4.930  18.075  0.00  0.00    +0.000 A 
ATOM      8  C   UNL     1       6.343   4.903  18.583  0.00  0.00    +0.000 A 
ATOM      9  S   UNL     1       7.474   4.698  17.311  0.00  0.00    +0.000 S 
ATOM     10  C   UNL     1       6.187   4.666  16.166  0.00  0.00    +0.000 A 
ATOM     11  N   UNL     1       4.994   4.864  16.688  0.00  0.00    +0.000 NA
BRANCH  10  12
ATOM     12  C   UNL     1       6.432   4.469  14.725  0.00  0.00    +0.000 A 
ATOM     13  C   UNL     1       5.654   3.606  13.935  0.00  0.00    +0.000 A 
ATOM     14  C   UNL     1       5.914   3.455  12.569  0.00  0.00    +0.000 A 
ATOM     15  C   UNL     1       6.950   4.167  11.970  0.00  0.00    +0.000 A 
ATOM     16  C   UNL     1       7.721   5.041  12.732  0.00  0.00    +0.000 A 
ATOM     17  C   UNL     1       7.458   5.195  14.098  0.00  0.00    +0.000 A 
ENDBRANCH  10  12
ENDBRANCH   6   7
BRANCH   1  19
ATOM     18  C   UNL     1       3.161   1.775  18.260  0.00  0.00    +0.000 C 
ATOM     19  O   UNL     1       3.797   2.650  19.182  0.00  0.00    +0.000 OA
ENDBRANCH   1  19
BRANCH   4  20
ATOM     20  C   UNL     1       1.821   7.774  20.249  0.00  0.00    +0.000 C 
ATOM     21  O   UNL     1       1.565   8.627  19.419  0.00  0.00    +0.000 OA
BRANCH  20  22
ATOM     22  OXT UNL     1       1.715   7.950  21.587  0.00  0.00    +0.000 OA
ATOM     23  HXT UNL     1       0.781   8.170  21.810  0.00  0.00    +0.000 HD
ENDBRANCH  20  22
ENDBRANCH   4  20
TORSDOF 5
ENDMDL
MODEL 3
REMARK VINA RESULT:      -7.6      1.562      3.110
REMARK  Name = 
REMARK  6 active torsions:
REMARK  status: ('A' for Active; 'I' for Inactive)
REMARK    1  A    between atoms: C_1  and  O_2
REMARK    2  A    between atoms: O_2  and  C_3
REMARK    3  A    between atoms: CA_6  and  C_7
REMARK    4  A    between atoms: C_7  and  OXT_9
REMARK    5  A    between atoms: C_11  and  C_12
REMARK    6  A    between atoms: C_15  and  C_16
REMARK                            x       y       z     vdW  Elec       q    Type
REMARK                         _______ _______ _______ _____ _____    ______ ____
ROOT
ATOM      1  C   UNL     1       3.160   3.889  19.348  0.00  0.00    +0.000 A 
ATOM      2  C   UNL     1       1.988   4.052  20.090  0.00  0.00    +0.000 A 
ATOM      3  C   UNL     1       1.521   5.331  20.375  0.00  0.00    +0.000 A 
ATOM      4  CA  UNL     1       2.254   6.412  19.912  0.00  0.00    +0.000 A 
ATOM      5  N   UNL     1       3.400   6.314  19.175  0.00  0.00    +0.000 NA
ATOM      6  C   UNL     1       3.828   5.044  18.898  0.00  0.00    +0.000 A 
ENDROOT
BRANCH   6   7
ATOM      7  C   UNL     1       5.043   4.945  18.079  0.00  0.00    +0.000 A 
ATOM      8  C   UNL     1       6.316   4.874  18.607  0.00  0.00    +0.000 A 
ATOM      9  S   UNL     1       7.465   4.681  17.349  0.00  0.00    +0.000 S 
ATOM     10  C   UNL     1       6.198   4.711  16.182  0.00  0.00    +0.000 A 
ATOM     11  N   UNL     1       5.001   4.922  16.689  0.00  0.00    +0.000 NA
BRANCH  10  12
ATOM     12  C   UNL     1       6.464   4.550  14.741  0.00  0.00    +0.000 A 
ATOM     13  C   UNL     1       7.486   5.248  14.075  0.00  0.00    +0.000 A 
ATOM     14  C   UNL     1       7.711   5.059  12.708  0.00  0.00    +0.000 A 
ATOM     15  C   UNL     1       6.925   4.166  11.986  0.00  0.00    +0.000 A 
ATOM     16  C   UNL     1       5.920   3.449  12.631  0.00  0.00    +0.000 A 
ATOM     17  C   UNL     1       5.698   3.635  13.999  0.00  0.00    +0.000 A 
ENDBRANCH  10  12
ENDBRANCH   6   7
BRANCH   1  19
ATOM     18  C   UNL     1       3.013   1.745  18.327  0.00  0.00    +0.000 C 
ATOM     19  O   UNL     1       3.735   2.666  19.132  0.00  0.00    +0.000 OA
ENDBRANCH   1  19
BRANCH   4  20
ATOM     20  C   UNL     1       1.804   7.798  20.241  0.00  0.00    +0.000 C 
ATOM     21  O   UNL     1       1.535   8.654  19.418  0.00  0.00    +0.000 OA
BRANCH  20  22
ATOM     22  OXT UNL     1       1.726   7.972  21.581  0.00  0.00    +0.000 OA
ATOM     23  HXT UNL     1       2.188   8.807  21.825  0.00  0.00    +0.000 HD
ENDBRANCH  20  22
ENDBRANCH   4  20
TORSDOF 5
ENDMDL
MODEL 4
REMARK VINA RESULT:      -7.5      0.475      1.284
REMARK  Name = 
REMARK  6 active torsions:
REMARK  status: ('A' for Active; 'I' for Inactive)
REMARK    1  A    between atoms: C_1  and  O_2
REMARK    2  A    between atoms: O_2  and  C_3
REMARK    3  A    between atoms: CA_6  and  C_7
REMARK    4  A    between atoms: C_7  and  OXT_9
REMARK    5  A    between atoms: C_11  and  C_12
REMARK    6  A    between atoms: C_15  and  C_16
REMARK                            x       y       z     vdW  Elec       q    Type
REMARK                         _______ _______ _______ _____ _____    ______ ____
ROOT
ATOM      1  C   UNL     1       2.819   5.981  18.728  0.00  0.00    +0.000 A 
ATOM      2  C   UNL     1       1.705   5.965  19.571  0.00  0.00    +0.000 A 
ATOM      3  C   UNL     1       1.560   4.946  20.507  0.00  0.00    +0.000 A 
ATOM      4  CA  UNL     1       2.536   3.964  20.561  0.00  0.00    +0.000 A 
ATOM      5  N   UNL     1       3.650   3.933  19.771  0.00  0.00    +0.000 NA
ATOM      6  C   UNL     1       3.775   4.955  18.869  0.00  0.00    +0.000 A 
ENDROOT
BRANCH   6   7
ATOM      7  C   UNL     1       4.989   4.933  18.044  0.00  0.00    +0.000 A 
ATOM      8  C   UNL     1       6.266   4.987  18.565  0.00  0.00    +0.000 A 
ATOM      9  S   UNL     1       7.421   4.851  17.305  0.00  0.00    +0.000 S 
ATOM     10  C   UNL     1       6.150   4.736  16.146  0.00  0.00    +0.000 A 
ATOM     11  N   UNL     1       4.942   4.861  16.656  0.00  0.00    +0.000 NA
BRANCH  10  12
ATOM     12  C   UNL     1       6.421   4.552  14.709  0.00  0.00    +0.000 A 
ATOM     13  C   UNL     1       7.450   5.234  14.038  0.00  0.00    +0.000 A 
ATOM     14  C   UNL     1       7.680   5.023  12.675  0.00  0.00    +0.000 A 
ATOM     15  C   UNL     1       6.892   4.123  11.962  0.00  0.00    +0.000 A 
ATOM     16  C   UNL     1       5.881   3.422  12.614  0.00  0.00    +0.000 A 
ATOM     17  C   UNL     1       5.653   3.630  13.978  0.00  0.00    +0.000 A 
ENDBRANCH  10  12
ENDBRANCH   6   7
BRANCH   1  19
ATOM     18  C   UNL     1       2.648   8.239  18.000  0.00  0.00    +0.000 C 
ATOM     19  O   UNL     1       2.965   6.885  17.711  0.00  0.00    +0.000 OA
ENDBRANCH   1  19
BRANCH   4  20
ATOM     20  C   UNL     1       2.385   2.832  21.524  0.00  0.00    +0.000 C 
ATOM     21  O   UNL     1       1.372   2.584  22.151  0.00  0.00    +0.000 OA
BRANCH  20  22
ATOM     22  OXT UNL     1       3.528   2.110  21.598  0.00  0.00    +0.000 OA
ATOM     23  HXT UNL     1       3.937   2.244  22.483  0.00  0.00    +0.000 HD
ENDBRANCH  20  22
ENDBRANCH   4  20
TORSDOF 5
ENDMDL
MODEL 5
REMARK VINA RESULT:      -7.3      3.564      7.857
REMARK  Name = 
REMARK  6 active torsions:
REMARK  status: ('A' for Active; 'I' for Inactive)
REMARK    1  A    between atoms: C_1  and  O_2
REMARK    2  A    between atoms: O_2  and  C_3
REMARK    3  A    between atoms: CA_6  and  C_7
REMARK    4  A    between atoms: C_7  and  OXT_9
REMARK    5  A    between atoms: C_11  and  C_12
REMARK    6  A    between atoms: C_15  and  C_16
REMARK                            x       y       z     vdW  Elec       q    Type
REMARK                         _______ _______ _______ _____ _____    ______ ____
ROOT
ATOM      1  C   UNL     1       2.712   4.655  18.965  0.00  0.00    +0.000 A 
ATOM      2  C   UNL     1       3.441   3.471  18.832  0.00  0.00    +0.000 A 
ATOM      3  C   UNL     1       4.733   3.509  18.318  0.00  0.00    +0.000 A 
ATOM      4  CA  UNL     1       5.251   4.737  17.940  0.00  0.00    +0.000 A 
ATOM      5  N   UNL     1       4.589   5.926  18.055  0.00  0.00    +0.000 NA
ATOM      6  C   UNL     1       3.326   5.862  18.578  0.00  0.00    +0.000 A 
ENDROOT
BRANCH   6   7
ATOM      7  C   UNL     1       2.632   7.148  18.728  0.00  0.00    +0.000 A 
ATOM      8  C   UNL     1       2.460   8.047  17.695  0.00  0.00    +0.000 A 
ATOM      9  S   UNL     1       1.531   9.385  18.230  0.00  0.00    +0.000 S 
ATOM     10  C   UNL     1       1.422   8.687  19.802  0.00  0.00    +0.000 A 
ATOM     11  N   UNL     1       2.093   7.562  19.941  0.00  0.00    +0.000 NA
BRANCH  10  12
ATOM     12  C   UNL     1       0.666   9.334  20.889  0.00  0.00    +0.000 A 
ATOM     13  C   UNL     1       0.716   8.884  22.219  0.00  0.00    +0.000 A 
ATOM     14  C   UNL     1      -0.010   9.533  23.224  0.00  0.00    +0.000 A 
ATOM     15  C   UNL     1      -0.790  10.644  22.917  0.00  0.00    +0.000 A 
ATOM     16  C   UNL     1      -0.837  11.118  21.609  0.00  0.00    +0.000 A 
ATOM     17  C   UNL     1      -0.108  10.472  20.605  0.00  0.00    +0.000 A 
ENDBRANCH  10  12
ENDBRANCH   6   7
BRANCH   1  19
ATOM     18  C   UNL     1       1.000   3.727  20.332  0.00  0.00    +0.000 C 
ATOM     19  O   UNL     1       1.399   4.676  19.353  0.00  0.00    +0.000 OA
ENDBRANCH   1  19
BRANCH   4  20
ATOM     20  C   UNL     1       6.618   4.805  17.341  0.00  0.00    +0.000 C 
ATOM     21  O   UNL     1       6.877   5.286  16.253  0.00  0.00    +0.000 OA
BRANCH  20  22
ATOM     22  OXT UNL     1       7.536   4.266  18.179  0.00  0.00    +0.000 OA
ATOM     23  HXT UNL     1       7.857   3.416  17.800  0.00  0.00    +0.000 HD
ENDBRANCH  20  22
ENDBRANCH   4  20
TORSDOF 5
ENDMDL
MODEL 6
REMARK VINA RESULT:      -7.3      3.509      7.488
REMARK  Name = 
REMARK  6 active torsions:
REMARK  status: ('A' for Active; 'I' for Inactive)
REMARK    1  A    between atoms: C_1  and  O_2
REMARK    2  A    between atoms: O_2  and  C_3
REMARK    3  A    between atoms: CA_6  and  C_7
REMARK    4  A    between atoms: C_7  and  OXT_9
REMARK    5  A    between atoms: C_11  and  C_12
REMARK    6  A    between atoms: C_15  and  C_16
REMARK                            x       y       z     vdW  Elec       q    Type
REMARK                         _______ _______ _______ _____ _____    ______ ____
ROOT
ATOM      1  C   UNL     1       4.151   5.810  17.598  0.00  0.00    +0.000 A 
ATOM      2  C   UNL     1       4.569   4.517  17.277  0.00  0.00    +0.000 A 
ATOM      3  C   UNL     1       3.732   3.436  17.530  0.00  0.00    +0.000 A 
ATOM      4  CA  UNL     1       2.499   3.686  18.111  0.00  0.00    +0.000 A 
ATOM      5  N   UNL     1       2.033   4.928  18.438  0.00  0.00    +0.000 NA
ATOM      6  C   UNL     1       2.871   5.974  18.165  0.00  0.00    +0.000 A 
ENDROOT
BRANCH   6   7
ATOM      7  C   UNL     1       2.352   7.309  18.489  0.00  0.00    +0.000 A 
ATOM      8  C   UNL     1       2.347   8.364  17.599  0.00  0.00    +0.000 A 
ATOM      9  S   UNL     1       1.586   9.727  18.306  0.00  0.00    +0.000 S 
ATOM     10  C   UNL     1       1.317   8.831  19.754  0.00  0.00    +0.000 A 
ATOM     11  N   UNL     1       1.824   7.615  19.739  0.00  0.00    +0.000 NA
BRANCH  10  12
ATOM     12  C   UNL     1       0.611   9.414  20.909  0.00  0.00    +0.000 A 
ATOM     13  C   UNL     1       0.748   8.911  22.214  0.00  0.00    +0.000 A 
ATOM     14  C   UNL     1       0.067   9.500  23.285  0.00  0.00    +0.000 A 
ATOM     15  C   UNL     1      -0.755  10.602  23.070  0.00  0.00    +0.000 A 
ATOM     16  C   UNL     1      -0.889  11.128  21.788  0.00  0.00    +0.000 A 
ATOM     17  C   UNL     1      -0.205  10.542  20.718  0.00  0.00    +0.000 A 
ENDBRANCH  10  12
ENDBRANCH   6   7
BRANCH   1  19
ATOM     18  C   UNL     1       6.332   6.659  17.171  0.00  0.00    +0.000 C 
ATOM     19  O   UNL     1       4.967   6.903  17.483  0.00  0.00    +0.000 OA
ENDBRANCH   1  19
BRANCH   4  20
ATOM     20  C   UNL     1       1.596   2.541  18.438  0.00  0.00    +0.000 C 
ATOM     21  O   UNL     1       0.382   2.608  18.494  0.00  0.00    +0.000 OA
BRANCH  20  22
ATOM     22  OXT UNL     1       2.312   1.413  18.655  0.00  0.00    +0.000 OA
ATOM     23  HXT UNL     1       2.613   1.052  17.790  0.00  0.00    +0.000 HD
ENDBRANCH  20  22
ENDBRANCH   4  20
TORSDOF 5
ENDMDL
MODEL 7
REMARK VINA RESULT:      -7.3      3.867      7.885
REMARK  Name = 
REMARK  6 active torsions:
REMARK  status: ('A' for Active; 'I' for Inactive)
REMARK    1  A    between atoms: C_1  and  O_2
REMARK    2  A    between atoms: O_2  and  C_3
REMARK    3  A    between atoms: CA_6  and  C_7
REMARK    4  A    between atoms: C_7  and  OXT_9
REMARK    5  A    between atoms: C_11  and  C_12
REMARK    6  A    between atoms: C_15  and  C_16
REMARK                            x       y       z     vdW  Elec       q    Type
REMARK                         _______ _______ _______ _____ _____    ______ ____
ROOT
ATOM      1  C   UNL     1       2.863   4.696  19.187  0.00  0.00    +0.000 A 
ATOM      2  C   UNL     1       3.688   3.570  19.242  0.00  0.00    +0.000 A 
ATOM      3  C   UNL     1       5.070   3.721  19.178  0.00  0.00    +0.000 A 
ATOM      4  CA  UNL     1       5.582   5.002  19.048  0.00  0.00    +0.000 A 
ATOM      5  N   UNL     1       4.825   6.139  18.998  0.00  0.00    +0.000 NA
ATOM      6  C   UNL     1       3.471   5.962  19.078  0.00  0.00    +0.000 A 
ENDROOT
BRANCH   6   7
ATOM      7  C   UNL     1       2.665   7.190  19.056  0.00  0.00    +0.000 A 
ATOM      8  C   UNL     1       2.402   7.909  17.907  0.00  0.00    +0.000 A 
ATOM      9  S   UNL     1       1.362   9.224  18.263  0.00  0.00    +0.000 S 
ATOM     10  C   UNL     1       1.332   8.758  19.922  0.00  0.00    +0.000 A 
ATOM     11  N   UNL     1       2.103   7.729  20.208  0.00  0.00    +0.000 NA
BRANCH  10  12
ATOM     12  C   UNL     1       0.532   9.489  20.921  0.00  0.00    +0.000 A 
ATOM     13  C   UNL     1      -0.225  10.629  20.600  0.00  0.00    +0.000 A 
ATOM     14  C   UNL     1      -0.978  11.288  21.577  0.00  0.00    +0.000 A 
ATOM     15  C   UNL     1      -0.992  10.816  22.887  0.00  0.00    +0.000 A 
ATOM     16  C   UNL     1      -0.265   9.677  23.221  0.00  0.00    +0.000 A 
ATOM     17  C   UNL     1       0.485   9.016  22.243  0.00  0.00    +0.000 A 
ENDBRANCH  10  12
ENDBRANCH   6   7
BRANCH   1  19
ATOM     18  C   UNL     1       0.850   3.892  20.169  0.00  0.00    +0.000 C 
ATOM     19  O   UNL     1       1.498   4.611  19.128  0.00  0.00    +0.000 OA
ENDBRANCH   1  19
BRANCH   4  20
ATOM     20  C   UNL     1       7.059   5.194  18.930  0.00  0.00    +0.000 C 
ATOM     21  O   UNL     1       7.692   5.085  17.896  0.00  0.00    +0.000 OA
BRANCH  20  22
ATOM     22  OXT UNL     1       7.598   5.515  20.129  0.00  0.00    +0.000 OA
ATOM     23  HXT UNL     1       6.890   5.865  20.717  0.00  0.00    +0.000 HD
ENDBRANCH  20  22
ENDBRANCH   4  20
TORSDOF 5
ENDMDL
MODEL 8
REMARK VINA RESULT:      -7.1      3.563      7.611
REMARK  Name = 
REMARK  6 active torsions:
REMARK  status: ('A' for Active; 'I' for Inactive)
REMARK    1  A    between atoms: C_1  and  O_2
REMARK    2  A    between atoms: O_2  and  C_3
REMARK    3  A    between atoms: CA_6  and  C_7
REMARK    4  A    between atoms: C_7  and  OXT_9
REMARK    5  A    between atoms: C_11  and  C_12
REMARK    6  A    between atoms: C_15  and  C_16
REMARK                            x       y       z     vdW  Elec       q    Type
REMARK                         _______ _______ _______ _____ _____    ______ ____
ROOT
ATOM      1  C   UNL     1       3.850   5.756  18.393  0.00  0.00    +0.000 A 
ATOM      2  C   UNL     1       4.326   4.444  18.441  0.00  0.00    +0.000 A 
ATOM      3  C   UNL     1       3.765   3.537  19.335  0.00  0.00    +0.000 A 
ATOM      4  CA  UNL     1       2.747   3.980  20.164  0.00  0.00    +0.000 A 
ATOM      5  N   UNL     1       2.236   5.247  20.154  0.00  0.00    +0.000 NA
ATOM      6  C   UNL     1       2.796   6.114  19.256  0.00  0.00    +0.000 A 
ENDROOT
BRANCH   6   7
ATOM      7  C   UNL     1       2.220   7.465  19.229  0.00  0.00    +0.000 A 
ATOM      8  C   UNL     1       2.221   8.272  18.110  0.00  0.00    +0.000 A 
ATOM      9  S   UNL     1       1.386   9.733  18.438  0.00  0.00    +0.000 S 
ATOM     10  C   UNL     1       1.083   9.202  20.050  0.00  0.00    +0.000 A 
ATOM     11  N   UNL     1       1.628   8.041  20.347  0.00  0.00    +0.000 NA
BRANCH  10  12
ATOM     12  C   UNL     1       0.308  10.016  21.004  0.00  0.00    +0.000 A 
ATOM     13  C   UNL     1      -0.122  11.322  20.713  0.00  0.00    +0.000 A 
ATOM     14  C   UNL     1      -0.863  12.057  21.644  0.00  0.00    +0.000 A 
ATOM     15  C   UNL     1      -1.193  11.498  22.875  0.00  0.00    +0.000 A 
ATOM     16  C   UNL     1      -0.793  10.198  23.175  0.00  0.00    +0.000 A 
ATOM     17  C   UNL     1      -0.055   9.462  22.243  0.00  0.00    +0.000 A 
ENDBRANCH  10  12
ENDBRANCH   6   7
BRANCH   1  19
ATOM     18  C   UNL     1       5.818   6.583  17.340  0.00  0.00    +0.000 C 
ATOM     19  O   UNL     1       4.432   6.727  17.623  0.00  0.00    +0.000 OA
ENDBRANCH   1  19
BRANCH   4  20
ATOM     20  C   UNL     1       2.157   3.043  21.166  0.00  0.00    +0.000 C 
ATOM     21  O   UNL     1       2.784   2.479  22.043  0.00  0.00    +0.000 OA
BRANCH  20  22
ATOM     22  OXT UNL     1       0.823   2.914  20.974  0.00  0.00    +0.000 OA
ATOM     23  HXT UNL     1       0.626   3.009  20.014  0.00  0.00    +0.000 HD
ENDBRANCH  20  22
ENDBRANCH   4  20
TORSDOF 5
ENDMDL
MODEL 9
REMARK VINA RESULT:      -7.1      3.554      7.568
REMARK  Name = 
REMARK  6 active torsions:
REMARK  status: ('A' for Active; 'I' for Inactive)
REMARK    1  A    between atoms: C_1  and  O_2
REMARK    2  A    between atoms: O_2  and  C_3
REMARK    3  A    between atoms: CA_6  and  C_7
REMARK    4  A    between atoms: C_7  and  OXT_9
REMARK    5  A    between atoms: C_11  and  C_12
REMARK    6  A    between atoms: C_15  and  C_16
REMARK                            x       y       z     vdW  Elec       q    Type
REMARK                         _______ _______ _______ _____ _____    ______ ____
ROOT
ATOM      1  C   UNL     1       3.891   5.722  18.451  0.00  0.00    +0.000 A 
ATOM      2  C   UNL     1       4.377   4.414  18.503  0.00  0.00    +0.000 A 
ATOM      3  C   UNL     1       3.813   3.501  19.389  0.00  0.00    +0.000 A 
ATOM      4  CA  UNL     1       2.781   3.935  20.206  0.00  0.00    +0.000 A 
ATOM      5  N   UNL     1       2.259   5.197  20.192  0.00  0.00    +0.000 NA
ATOM      6  C   UNL     1       2.823   6.070  19.301  0.00  0.00    +0.000 A 
ENDROOT
BRANCH   6   7
ATOM      7  C   UNL     1       2.236   7.416  19.269  0.00  0.00    +0.000 A 
ATOM      8  C   UNL     1       2.220   8.214  18.143  0.00  0.00    +0.000 A 
ATOM      9  S   UNL     1       1.377   9.672  18.468  0.00  0.00    +0.000 S 
ATOM     10  C   UNL     1       1.094   9.152  20.087  0.00  0.00    +0.000 A 
ATOM     11  N   UNL     1       1.651   7.997  20.389  0.00  0.00    +0.000 NA
BRANCH  10  12
ATOM     12  C   UNL     1       0.323   9.967  21.042  0.00  0.00    +0.000 A 
ATOM     13  C   UNL     1      -0.117   9.471  22.281  0.00  0.00    +0.000 A 
ATOM     14  C   UNL     1      -0.839  10.282  23.163  0.00  0.00    +0.000 A 
ATOM     15  C   UNL     1      -1.127  11.601  22.825  0.00  0.00    +0.000 A 
ATOM     16  C   UNL     1      -0.683  12.118  21.611  0.00  0.00    +0.000 A 
ATOM     17  C   UNL     1       0.042  11.308  20.730  0.00  0.00    +0.000 A 
ENDBRANCH  10  12
ENDBRANCH   6   7
BRANCH   1  19
ATOM     18  C   UNL     1       5.839   6.516  17.339  0.00  0.00    +0.000 C 
ATOM     19  O   UNL     1       4.474   6.698  17.689  0.00  0.00    +0.000 OA
ENDBRANCH   1  19
BRANCH   4  20
ATOM     20  C   UNL     1       2.186   2.992  21.200  0.00  0.00    +0.000 C 
ATOM     21  O   UNL     1       2.816   2.392  22.051  0.00  0.00    +0.000 OA
BRANCH  20  22
ATOM     22  OXT UNL     1       0.846   2.901  21.033  0.00  0.00    +0.000 OA
ATOM     23  HXT UNL     1       0.658   2.527  20.142  0.00  0.00    +0.000 HD
ENDBRANCH  20  22
ENDBRANCH   4  20
TORSDOF 5
ENDMDL
