MODEL 1
REMARK VINA RESULT:      -7.7      0.000      0.000
REMARK  Name = 
REMARK  9 active torsions:
REMARK  status: ('A' for Active; 'I' for Inactive)
REMARK    1  A    between atoms: N_3  and  C_4
REMARK    2  A    between atoms: N_11  and  C_12
REMARK    3  A    between atoms: N_15  and  C_16
REMARK    4  A    between atoms: C_16  and  C_17
REMARK    5  A    between atoms: C_20  and  O_21
REMARK    6  A    between atoms: O_21  and  C_22
REMARK    7  A    between atoms: C_22  and  C_23
REMARK    8  A    between atoms: C_23  and  C_24
REMARK    9  A    between atoms: C_24  and  N_25
REMARK                            x       y       z     vdW  Elec       q    Type
REMARK                         _______ _______ _______ _____ _____    ______ ____
ROOT
ATOM      1  C   UNL     1       0.803  10.472  18.819  0.00  0.00    +0.000 C 
ATOM      2  C   UNL     1      -0.718  10.466  18.898  0.00  0.00    +0.000 C 
ATOM      3  C   UNL     1      -1.037  11.925  19.168  0.00  0.00    +0.000 C 
ATOM      4  N   UNL     1       0.004  12.384  20.102  0.00  0.00    +0.000 NA
ATOM      5  C   UNL     1       1.238  11.757  19.565  0.00  0.00    +0.000 C 
ENDROOT
BRANCH   1   9
ATOM      6  O   UNL     1       2.231   8.777  17.261  0.00  0.00    +0.000 OA
ATOM      7  C   UNL     1       2.084   8.450  18.432  0.00  0.00    +0.000 C 
ATOM      8  N   UNL     1       2.505   7.274  19.011  0.00  0.00    +0.000 N 
ATOM      9  N   UNL     1       1.397   9.246  19.326  0.00  0.00    +0.000 N 
ATOM     10  H   UNL     1       2.003   7.013  19.848  0.00  0.00    +0.000 HD
ATOM     11  H   UNL     1       1.741   9.237  20.276  0.00  0.00    +0.000 HD
BRANCH   8  12
ATOM     12  C   UNL     1       3.159   6.236  18.307  0.00  0.00    +0.000 A 
ATOM     13  C   UNL     1       4.316   6.448  17.548  0.00  0.00    +0.000 A 
ATOM     14  C   UNL     1       4.856   5.426  16.765  0.00  0.00    +0.000 A 
ATOM     15  C   UNL     1       4.253   4.172  16.751  0.00  0.00    +0.000 A 
ATOM     16  C   UNL     1       3.136   3.938  17.551  0.00  0.00    +0.000 A 
ATOM     17 CL   UNL     1       2.391   2.386  17.537  0.00  0.00    +0.000 Cl
ATOM     18  C   UNL     1       2.597   4.956  18.343  0.00  0.00    +0.000 A 
ENDBRANCH   8  12
ENDBRANCH   1   9
BRANCH   4  19
ATOM     19  C   UNL     1      -0.182  11.951  21.499  0.00  0.00    +0.000 C 
BRANCH  19  20
ATOM     20  C   UNL     1      -1.378  12.546  22.204  0.00  0.00    +0.000 A 
ATOM     21  C   UNL     1      -1.692  13.890  21.987  0.00  0.00    +0.000 A 
ATOM     22  C   UNL     1      -2.787  14.472  22.612  0.00  0.00    +0.000 A 
ATOM     23  C   UNL     1      -3.619  13.719  23.448  0.00  0.00    +0.000 A 
ATOM     24  C   UNL     1      -3.316  12.374  23.664  0.00  0.00    +0.000 A 
ATOM     25  C   UNL     1      -2.194  11.792  23.056  0.00  0.00    +0.000 A 
BRANCH  23  26
ATOM     26  O   UNL     1      -4.736  14.212  24.086  0.00  0.00    +0.000 OA
BRANCH  26  27
ATOM     27  C   UNL     1      -5.904  13.413  23.875  0.00  0.00    +0.000 C 
BRANCH  27  28
ATOM     28  C   UNL     1      -6.474  13.576  22.473  0.00  0.00    +0.000 C 
BRANCH  28  29
ATOM     29  C   UNL     1      -7.095  12.248  22.003  0.00  0.00    +0.000 C 
BRANCH  29  30
ATOM     30  N   UNL     1      -6.433  11.676  20.815  0.00  0.00    +0.000 NA
ATOM     31  C   UNL     1      -7.400  11.278  19.779  0.00  0.00    +0.000 C 
ATOM     32  C   UNL     1      -6.699  10.594  18.605  0.00  0.00    +0.000 C 
ATOM     33  C   UNL     1      -5.616  11.488  18.009  0.00  0.00    +0.000 C 
ATOM     34  C   UNL     1      -4.670  11.969  19.097  0.00  0.00    +0.000 C 
ATOM     35  C   UNL     1      -5.430  12.602  20.268  0.00  0.00    +0.000 C 
ENDBRANCH  29  30
ENDBRANCH  28  29
ENDBRANCH  27  28
ENDBRANCH  26  27
ENDBRANCH  23  26
ENDBRANCH  19  20
ENDBRANCH   4  19
TORSDOF 9
ENDMDL
MODEL 2
REMARK VINA RESULT:      -7.6      5.478     11.946
REMARK  Name = 
REMARK  9 active torsions:
REMARK  status: ('A' for Active; 'I' for Inactive)
REMARK    1  A    between atoms: N_3  and  C_4
REMARK    2  A    between atoms: N_11  and  C_12
REMARK    3  A    between atoms: N_15  and  C_16
REMARK    4  A    between atoms: C_16  and  C_17
REMARK    5  A    between atoms: C_20  and  O_21
REMARK    6  A    between atoms: O_21  and  C_22
REMARK    7  A    between atoms: C_22  and  C_23
REMARK    8  A    between atoms: C_23  and  C_24
REMARK    9  A    between atoms: C_24  and  N_25
REMARK                            x       y       z     vdW  Elec       q    Type
REMARK                         _______ _______ _______ _____ _____    ______ ____
ROOT
ATOM      1  C   UNL     1       2.407   5.536  18.575  0.00  0.00    +0.000 C 
ATOM      2  C   UNL     1       2.117   4.370  17.640  0.00  0.00    +0.000 C 
ATOM      3  C   UNL     1       2.937   3.249  18.251  0.00  0.00    +0.000 C 
ATOM      4  N   UNL     1       4.191   3.881  18.690  0.00  0.00    +0.000 NA
ATOM      5  C   UNL     1       3.733   5.163  19.281  0.00  0.00    +0.000 C 
ENDROOT
BRANCH   1   9
ATOM      6  O   UNL     1       1.727   7.862  19.786  0.00  0.00    +0.000 OA
ATOM      7  C   UNL     1       2.036   7.932  18.603  0.00  0.00    +0.000 C 
ATOM      8  N   UNL     1       1.995   9.059  17.813  0.00  0.00    +0.000 N 
ATOM      9  N   UNL     1       2.425   6.818  17.889  0.00  0.00    +0.000 N 
ATOM     10  H   UNL     1       1.928   8.877  16.822  0.00  0.00    +0.000 HD
ATOM     11  H   UNL     1       3.130   6.973  17.182  0.00  0.00    +0.000 HD
BRANCH   8  12
ATOM     12  C   UNL     1       1.551  10.325  18.263  0.00  0.00    +0.000 A 
ATOM     13  C   UNL     1       0.271  10.536  18.789  0.00  0.00    +0.000 A 
ATOM     14  C   UNL     1      -0.171  11.822  19.101  0.00  0.00    +0.000 A 
ATOM     15  C   UNL     1       0.673  12.911  18.908  0.00  0.00    +0.000 A 
ATOM     16  C   UNL     1       1.969  12.700  18.442  0.00  0.00    +0.000 A 
ATOM     17 CL   UNL     1       3.017  14.047  18.206  0.00  0.00    +0.000 Cl
ATOM     18  C   UNL     1       2.420  11.413  18.137  0.00  0.00    +0.000 A 
ENDBRANCH   8  12
ENDBRANCH   1   9
BRANCH   4  19
ATOM     19  C   UNL     1       5.152   4.169  17.611  0.00  0.00    +0.000 C 
BRANCH  19  20
ATOM     20  C   UNL     1       6.119   5.295  17.893  0.00  0.00    +0.000 A 
ATOM     21  C   UNL     1       7.123   5.104  18.847  0.00  0.00    +0.000 A 
ATOM     22  C   UNL     1       8.034   6.113  19.129  0.00  0.00    +0.000 A 
ATOM     23  C   UNL     1       7.988   7.332  18.445  0.00  0.00    +0.000 A 
ATOM     24  C   UNL     1       6.993   7.529  17.486  0.00  0.00    +0.000 A 
ATOM     25  C   UNL     1       6.055   6.521  17.219  0.00  0.00    +0.000 A 
BRANCH  23  26
ATOM     26  O   UNL     1       8.867   8.373  18.648  0.00  0.00    +0.000 OA
BRANCH  26  27
ATOM     27  C   UNL     1       8.422   9.606  18.074  0.00  0.00    +0.000 C 
BRANCH  27  28
ATOM     28  C   UNL     1       9.477  10.700  18.156  0.00  0.00    +0.000 C 
BRANCH  28  29
ATOM     29  C   UNL     1       8.798  12.081  18.171  0.00  0.00    +0.000 C 
BRANCH  29  30
ATOM     30  N   UNL     1       9.596  13.138  17.521  0.00  0.00    +0.000 NA
ATOM     31  C   UNL     1       9.571  14.399  18.280  0.00  0.00    +0.000 C 
ATOM     32  C   UNL     1      10.318  15.505  17.536  0.00  0.00    +0.000 C 
ATOM     33  C   UNL     1      11.755  15.095  17.230  0.00  0.00    +0.000 C 
ATOM     34  C   UNL     1      11.783  13.750  16.524  0.00  0.00    +0.000 C 
ATOM     35  C   UNL     1      10.979  12.693  17.291  0.00  0.00    +0.000 C 
ENDBRANCH  29  30
ENDBRANCH  28  29
ENDBRANCH  27  28
ENDBRANCH  26  27
ENDBRANCH  23  26
ENDBRANCH  19  20
ENDBRANCH   4  19
TORSDOF 9
ENDMDL
MODEL 3
REMARK VINA RESULT:      -7.6      1.151      1.638
REMARK  Name = 
REMARK  9 active torsions:
REMARK  status: ('A' for Active; 'I' for Inactive)
REMARK    1  A    between atoms: N_3  and  C_4
REMARK    2  A    between atoms: N_11  and  C_12
REMARK    3  A    between atoms: N_15  and  C_16
REMARK    4  A    between atoms: C_16  and  C_17
REMARK    5  A    between atoms: C_20  and  O_21
REMARK    6  A    between atoms: O_21  and  C_22
REMARK    7  A    between atoms: C_22  and  C_23
REMARK    8  A    between atoms: C_23  and  C_24
REMARK    9  A    between atoms: C_24  and  N_25
REMARK                            x       y       z     vdW  Elec       q    Type
REMARK                         _______ _______ _______ _____ _____    ______ ____
ROOT
ATOM      1  C   UNL     1       0.722  10.294  18.588  0.00  0.00    +0.000 C 
ATOM      2  C   UNL     1      -0.746  10.399  18.975  0.00  0.00    +0.000 C 
ATOM      3  C   UNL     1      -0.935  11.896  19.139  0.00  0.00    +0.000 C 
ATOM      4  N   UNL     1       0.298  12.375  19.784  0.00  0.00    +0.000 NA
ATOM      5  C   UNL     1       1.362  11.615  19.080  0.00  0.00    +0.000 C 
ENDROOT
BRANCH   1   9
ATOM      6  O   UNL     1       2.327   8.723  17.073  0.00  0.00    +0.000 OA
ATOM      7  C   UNL     1       2.133   8.356  18.225  0.00  0.00    +0.000 C 
ATOM      8  N   UNL     1       2.584   7.188  18.797  0.00  0.00    +0.000 N 
ATOM      9  N   UNL     1       1.354   9.088  19.098  0.00  0.00    +0.000 N 
ATOM     10  H   UNL     1       2.052   6.876  19.598  0.00  0.00    +0.000 HD
ATOM     11  H   UNL     1       1.644   9.071  20.065  0.00  0.00    +0.000 HD
BRANCH   8  12
ATOM     12  C   UNL     1       3.333   6.206  18.106  0.00  0.00    +0.000 A 
ATOM     13  C   UNL     1       2.833   4.929  17.827  0.00  0.00    +0.000 A 
ATOM     14  C   UNL     1       3.649   3.949  17.259  0.00  0.00    +0.000 A 
ATOM     15  C   UNL     1       4.972   4.245  16.945  0.00  0.00    +0.000 A 
ATOM     16  C   UNL     1       5.457   5.533  17.165  0.00  0.00    +0.000 A 
ATOM     17 CL   UNL     1       7.093   5.902  16.774  0.00  0.00    +0.000 Cl
ATOM     18  C   UNL     1       4.642   6.520  17.725  0.00  0.00    +0.000 A 
ENDBRANCH   8  12
ENDBRANCH   1   9
BRANCH   4  19
ATOM     19  C   UNL     1       0.391  12.098  21.228  0.00  0.00    +0.000 C 
BRANCH  19  20
ATOM     20  C   UNL     1      -0.811  12.516  22.042  0.00  0.00    +0.000 A 
ATOM     21  C   UNL     1      -1.564  11.535  22.693  0.00  0.00    +0.000 A 
ATOM     22  C   UNL     1      -2.671  11.881  23.456  0.00  0.00    +0.000 A 
ATOM     23  C   UNL     1      -3.042  13.220  23.615  0.00  0.00    +0.000 A 
ATOM     24  C   UNL     1      -2.292  14.207  22.974  0.00  0.00    +0.000 A 
ATOM     25  C   UNL     1      -1.189  13.858  22.181  0.00  0.00    +0.000 A 
BRANCH  23  26
ATOM     26  O   UNL     1      -4.110  13.649  24.372  0.00  0.00    +0.000 OA
BRANCH  26  27
ATOM     27  C   UNL     1      -5.324  12.950  24.079  0.00  0.00    +0.000 C 
BRANCH  27  28
ATOM     28  C   UNL     1      -6.012  13.479  22.829  0.00  0.00    +0.000 C 
BRANCH  28  29
ATOM     29  C   UNL     1      -6.933  12.395  22.240  0.00  0.00    +0.000 C 
BRANCH  29  30
ATOM     30  N   UNL     1      -6.360  11.707  21.067  0.00  0.00    +0.000 NA
ATOM     31  C   UNL     1      -7.398  11.107  20.214  0.00  0.00    +0.000 C 
ATOM     32  C   UNL     1      -6.776  10.314  19.064  0.00  0.00    +0.000 C 
ATOM     33  C   UNL     1      -5.840  11.185  18.233  0.00  0.00    +0.000 C 
ATOM     34  C   UNL     1      -4.823  11.873  19.128  0.00  0.00    +0.000 C 
ATOM     35  C   UNL     1      -5.500  12.612  20.288  0.00  0.00    +0.000 C 
ENDBRANCH  29  30
ENDBRANCH  28  29
ENDBRANCH  27  28
ENDBRANCH  26  27
ENDBRANCH  23  26
ENDBRANCH  19  20
ENDBRANCH   4  19
TORSDOF 9
ENDMDL
MODEL 4
REMARK VINA RESULT:      -7.6      5.304     12.015
REMARK  Name = 
REMARK  9 active torsions:
REMARK  status: ('A' for Active; 'I' for Inactive)
REMARK    1  A    between atoms: N_3  and  C_4
REMARK    2  A    between atoms: N_11  and  C_12
REMARK    3  A    between atoms: N_15  and  C_16
REMARK    4  A    between atoms: C_16  and  C_17
REMARK    5  A    between atoms: C_20  and  O_21
REMARK    6  A    between atoms: O_21  and  C_22
REMARK    7  A    between atoms: C_22  and  C_23
REMARK    8  A    between atoms: C_23  and  C_24
REMARK    9  A    between atoms: C_24  and  N_25
REMARK                            x       y       z     vdW  Elec       q    Type
REMARK                         _______ _______ _______ _____ _____    ______ ____
ROOT
ATOM      1  C   UNL     1       3.132   4.180  19.688  0.00  0.00    +0.000 C 
ATOM      2  C   UNL     1       2.119   3.876  18.594  0.00  0.00    +0.000 C 
ATOM      3  C   UNL     1       2.712   2.647  17.930  0.00  0.00    +0.000 C 
ATOM      4  N   UNL     1       4.165   2.886  17.900  0.00  0.00    +0.000 NA
ATOM      5  C   UNL     1       4.435   3.479  19.234  0.00  0.00    +0.000 C 
ENDROOT
BRANCH   1   9
ATOM      6  O   UNL     1       1.012   5.798  20.167  0.00  0.00    +0.000 OA
ATOM      7  C   UNL     1       2.115   6.331  20.158  0.00  0.00    +0.000 C 
ATOM      8  N   UNL     1       2.373   7.677  20.287  0.00  0.00    +0.000 N 
ATOM      9  N   UNL     1       3.269   5.604  19.950  0.00  0.00    +0.000 N 
ATOM     10  H   UNL     1       3.258   7.976  19.904  0.00  0.00    +0.000 HD
ATOM     11  H   UNL     1       4.085   5.922  20.452  0.00  0.00    +0.000 HD
BRANCH   8  12
ATOM     12  C   UNL     1       1.370   8.665  20.426  0.00  0.00    +0.000 A 
ATOM     13  C   UNL     1       0.975   9.497  19.372  0.00  0.00    +0.000 A 
ATOM     14  C   UNL     1       0.076  10.543  19.584  0.00  0.00    +0.000 A 
ATOM     15  C   UNL     1      -0.455  10.754  20.853  0.00  0.00    +0.000 A 
ATOM     16  C   UNL     1      -0.112   9.892  21.892  0.00  0.00    +0.000 A 
ATOM     17 CL   UNL     1      -0.771  10.149  23.462  0.00  0.00    +0.000 Cl
ATOM     18  C   UNL     1       0.781   8.837  21.683  0.00  0.00    +0.000 A 
ENDBRANCH   8  12
ENDBRANCH   1   9
BRANCH   4  19
ATOM     19  C   UNL     1       4.618   3.826  16.859  0.00  0.00    +0.000 C 
BRANCH  19  20
ATOM     20  C   UNL     1       5.629   4.852  17.314  0.00  0.00    +0.000 A 
ATOM     21  C   UNL     1       6.778   4.421  17.982  0.00  0.00    +0.000 A 
ATOM     22  C   UNL     1       7.734   5.333  18.409  0.00  0.00    +0.000 A 
ATOM     23  C   UNL     1       7.584   6.700  18.155  0.00  0.00    +0.000 A 
ATOM     24  C   UNL     1       6.442   7.139  17.482  0.00  0.00    +0.000 A 
ATOM     25  C   UNL     1       5.463   6.222  17.074  0.00  0.00    +0.000 A 
BRANCH  23  26
ATOM     26  O   UNL     1       8.495   7.666  18.523  0.00  0.00    +0.000 OA
BRANCH  26  27
ATOM     27  C   UNL     1       8.154   8.972  18.047  0.00  0.00    +0.000 C 
BRANCH  27  28
ATOM     28  C   UNL     1       8.973  10.066  18.717  0.00  0.00    +0.000 C 
BRANCH  28  29
ATOM     29  C   UNL     1       8.820  11.385  17.937  0.00  0.00    +0.000 C 
BRANCH  29  30
ATOM     30  N   UNL     1       9.841  12.394  18.279  0.00  0.00    +0.000 NA
ATOM     31  C   UNL     1       9.987  12.566  19.733  0.00  0.00    +0.000 C 
ATOM     32  C   UNL     1      10.973  13.688  20.060  0.00  0.00    +0.000 C 
ATOM     33  C   UNL     1      12.331  13.437  19.413  0.00  0.00    +0.000 C 
ATOM     34  C   UNL     1      12.168  13.173  17.925  0.00  0.00    +0.000 C 
ATOM     35  C   UNL     1      11.134  12.073  17.657  0.00  0.00    +0.000 C 
ENDBRANCH  29  30
ENDBRANCH  28  29
ENDBRANCH  27  28
ENDBRANCH  26  27
ENDBRANCH  23  26
ENDBRANCH  19  20
ENDBRANCH   4  19
TORSDOF 9
ENDMDL
MODEL 5
REMARK VINA RESULT:      -7.4      5.642     11.700
REMARK  Name = 
REMARK  9 active torsions:
REMARK  status: ('A' for Active; 'I' for Inactive)
REMARK    1  A    between atoms: N_3  and  C_4
REMARK    2  A    between atoms: N_11  and  C_12
REMARK    3  A    between atoms: N_15  and  C_16
REMARK    4  A    between atoms: C_16  and  C_17
REMARK    5  A    between atoms: C_20  and  O_21
REMARK    6  A    between atoms: O_21  and  C_22
REMARK    7  A    between atoms: C_22  and  C_23
REMARK    8  A    between atoms: C_23  and  C_24
REMARK    9  A    between atoms: C_24  and  N_25
REMARK                            x       y       z     vdW  Elec       q    Type
REMARK                         _______ _______ _______ _____ _____    ______ ____
ROOT
ATOM      1  C   UNL     1       2.823   3.266  20.311  0.00  0.00    +0.000 C 
ATOM      2  C   UNL     1       1.690   2.897  19.364  0.00  0.00    +0.000 C 
ATOM      3  C   UNL     1       2.374   1.962  18.384  0.00  0.00    +0.000 C 
ATOM      4  N   UNL     1       3.707   2.545  18.157  0.00  0.00    +0.000 NA
ATOM      5  C   UNL     1       4.120   2.976  19.517  0.00  0.00    +0.000 C 
ENDROOT
BRANCH   1   9
ATOM      6  O   UNL     1       1.710   5.283  18.885  0.00  0.00    +0.000 OA
ATOM      7  C   UNL     1       2.148   5.573  19.992  0.00  0.00    +0.000 C 
ATOM      8  N   UNL     1       2.200   6.832  20.546  0.00  0.00    +0.000 N 
ATOM      9  N   UNL     1       2.714   4.624  20.818  0.00  0.00    +0.000 N 
ATOM     10  H   UNL     1       2.894   6.946  21.272  0.00  0.00    +0.000 HD
ATOM     11  H   UNL     1       2.559   4.755  21.808  0.00  0.00    +0.000 HD
BRANCH   8  12
ATOM     12  C   UNL     1       1.769   8.006  19.884  0.00  0.00    +0.000 A 
ATOM     13  C   UNL     1       2.157   8.326  18.578  0.00  0.00    +0.000 A 
ATOM     14  C   UNL     1       1.815   9.554  18.010  0.00  0.00    +0.000 A 
ATOM     15  C   UNL     1       1.061  10.468  18.739  0.00  0.00    +0.000 A 
ATOM     16  C   UNL     1       0.620  10.130  20.017  0.00  0.00    +0.000 A 
ATOM     17 CL   UNL     1      -0.317  11.259  20.918  0.00  0.00    +0.000 Cl
ATOM     18  C   UNL     1       0.952   8.898  20.587  0.00  0.00    +0.000 A 
ENDBRANCH   8  12
ENDBRANCH   1   9
BRANCH   4  19
ATOM     19  C   UNL     1       3.729   3.713  17.259  0.00  0.00    +0.000 C 
BRANCH  19  20
ATOM     20  C   UNL     1       4.895   4.653  17.454  0.00  0.00    +0.000 A 
ATOM     21  C   UNL     1       6.147   4.122  17.775  0.00  0.00    +0.000 A 
ATOM     22  C   UNL     1       7.244   4.954  17.955  0.00  0.00    +0.000 A 
ATOM     23  C   UNL     1       7.130   6.338  17.789  0.00  0.00    +0.000 A 
ATOM     24  C   UNL     1       5.884   6.876  17.461  0.00  0.00    +0.000 A 
ATOM     25  C   UNL     1       4.769   6.040  17.307  0.00  0.00    +0.000 A 
BRANCH  23  26
ATOM     26  O   UNL     1       8.172   7.228  17.926  0.00  0.00    +0.000 OA
BRANCH  26  27
ATOM     27  C   UNL     1       7.777   8.591  17.740  0.00  0.00    +0.000 C 
BRANCH  27  28
ATOM     28  C   UNL     1       8.799   9.573  18.294  0.00  0.00    +0.000 C 
BRANCH  28  29
ATOM     29  C   UNL     1       8.341  11.016  18.016  0.00  0.00    +0.000 C 
BRANCH  29  30
ATOM     30  N   UNL     1       9.176  12.038  18.677  0.00  0.00    +0.000 NA
ATOM     31  C   UNL     1       9.841  11.518  19.882  0.00  0.00    +0.000 C 
ATOM     32  C   UNL     1      10.615  12.620  20.604  0.00  0.00    +0.000 C 
ATOM     33  C   UNL     1      11.631  13.281  19.678  0.00  0.00    +0.000 C 
ATOM     34  C   UNL     1      10.958  13.740  18.395  0.00  0.00    +0.000 C 
ATOM     35  C   UNL     1      10.158  12.607  17.741  0.00  0.00    +0.000 C 
ENDBRANCH  29  30
ENDBRANCH  28  29
ENDBRANCH  27  28
ENDBRANCH  26  27
ENDBRANCH  23  26
ENDBRANCH  19  20
ENDBRANCH   4  19
TORSDOF 9
ENDMDL
MODEL 6
REMARK VINA RESULT:      -7.3      5.552     12.075
REMARK  Name = 
REMARK  9 active torsions:
REMARK  status: ('A' for Active; 'I' for Inactive)
REMARK    1  A    between atoms: N_3  and  C_4
REMARK    2  A    between atoms: N_11  and  C_12
REMARK    3  A    between atoms: N_15  and  C_16
REMARK    4  A    between atoms: C_16  and  C_17
REMARK    5  A    between atoms: C_20  and  O_21
REMARK    6  A    between atoms: O_21  and  C_22
REMARK    7  A    between atoms: C_22  and  C_23
REMARK    8  A    between atoms: C_23  and  C_24
REMARK    9  A    between atoms: C_24  and  N_25
REMARK                            x       y       z     vdW  Elec       q    Type
REMARK                         _______ _______ _______ _____ _____    ______ ____
ROOT
ATOM      1  C   UNL     1       2.719   5.306  19.143  0.00  0.00    +0.000 C 
ATOM      2  C   UNL     1       2.214   4.474  17.973  0.00  0.00    +0.000 C 
ATOM      3  C   UNL     1       3.147   3.277  17.994  0.00  0.00    +0.000 C 
ATOM      4  N   UNL     1       4.473   3.825  18.324  0.00  0.00    +0.000 NA
ATOM      5  C   UNL     1       4.171   4.824  19.381  0.00  0.00    +0.000 C 
ENDROOT
BRANCH   1   9
ATOM      6  O   UNL     1       1.246   6.914  20.750  0.00  0.00    +0.000 OA
ATOM      7  C   UNL     1       1.789   7.449  19.791  0.00  0.00    +0.000 C 
ATOM      8  N   UNL     1       1.659   8.765  19.408  0.00  0.00    +0.000 N 
ATOM      9  N   UNL     1       2.584   6.735  18.918  0.00  0.00    +0.000 N 
ATOM     10  H   UNL     1       1.863   8.943  18.434  0.00  0.00    +0.000 HD
ATOM     11  H   UNL     1       3.372   7.236  18.533  0.00  0.00    +0.000 HD
BRANCH   8  12
ATOM     12  C   UNL     1       0.835   9.704  20.071  0.00  0.00    +0.000 A 
ATOM     13  C   UNL     1       0.891   9.920  21.453  0.00  0.00    +0.000 A 
ATOM     14  C   UNL     1      -0.027  10.760  22.085  0.00  0.00    +0.000 A 
ATOM     15  C   UNL     1      -1.001  11.411  21.334  0.00  0.00    +0.000 A 
ATOM     16  C   UNL     1      -1.024  11.248  19.950  0.00  0.00    +0.000 A 
ATOM     17 CL   UNL     1      -2.226  12.056  19.020  0.00  0.00    +0.000 Cl
ATOM     18  C   UNL     1      -0.101  10.415  19.312  0.00  0.00    +0.000 A 
ENDBRANCH   8  12
ENDBRANCH   1   9
BRANCH   4  19
ATOM     19  C   UNL     1       5.158   4.504  17.209  0.00  0.00    +0.000 C 
BRANCH  19  20
ATOM     20  C   UNL     1       6.138   5.580  17.615  0.00  0.00    +0.000 A 
ATOM     21  C   UNL     1       7.134   5.274  18.546  0.00  0.00    +0.000 A 
ATOM     22  C   UNL     1       8.056   6.235  18.939  0.00  0.00    +0.000 A 
ATOM     23  C   UNL     1       8.029   7.521  18.389  0.00  0.00    +0.000 A 
ATOM     24  C   UNL     1       7.042   7.833  17.453  0.00  0.00    +0.000 A 
ATOM     25  C   UNL     1       6.092   6.872  17.076  0.00  0.00    +0.000 A 
BRANCH  23  26
ATOM     26  O   UNL     1       8.920   8.523  18.706  0.00  0.00    +0.000 OA
BRANCH  26  27
ATOM     27  C   UNL     1       8.461   9.825  18.330  0.00  0.00    +0.000 C 
BRANCH  27  28
ATOM     28  C   UNL     1       9.599  10.744  17.910  0.00  0.00    +0.000 C 
BRANCH  28  29
ATOM     29  C   UNL     1      10.037  11.612  19.104  0.00  0.00    +0.000 C 
BRANCH  29  30
ATOM     30  N   UNL     1      10.668  12.885  18.707  0.00  0.00    +0.000 NA
ATOM     31  C   UNL     1      11.609  12.714  17.589  0.00  0.00    +0.000 C 
ATOM     32  C   UNL     1      12.325  14.025  17.265  0.00  0.00    +0.000 C 
ATOM     33  C   UNL     1      11.330  15.140  16.960  0.00  0.00    +0.000 C 
ATOM     34  C   UNL     1      10.306  15.256  18.077  0.00  0.00    +0.000 C 
ATOM     35  C   UNL     1       9.655  13.904  18.389  0.00  0.00    +0.000 C 
ENDBRANCH  29  30
ENDBRANCH  28  29
ENDBRANCH  27  28
ENDBRANCH  26  27
ENDBRANCH  23  26
ENDBRANCH  19  20
ENDBRANCH   4  19
TORSDOF 9
ENDMDL
MODEL 7
REMARK VINA RESULT:      -7.3      4.845      7.977
REMARK  Name = 
REMARK  9 active torsions:
REMARK  status: ('A' for Active; 'I' for Inactive)
REMARK    1  A    between atoms: N_3  and  C_4
REMARK    2  A    between atoms: N_11  and  C_12
REMARK    3  A    between atoms: N_15  and  C_16
REMARK    4  A    between atoms: C_16  and  C_17
REMARK    5  A    between atoms: C_20  and  O_21
REMARK    6  A    between atoms: O_21  and  C_22
REMARK    7  A    between atoms: C_22  and  C_23
REMARK    8  A    between atoms: C_23  and  C_24
REMARK    9  A    between atoms: C_24  and  N_25
REMARK                            x       y       z     vdW  Elec       q    Type
REMARK                         _______ _______ _______ _____ _____    ______ ____
ROOT
ATOM      1  C   UNL     1       7.249   6.283  17.248  0.00  0.00    +0.000 C 
ATOM      2  C   UNL     1       7.164   4.785  17.505  0.00  0.00    +0.000 C 
ATOM      3  C   UNL     1       5.851   4.414  16.840  0.00  0.00    +0.000 C 
ATOM      4  N   UNL     1       4.935   5.527  17.141  0.00  0.00    +0.000 NA
ATOM      5  C   UNL     1       5.794   6.725  16.963  0.00  0.00    +0.000 C 
ENDROOT
BRANCH   1   9
ATOM      6  O   UNL     1       7.837   8.925  17.109  0.00  0.00    +0.000 OA
ATOM      7  C   UNL     1       8.170   8.344  18.135  0.00  0.00    +0.000 C 
ATOM      8  N   UNL     1       8.881   8.881  19.184  0.00  0.00    +0.000 N 
ATOM      9  N   UNL     1       7.901   7.004  18.329  0.00  0.00    +0.000 N 
ATOM     10  H   UNL     1       9.370   8.204  19.753  0.00  0.00    +0.000 HD
ATOM     11  H   UNL     1       7.696   6.730  19.279  0.00  0.00    +0.000 HD
BRANCH   8  12
ATOM     12  C   UNL     1       9.364  10.210  19.214  0.00  0.00    +0.000 A 
ATOM     13  C   UNL     1      10.017  10.804  18.127  0.00  0.00    +0.000 A 
ATOM     14  C   UNL     1      10.591  12.071  18.242  0.00  0.00    +0.000 A 
ATOM     15  C   UNL     1      10.500  12.766  19.444  0.00  0.00    +0.000 A 
ATOM     16  C   UNL     1       9.799  12.206  20.510  0.00  0.00    +0.000 A 
ATOM     17 CL   UNL     1       9.682  13.067  21.996  0.00  0.00    +0.000 Cl
ATOM     18  C   UNL     1       9.214  10.941  20.397  0.00  0.00    +0.000 A 
ENDBRANCH   8  12
ENDBRANCH   1   9
BRANCH   4  19
ATOM     19  C   UNL     1       4.391   5.529  18.511  0.00  0.00    +0.000 C 
BRANCH  19  20
ATOM     20  C   UNL     1       3.367   6.603  18.795  0.00  0.00    +0.000 A 
ATOM     21  C   UNL     1       3.078   7.543  17.802  0.00  0.00    +0.000 A 
ATOM     22  C   UNL     1       2.138   8.541  18.023  0.00  0.00    +0.000 A 
ATOM     23  C   UNL     1       1.437   8.611  19.231  0.00  0.00    +0.000 A 
ATOM     24  C   UNL     1       1.715   7.672  20.226  0.00  0.00    +0.000 A 
ATOM     25  C   UNL     1       2.684   6.680  20.015  0.00  0.00    +0.000 A 
BRANCH  23  26
ATOM     26  O   UNL     1       0.474   9.553  19.521  0.00  0.00    +0.000 OA
BRANCH  26  27
ATOM     27  C   UNL     1       0.997  10.882  19.614  0.00  0.00    +0.000 C 
BRANCH  27  28
ATOM     28  C   UNL     1       0.173  11.886  18.822  0.00  0.00    +0.000 C 
BRANCH  28  29
ATOM     29  C   UNL     1      -1.321  11.714  19.152  0.00  0.00    +0.000 C 
BRANCH  29  30
ATOM     30  N   UNL     1      -2.187  11.660  17.958  0.00  0.00    +0.000 NA
ATOM     31  C   UNL     1      -1.849  10.530  17.077  0.00  0.00    +0.000 C 
ATOM     32  C   UNL     1      -2.689  10.557  15.800  0.00  0.00    +0.000 C 
ATOM     33  C   UNL     1      -4.180  10.559  16.118  0.00  0.00    +0.000 C 
ATOM     34  C   UNL     1      -4.512  11.673  17.096  0.00  0.00    +0.000 C 
ATOM     35  C   UNL     1      -3.608  11.624  18.334  0.00  0.00    +0.000 C 
ENDBRANCH  29  30
ENDBRANCH  28  29
ENDBRANCH  27  28
ENDBRANCH  26  27
ENDBRANCH  23  26
ENDBRANCH  19  20
ENDBRANCH   4  19
TORSDOF 9
ENDMDL
MODEL 8
REMARK VINA RESULT:      -7.2      4.972     11.764
REMARK  Name = 
REMARK  9 active torsions:
REMARK  status: ('A' for Active; 'I' for Inactive)
REMARK    1  A    between atoms: N_3  and  C_4
REMARK    2  A    between atoms: N_11  and  C_12
REMARK    3  A    between atoms: N_15  and  C_16
REMARK    4  A    between atoms: C_16  and  C_17
REMARK    5  A    between atoms: C_20  and  O_21
REMARK    6  A    between atoms: O_21  and  C_22
REMARK    7  A    between atoms: C_22  and  C_23
REMARK    8  A    between atoms: C_23  and  C_24
REMARK    9  A    between atoms: C_24  and  N_25
REMARK                            x       y       z     vdW  Elec       q    Type
REMARK                         _______ _______ _______ _____ _____    ______ ____
ROOT
ATOM      1  C   UNL     1       2.168   5.701  20.383  0.00  0.00    +0.000 C 
ATOM      2  C   UNL     1       1.130   4.720  19.858  0.00  0.00    +0.000 C 
ATOM      3  C   UNL     1       1.812   3.380  20.060  0.00  0.00    +0.000 C 
ATOM      4  N   UNL     1       3.225   3.609  19.716  0.00  0.00    +0.000 NA
ATOM      5  C   UNL     1       3.510   4.931  20.329  0.00  0.00    +0.000 C 
ENDROOT
BRANCH   1   9
ATOM      6  O   UNL     1       0.848   7.893  21.273  0.00  0.00    +0.000 OA
ATOM      7  C   UNL     1       1.437   8.006  20.205  0.00  0.00    +0.000 C 
ATOM      8  N   UNL     1       1.428   9.107  19.379  0.00  0.00    +0.000 N 
ATOM      9  N   UNL     1       2.164   6.965  19.665  0.00  0.00    +0.000 N 
ATOM     10  H   UNL     1       1.648   8.912  18.412  0.00  0.00    +0.000 HD
ATOM     11  H   UNL     1       2.995   7.228  19.154  0.00  0.00    +0.000 HD
BRANCH   8  12
ATOM     12  C   UNL     1       0.693  10.287  19.642  0.00  0.00    +0.000 A 
ATOM     13  C   UNL     1      -0.696  10.291  19.819  0.00  0.00    +0.000 A 
ATOM     14  C   UNL     1      -1.397  11.491  19.948  0.00  0.00    +0.000 A 
ATOM     15  C   UNL     1      -0.711  12.701  19.920  0.00  0.00    +0.000 A 
ATOM     16  C   UNL     1       0.677  12.700  19.805  0.00  0.00    +0.000 A 
ATOM     17 CL   UNL     1       1.528  14.197  19.775  0.00  0.00    +0.000 Cl
ATOM     18  C   UNL     1       1.385  11.501  19.685  0.00  0.00    +0.000 A 
ENDBRANCH   8  12
ENDBRANCH   1   9
BRANCH   4  19
ATOM     19  C   UNL     1       3.508   3.681  18.272  0.00  0.00    +0.000 C 
BRANCH  19  20
ATOM     20  C   UNL     1       4.612   4.634  17.879  0.00  0.00    +0.000 A 
ATOM     21  C   UNL     1       4.302   5.742  17.085  0.00  0.00    +0.000 A 
ATOM     22  C   UNL     1       5.288   6.644  16.709  0.00  0.00    +0.000 A 
ATOM     23  C   UNL     1       6.608   6.483  17.141  0.00  0.00    +0.000 A 
ATOM     24  C   UNL     1       6.927   5.384  17.940  0.00  0.00    +0.000 A 
ATOM     25  C   UNL     1       5.937   4.456  18.297  0.00  0.00    +0.000 A 
BRANCH  23  26
ATOM     26  O   UNL     1       7.640   7.343  16.833  0.00  0.00    +0.000 OA
BRANCH  26  27
ATOM     27  C   UNL     1       8.134   8.059  17.969  0.00  0.00    +0.000 C 
BRANCH  27  28
ATOM     28  C   UNL     1       8.050   9.568  17.786  0.00  0.00    +0.000 C 
BRANCH  28  29
ATOM     29  C   UNL     1       9.149  10.257  18.616  0.00  0.00    +0.000 C 
BRANCH  29  30
ATOM     30  N   UNL     1       9.628  11.522  18.027  0.00  0.00    +0.000 NA
ATOM     31  C   UNL     1       9.014  12.699  18.663  0.00  0.00    +0.000 C 
ATOM     32  C   UNL     1       9.446  13.990  17.968  0.00  0.00    +0.000 C 
ATOM     33  C   UNL     1      10.965  14.126  17.947  0.00  0.00    +0.000 C 
ATOM     34  C   UNL     1      11.601  12.873  17.370  0.00  0.00    +0.000 C 
ATOM     35  C   UNL     1      11.095  11.608  18.073  0.00  0.00    +0.000 C 
ENDBRANCH  29  30
ENDBRANCH  28  29
ENDBRANCH  27  28
ENDBRANCH  26  27
ENDBRANCH  23  26
ENDBRANCH  19  20
ENDBRANCH   4  19
TORSDOF 9
ENDMDL
MODEL 9
REMARK VINA RESULT:      -7.2      5.097     11.761
REMARK  Name = 
REMARK  9 active torsions:
REMARK  status: ('A' for Active; 'I' for Inactive)
REMARK    1  A    between atoms: N_3  and  C_4
REMARK    2  A    between atoms: N_11  and  C_12
REMARK    3  A    between atoms: N_15  and  C_16
REMARK    4  A    between atoms: C_16  and  C_17
REMARK    5  A    between atoms: C_20  and  O_21
REMARK    6  A    between atoms: O_21  and  C_22
REMARK    7  A    between atoms: C_22  and  C_23
REMARK    8  A    between atoms: C_23  and  C_24
REMARK    9  A    between atoms: C_24  and  N_25
REMARK                            x       y       z     vdW  Elec       q    Type
REMARK                         _______ _______ _______ _____ _____    ______ ____
ROOT
ATOM      1  C   UNL     1       2.079   4.757  18.826  0.00  0.00    +0.000 C 
ATOM      2  C   UNL     1       1.477   3.620  18.012  0.00  0.00    +0.000 C 
ATOM      3  C   UNL     1       2.403   2.461  18.335  0.00  0.00    +0.000 C 
ATOM      4  N   UNL     1       3.754   3.045  18.379  0.00  0.00    +0.000 NA
ATOM      5  C   UNL     1       3.542   4.329  19.093  0.00  0.00    +0.000 C 
ENDROOT
BRANCH   1   9
ATOM      6  O   UNL     1       1.898   7.081  20.208  0.00  0.00    +0.000 OA
ATOM      7  C   UNL     1       1.829   7.164  18.987  0.00  0.00    +0.000 C 
ATOM      8  N   UNL     1       1.591   8.307  18.258  0.00  0.00    +0.000 N 
ATOM      9  N   UNL     1       1.934   6.051  18.178  0.00  0.00    +0.000 N 
ATOM     10  H   UNL     1       1.213   8.148  17.335  0.00  0.00    +0.000 HD
ATOM     11  H   UNL     1       2.392   6.196  17.290  0.00  0.00    +0.000 HD
BRANCH   8  12
ATOM     12  C   UNL     1       1.357   9.578  18.834  0.00  0.00    +0.000 A 
ATOM     13  C   UNL     1       0.419   9.788  19.852  0.00  0.00    +0.000 A 
ATOM     14  C   UNL     1       0.128  11.077  20.302  0.00  0.00    +0.000 A 
ATOM     15  C   UNL     1       0.789  12.170  19.749  0.00  0.00    +0.000 A 
ATOM     16  C   UNL     1       1.767  11.961  18.779  0.00  0.00    +0.000 A 
ATOM     17 CL   UNL     1       2.589  13.312  18.097  0.00  0.00    +0.000 Cl
ATOM     18  C   UNL     1       2.069  10.672  18.332  0.00  0.00    +0.000 A 
ENDBRANCH   8  12
ENDBRANCH   1   9
BRANCH   4  19
ATOM     19  C   UNL     1       4.352   3.324  17.061  0.00  0.00    +0.000 C 
BRANCH  19  20
ATOM     20  C   UNL     1       5.359   4.449  17.037  0.00  0.00    +0.000 A 
ATOM     21  C   UNL     1       4.983   5.684  16.501  0.00  0.00    +0.000 A 
ATOM     22  C   UNL     1       5.879   6.744  16.468  0.00  0.00    +0.000 A 
ATOM     23  C   UNL     1       7.167   6.612  16.997  0.00  0.00    +0.000 A 
ATOM     24  C   UNL     1       7.548   5.385  17.540  0.00  0.00    +0.000 A 
ATOM     25  C   UNL     1       6.654   4.304  17.550  0.00  0.00    +0.000 A 
BRANCH  23  26
ATOM     26  O   UNL     1       8.106   7.620  17.024  0.00  0.00    +0.000 OA
BRANCH  26  27
ATOM     27  C   UNL     1       7.643   8.803  17.682  0.00  0.00    +0.000 C 
BRANCH  27  28
ATOM     28  C   UNL     1       8.687   9.391  18.621  0.00  0.00    +0.000 C 
BRANCH  28  29
ATOM     29  C   UNL     1       9.288  10.666  18.001  0.00  0.00    +0.000 C 
BRANCH  29  30
ATOM     30  N   UNL     1       9.880  11.582  18.995  0.00  0.00    +0.000 NA
ATOM     31  C   UNL     1       9.764  12.992  18.589  0.00  0.00    +0.000 C 
ATOM     32  C   UNL     1      10.474  13.912  19.582  0.00  0.00    +0.000 C 
ATOM     33  C   UNL     1       9.938  13.719  20.997  0.00  0.00    +0.000 C 
ATOM     34  C   UNL     1       9.978  12.249  21.382  0.00  0.00    +0.000 C 
ATOM     35  C   UNL     1       9.294  11.371  20.328  0.00  0.00    +0.000 C 
ENDBRANCH  29  30
ENDBRANCH  28  29
ENDBRANCH  27  28
ENDBRANCH  26  27
ENDBRANCH  23  26
ENDBRANCH  19  20
ENDBRANCH   4  19
TORSDOF 9
ENDMDL
