MODEL 1
REMARK VINA RESULT:      -8.3      0.000      0.000
REMARK  Name = 
REMARK  10 active torsions:
REMARK  status: ('A' for Active; 'I' for Inactive)
REMARK    1  A    between atoms: C_1  and  C_2
REMARK    2  A    between atoms: C_2  and  C_3
REMARK    3  A    between atoms: C_3  and  C_4
REMARK    4  A    between atoms: C_3  and  N_5
REMARK    5  A    between atoms: N_5  and  C_6
REMARK    6  A    between atoms: C_6  and  C_7
REMARK    7  A    between atoms: C_7  and  C_8
REMARK    8  A    between atoms: N_10  and  C_11
REMARK    9  A    between atoms: C_15  and  C_16
REMARK   10  A    between atoms: C_26  and  C_27
REMARK                            x       y       z     vdW  Elec       q    Type
REMARK                         _______ _______ _______ _____ _____    ______ ____
ROOT
ATOM      1  C   UNL     1       4.545   5.701  18.084  0.00  0.00    +0.000 A 
ATOM      2  S   UNL     1       5.151   4.111  18.165  0.00  0.00    +0.000 S 
ATOM      3  C   UNL     1       3.667   3.532  18.701  0.00  0.00    +0.000 A 
ATOM      4  C   UNL     1       2.787   4.546  19.056  0.00  0.00    +0.000 A 
ATOM      5  C   UNL     1       3.326   5.857  18.735  0.00  0.00    +0.000 A 
ATOM      6  C   UNL     1       1.433   4.167  19.599  0.00  0.00    +0.000 C 
ATOM      7  C   UNL     1       1.349   2.641  19.934  0.00  0.00    +0.000 C 
ATOM      8  C   UNL     1       1.921   2.312  21.321  0.00  0.00    +0.000 C 
ATOM      9  N   UNL     1       1.980   1.788  18.897  0.00  0.00    +0.000 NA
ATOM     10  C   UNL     1       3.419   2.063  18.773  0.00  0.00    +0.000 C 
ATOM     11  H   UNL     1       1.556   2.017  17.997  0.00  0.00    +0.000 HD
ENDROOT
BRANCH   5  12
ATOM     12  C   UNL     1       2.615   7.199  18.937  0.00  0.00    +0.000 A 
ATOM     13  N   UNL     1       2.071   7.564  20.089  0.00  0.00    +0.000 NA
ATOM     14  C   UNL     1       1.475   8.827  19.978  0.00  0.00    +0.000 A 
ATOM     15  C   UNL     1       0.799   9.540  20.985  0.00  0.00    +0.000 A 
ATOM     16  N   UNL     1       0.253  10.762  20.740  0.00  0.00    +0.000 NA
ATOM     17  C   UNL     1       0.368  11.299  19.508  0.00  0.00    +0.000 A 
ATOM     18  C   UNL     1       1.014  10.689  18.452  0.00  0.00    +0.000 A 
ATOM     19  C   UNL     1       1.572   9.426  18.724  0.00  0.00    +0.000 A 
ATOM     20  S   UNL     1       2.443   8.377  17.681  0.00  0.00    +0.000 S 
ENDBRANCH   5  12
BRANCH   1  23
ATOM     21  C   UNL     1       6.716   6.713  17.963  0.00  0.00    +0.000 C 
ATOM     22  O   UNL     1       7.217   6.054  18.875  0.00  0.00    +0.000 OA
ATOM     23  N   UNL     1       5.415   6.592  17.495  0.00  0.00    +0.000 N 
ATOM     24  H   UNL     1       5.238   6.900  16.540  0.00  0.00    +0.000 HD
BRANCH  21  25
ATOM     25  C   UNL     1       7.542   7.789  17.292  0.00  0.00    +0.000 C 
BRANCH  25  26
ATOM     26  C   UNL     1       8.218   8.769  18.246  0.00  0.00    +0.000 C 
BRANCH  26  27
ATOM     27  N   UNL     1       8.167  10.181  17.813  0.00  0.00    +0.000 NA
ATOM     28  H   UNL     1       8.408  10.223  16.819  0.00  0.00    +0.000 HD
BRANCH  27  29
ATOM     29  C   UNL     1       9.086  11.068  18.555  0.00  0.00    +0.000 C 
ATOM     30  C   UNL     1       9.478  10.452  19.903  0.00  0.00    +0.000 C 
BRANCH  29  32
ATOM     31  C   UNL     1      11.599  11.630  18.582  0.00  0.00    +0.000 C 
ATOM     32  C   UNL     1      10.360  11.362  17.737  0.00  0.00    +0.000 C 
ENDBRANCH  29  32
ENDBRANCH  27  29
ENDBRANCH  26  27
ENDBRANCH  25  26
ENDBRANCH  21  25
ENDBRANCH   1  23
TORSDOF 7
ENDMDL
MODEL 2
REMARK VINA RESULT:      -8.2      1.031      1.472
REMARK  Name = 
REMARK  10 active torsions:
REMARK  status: ('A' for Active; 'I' for Inactive)
REMARK    1  A    between atoms: C_1  and  C_2
REMARK    2  A    between atoms: C_2  and  C_3
REMARK    3  A    between atoms: C_3  and  C_4
REMARK    4  A    between atoms: C_3  and  N_5
REMARK    5  A    between atoms: N_5  and  C_6
REMARK    6  A    between atoms: C_6  and  C_7
REMARK    7  A    between atoms: C_7  and  C_8
REMARK    8  A    between atoms: N_10  and  C_11
REMARK    9  A    between atoms: C_15  and  C_16
REMARK   10  A    between atoms: C_26  and  C_27
REMARK                            x       y       z     vdW  Elec       q    Type
REMARK                         _______ _______ _______ _____ _____    ______ ____
ROOT
ATOM      1  C   UNL     1       4.481   5.747  17.776  0.00  0.00    +0.000 A 
ATOM      2  S   UNL     1       5.030   4.137  17.679  0.00  0.00    +0.000 S 
ATOM      3  C   UNL     1       3.521   3.555  18.135  0.00  0.00    +0.000 A 
ATOM      4  C   UNL     1       2.673   4.553  18.596  0.00  0.00    +0.000 A 
ATOM      5  C   UNL     1       3.260   5.871  18.431  0.00  0.00    +0.000 A 
ATOM      6  C   UNL     1       1.300   4.164  19.081  0.00  0.00    +0.000 C 
ATOM      7  C   UNL     1       1.159   2.613  19.240  0.00  0.00    +0.000 C 
ATOM      8  C   UNL     1       1.702   2.109  20.585  0.00  0.00    +0.000 C 
ATOM      9  N   UNL     1       1.772   1.862  18.118  0.00  0.00    +0.000 NA
ATOM     10  C   UNL     1       3.221   2.097  18.037  0.00  0.00    +0.000 C 
ATOM     11  H   UNL     1       1.367   2.207  17.246  0.00  0.00    +0.000 HD
ENDROOT
BRANCH   5  12
ATOM     12  C   UNL     1       2.594   7.207  18.778  0.00  0.00    +0.000 A 
ATOM     13  N   UNL     1       2.581   8.246  17.956  0.00  0.00    +0.000 NA
ATOM     14  C   UNL     1       1.922   9.335  18.541  0.00  0.00    +0.000 A 
ATOM     15  C   UNL     1       1.713  10.606  17.976  0.00  0.00    +0.000 A 
ATOM     16  N   UNL     1       1.062  11.585  18.662  0.00  0.00    +0.000 NA
ATOM     17  C   UNL     1       0.604  11.326  19.904  0.00  0.00    +0.000 A 
ATOM     18  C   UNL     1       0.751  10.114  20.549  0.00  0.00    +0.000 A 
ATOM     19  C   UNL     1       1.427   9.114  19.825  0.00  0.00    +0.000 A 
ATOM     20  S   UNL     1       1.792   7.501  20.284  0.00  0.00    +0.000 S 
ENDBRANCH   5  12
BRANCH   1  23
ATOM     21  C   UNL     1       6.654   6.758  17.861  0.00  0.00    +0.000 C 
ATOM     22  O   UNL     1       7.092   6.048  18.767  0.00  0.00    +0.000 OA
ATOM     23  N   UNL     1       5.388   6.668  17.299  0.00  0.00    +0.000 N 
ATOM     24  H   UNL     1       5.277   7.030  16.353  0.00  0.00    +0.000 HD
BRANCH  21  25
ATOM     25  C   UNL     1       7.523   7.868  17.310  0.00  0.00    +0.000 C 
BRANCH  25  26
ATOM     26  C   UNL     1       8.439   8.536  18.332  0.00  0.00    +0.000 C 
BRANCH  26  27
ATOM     27  N   UNL     1       8.501  10.008  18.230  0.00  0.00    +0.000 NA
ATOM     28  H   UNL     1       8.451  10.266  17.242  0.00  0.00    +0.000 HD
BRANCH  27  29
ATOM     29  C   UNL     1       9.730  10.596  18.805  0.00  0.00    +0.000 C 
ATOM     30  C   UNL     1      10.281  11.707  17.905  0.00  0.00    +0.000 C 
BRANCH  29  32
ATOM     31  C   UNL     1      10.587  12.050  20.749  0.00  0.00    +0.000 C 
ATOM     32  C   UNL     1       9.470  11.161  20.216  0.00  0.00    +0.000 C 
ENDBRANCH  29  32
ENDBRANCH  27  29
ENDBRANCH  26  27
ENDBRANCH  25  26
ENDBRANCH  21  25
ENDBRANCH   1  23
TORSDOF 7
ENDMDL
MODEL 3
REMARK VINA RESULT:      -8.1      0.974      1.033
REMARK  Name = 
REMARK  10 active torsions:
REMARK  status: ('A' for Active; 'I' for Inactive)
REMARK    1  A    between atoms: C_1  and  C_2
REMARK    2  A    between atoms: C_2  and  C_3
REMARK    3  A    between atoms: C_3  and  C_4
REMARK    4  A    between atoms: C_3  and  N_5
REMARK    5  A    between atoms: N_5  and  C_6
REMARK    6  A    between atoms: C_6  and  C_7
REMARK    7  A    between atoms: C_7  and  C_8
REMARK    8  A    between atoms: N_10  and  C_11
REMARK    9  A    between atoms: C_15  and  C_16
REMARK   10  A    between atoms: C_26  and  C_27
REMARK                            x       y       z     vdW  Elec       q    Type
REMARK                         _______ _______ _______ _____ _____    ______ ____
ROOT
ATOM      1  C   UNL     1       4.898   5.512  18.380  0.00  0.00    +0.000 A 
ATOM      2  S   UNL     1       5.366   3.874  18.401  0.00  0.00    +0.000 S 
ATOM      3  C   UNL     1       3.763   3.376  18.315  0.00  0.00    +0.000 A 
ATOM      4  C   UNL     1       2.863   4.413  18.516  0.00  0.00    +0.000 A 
ATOM      5  C   UNL     1       3.538   5.697  18.606  0.00  0.00    +0.000 A 
ATOM      6  C   UNL     1       1.389   4.098  18.511  0.00  0.00    +0.000 C 
ATOM      7  C   UNL     1       1.125   2.556  18.550  0.00  0.00    +0.000 C 
ATOM      8  C   UNL     1       1.172   1.989  19.977  0.00  0.00    +0.000 C 
ATOM      9  N   UNL     1       2.033   1.794  17.659  0.00  0.00    +0.000 NA
ATOM     10  C   UNL     1       3.439   1.942  18.064  0.00  0.00    +0.000 C 
ATOM     11  H   UNL     1       1.954   2.183  16.718  0.00  0.00    +0.000 HD
ENDROOT
BRANCH   5  12
ATOM     12  C   UNL     1       2.863   7.062  18.773  0.00  0.00    +0.000 A 
ATOM     13  N   UNL     1       2.186   7.407  19.858  0.00  0.00    +0.000 NA
ATOM     14  C   UNL     1       1.663   8.701  19.727  0.00  0.00    +0.000 A 
ATOM     15  C   UNL     1       0.889   9.404  20.668  0.00  0.00    +0.000 A 
ATOM     16  N   UNL     1       0.432  10.659  20.408  0.00  0.00    +0.000 NA
ATOM     17  C   UNL     1       0.734  11.239  19.228  0.00  0.00    +0.000 A 
ATOM     18  C   UNL     1       1.489  10.641  18.240  0.00  0.00    +0.000 A 
ATOM     19  C   UNL     1       1.952   9.343  18.525  0.00  0.00    +0.000 A 
ATOM     20  S   UNL     1       2.911   8.296  17.560  0.00  0.00    +0.000 S 
ENDBRANCH   5  12
BRANCH   1  23
ATOM     21  C   UNL     1       6.453   6.720  17.010  0.00  0.00    +0.000 C 
ATOM     22  O   UNL     1       6.009   6.326  15.932  0.00  0.00    +0.000 OA
ATOM     23  N   UNL     1       5.957   6.386  18.263  0.00  0.00    +0.000 N 
ATOM     24  H   UNL     1       6.150   7.036  19.024  0.00  0.00    +0.000 HD
BRANCH  21  25
ATOM     25  C   UNL     1       7.673   7.616  17.021  0.00  0.00    +0.000 C 
BRANCH  25  26
ATOM     26  C   UNL     1       7.556   8.850  17.911  0.00  0.00    +0.000 C 
BRANCH  26  27
ATOM     27  N   UNL     1       8.780   9.175  18.673  0.00  0.00    +0.000 NA
ATOM     28  H   UNL     1       8.729   8.705  19.580  0.00  0.00    +0.000 HD
BRANCH  27  29
ATOM     29  C   UNL     1       8.974  10.621  18.905  0.00  0.00    +0.000 C 
ATOM     30  C   UNL     1       9.385  10.896  20.355  0.00  0.00    +0.000 C 
BRANCH  29  32
ATOM     31  C   UNL     1       9.877  12.686  17.659  0.00  0.00    +0.000 C 
ATOM     32  C   UNL     1      10.040  11.200  17.952  0.00  0.00    +0.000 C 
ENDBRANCH  29  32
ENDBRANCH  27  29
ENDBRANCH  26  27
ENDBRANCH  25  26
ENDBRANCH  21  25
ENDBRANCH   1  23
TORSDOF 7
ENDMDL
MODEL 4
REMARK VINA RESULT:      -8.1      0.720      1.040
REMARK  Name = 
REMARK  10 active torsions:
REMARK  status: ('A' for Active; 'I' for Inactive)
REMARK    1  A    between atoms: C_1  and  C_2
REMARK    2  A    between atoms: C_2  and  C_3
REMARK    3  A    between atoms: C_3  and  C_4
REMARK    4  A    between atoms: C_3  and  N_5
REMARK    5  A    between atoms: N_5  and  C_6
REMARK    6  A    between atoms: C_6  and  C_7
REMARK    7  A    between atoms: C_7  and  C_8
REMARK    8  A    between atoms: N_10  and  C_11
REMARK    9  A    between atoms: C_15  and  C_16
REMARK   10  A    between atoms: C_26  and  C_27
REMARK                            x       y       z     vdW  Elec       q    Type
REMARK                         _______ _______ _______ _____ _____    ______ ____
ROOT
ATOM      1  C   UNL     1       4.567   5.681  17.786  0.00  0.00    +0.000 A 
ATOM      2  S   UNL     1       5.116   4.069  17.759  0.00  0.00    +0.000 S 
ATOM      3  C   UNL     1       3.614   3.508  18.263  0.00  0.00    +0.000 A 
ATOM      4  C   UNL     1       2.771   4.527  18.687  0.00  0.00    +0.000 A 
ATOM      5  C   UNL     1       3.356   5.837  18.451  0.00  0.00    +0.000 A 
ATOM      6  C   UNL     1       1.406   4.161  19.209  0.00  0.00    +0.000 C 
ATOM      7  C   UNL     1       1.268   2.620  19.444  0.00  0.00    +0.000 C 
ATOM      8  C   UNL     1       1.831   2.181  20.804  0.00  0.00    +0.000 C 
ATOM      9  N   UNL     1       1.867   1.816  18.351  0.00  0.00    +0.000 NA
ATOM     10  C   UNL     1       3.314   2.048  18.239  0.00  0.00    +0.000 C 
ATOM     11  H   UNL     1       1.450   2.118  17.469  0.00  0.00    +0.000 HD
ENDROOT
BRANCH   5  12
ATOM     12  C   UNL     1       2.693   7.187  18.743  0.00  0.00    +0.000 A 
ATOM     13  N   UNL     1       2.138   7.484  19.910  0.00  0.00    +0.000 NA
ATOM     14  C   UNL     1       1.594   8.775  19.886  0.00  0.00    +0.000 A 
ATOM     15  C   UNL     1       0.925   9.434  20.934  0.00  0.00    +0.000 A 
ATOM     16  N   UNL     1       0.431  10.692  20.774  0.00  0.00    +0.000 NA
ATOM     17  C   UNL     1       0.593  11.318  19.590  0.00  0.00    +0.000 A 
ATOM     18  C   UNL     1       1.237  10.765  18.501  0.00  0.00    +0.000 A 
ATOM     19  C   UNL     1       1.740   9.464  18.684  0.00  0.00    +0.000 A 
ATOM     20  S   UNL     1       2.593   8.464  17.579  0.00  0.00    +0.000 S 
ENDBRANCH   5  12
BRANCH   1  23
ATOM     21  C   UNL     1       6.727   6.724  17.817  0.00  0.00    +0.000 C 
ATOM     22  O   UNL     1       7.165   6.085  18.774  0.00  0.00    +0.000 OA
ATOM     23  N   UNL     1       5.467   6.579  17.253  0.00  0.00    +0.000 N 
ATOM     24  H   UNL     1       5.359   6.872  16.284  0.00  0.00    +0.000 HD
BRANCH  21  25
ATOM     25  C   UNL     1       7.586   7.804  17.197  0.00  0.00    +0.000 C 
BRANCH  25  26
ATOM     26  C   UNL     1       7.734   9.070  18.037  0.00  0.00    +0.000 C 
BRANCH  26  27
ATOM     27  N   UNL     1       8.805   9.011  19.052  0.00  0.00    +0.000 NA
ATOM     28  H   UNL     1       8.383   8.774  19.953  0.00  0.00    +0.000 HD
BRANCH  27  29
ATOM     29  C   UNL     1       9.555  10.276  19.205  0.00  0.00    +0.000 C 
ATOM     30  C   UNL     1       9.101  11.313  18.172  0.00  0.00    +0.000 C 
BRANCH  29  32
ATOM     31  C   UNL     1       9.223  12.371  20.664  0.00  0.00    +0.000 C 
ATOM     32  C   UNL     1       9.384  10.857  20.624  0.00  0.00    +0.000 C 
ENDBRANCH  29  32
ENDBRANCH  27  29
ENDBRANCH  26  27
ENDBRANCH  25  26
ENDBRANCH  21  25
ENDBRANCH   1  23
TORSDOF 7
ENDMDL
MODEL 5
REMARK VINA RESULT:      -7.9      3.643      7.722
REMARK  Name = 
REMARK  10 active torsions:
REMARK  status: ('A' for Active; 'I' for Inactive)
REMARK    1  A    between atoms: C_1  and  C_2
REMARK    2  A    between atoms: C_2  and  C_3
REMARK    3  A    between atoms: C_3  and  C_4
REMARK    4  A    between atoms: C_3  and  N_5
REMARK    5  A    between atoms: N_5  and  C_6
REMARK    6  A    between atoms: C_6  and  C_7
REMARK    7  A    between atoms: C_7  and  C_8
REMARK    8  A    between atoms: N_10  and  C_11
REMARK    9  A    between atoms: C_15  and  C_16
REMARK   10  A    between atoms: C_26  and  C_27
REMARK                            x       y       z     vdW  Elec       q    Type
REMARK                         _______ _______ _______ _____ _____    ______ ____
ROOT
ATOM      1  C   UNL     1       2.109   6.695  20.442  0.00  0.00    +0.000 A 
ATOM      2  S   UNL     1       1.053   7.670  21.357  0.00  0.00    +0.000 S 
ATOM      3  C   UNL     1       0.923   8.777  20.099  0.00  0.00    +0.000 A 
ATOM      4  C   UNL     1       1.849   8.558  19.088  0.00  0.00    +0.000 A 
ATOM      5  C   UNL     1       2.602   7.335  19.310  0.00  0.00    +0.000 A 
ATOM      6  C   UNL     1       1.876   9.506  17.917  0.00  0.00    +0.000 C 
ATOM      7  C   UNL     1       1.003  10.778  18.181  0.00  0.00    +0.000 C 
ATOM      8  C   UNL     1       1.757  11.852  18.979  0.00  0.00    +0.000 C 
ATOM      9  N   UNL     1      -0.292  10.462  18.830  0.00  0.00    +0.000 NA
ATOM     10  C   UNL     1      -0.100   9.861  20.158  0.00  0.00    +0.000 C 
ATOM     11  H   UNL     1      -0.773   9.767  18.258  0.00  0.00    +0.000 HD
ENDROOT
BRANCH   5  12
ATOM     12  C   UNL     1       3.669   6.750  18.378  0.00  0.00    +0.000 A 
ATOM     13  N   UNL     1       4.596   5.895  18.786  0.00  0.00    +0.000 NA
ATOM     14  C   UNL     1       5.447   5.544  17.729  0.00  0.00    +0.000 A 
ATOM     15  C   UNL     1       6.545   4.666  17.777  0.00  0.00    +0.000 A 
ATOM     16  N   UNL     1       7.301   4.420  16.673  0.00  0.00    +0.000 NA
ATOM     17  C   UNL     1       6.984   5.026  15.510  0.00  0.00    +0.000 A 
ATOM     18  C   UNL     1       5.926   5.898  15.352  0.00  0.00    +0.000 A 
ATOM     19  C   UNL     1       5.157   6.142  16.505  0.00  0.00    +0.000 A 
ATOM     20  S   UNL     1       3.779   7.148  16.698  0.00  0.00    +0.000 S 
ENDBRANCH   5  12
BRANCH   1  23
ATOM     21  C   UNL     1       1.551   4.398  20.844  0.00  0.00    +0.000 C 
ATOM     22  O   UNL     1       0.540   4.385  20.140  0.00  0.00    +0.000 OA
ATOM     23  N   UNL     1       2.393   5.484  21.035  0.00  0.00    +0.000 N 
ATOM     24  H   UNL     1       3.351   5.282  21.314  0.00  0.00    +0.000 HD
BRANCH  21  25
ATOM     25  C   UNL     1       1.922   3.154  21.620  0.00  0.00    +0.000 C 
BRANCH  25  26
ATOM     26  C   UNL     1       3.136   2.399  21.084  0.00  0.00    +0.000 C 
BRANCH  26  27
ATOM     27  N   UNL     1       3.801   3.045  19.935  0.00  0.00    +0.000 NA
ATOM     28  H   UNL     1       3.329   3.933  19.745  0.00  0.00    +0.000 HD
BRANCH  27  29
ATOM     29  C   UNL     1       3.784   2.234  18.699  0.00  0.00    +0.000 C 
ATOM     30  C   UNL     1       4.084   0.762  19.004  0.00  0.00    +0.000 C 
BRANCH  29  32
ATOM     31  C   UNL     1       2.198   3.667  17.264  0.00  0.00    +0.000 C 
ATOM     32  C   UNL     1       2.424   2.341  17.980  0.00  0.00    +0.000 C 
ENDBRANCH  29  32
ENDBRANCH  27  29
ENDBRANCH  26  27
ENDBRANCH  25  26
ENDBRANCH  21  25
ENDBRANCH   1  23
TORSDOF 7
ENDMDL
MODEL 6
REMARK VINA RESULT:      -7.9      1.307      1.554
REMARK  Name = 
REMARK  10 active torsions:
REMARK  status: ('A' for Active; 'I' for Inactive)
REMARK    1  A    between atoms: C_1  and  C_2
REMARK    2  A    between atoms: C_2  and  C_3
REMARK    3  A    between atoms: C_3  and  C_4
REMARK    4  A    between atoms: C_3  and  N_5
REMARK    5  A    between atoms: N_5  and  C_6
REMARK    6  A    between atoms: C_6  and  C_7
REMARK    7  A    between atoms: C_7  and  C_8
REMARK    8  A    between atoms: N_10  and  C_11
REMARK    9  A    between atoms: C_15  and  C_16
REMARK   10  A    between atoms: C_26  and  C_27
REMARK                            x       y       z     vdW  Elec       q    Type
REMARK                         _______ _______ _______ _____ _____    ______ ____
ROOT
ATOM      1  C   UNL     1       4.889   5.624  18.324  0.00  0.00    +0.000 A 
ATOM      2  S   UNL     1       5.399   3.999  18.293  0.00  0.00    +0.000 S 
ATOM      3  C   UNL     1       3.808   3.460  18.250  0.00  0.00    +0.000 A 
ATOM      4  C   UNL     1       2.888   4.468  18.504  0.00  0.00    +0.000 A 
ATOM      5  C   UNL     1       3.533   5.767  18.600  0.00  0.00    +0.000 A 
ATOM      6  C   UNL     1       1.424   4.115  18.541  0.00  0.00    +0.000 C 
ATOM      7  C   UNL     1       1.201   2.565  18.555  0.00  0.00    +0.000 C 
ATOM      8  C   UNL     1       1.311   1.970  19.967  0.00  0.00    +0.000 C 
ATOM      9  N   UNL     1       2.098   1.847  17.617  0.00  0.00    +0.000 NA
ATOM     10  C   UNL     1       3.512   2.023  17.978  0.00  0.00    +0.000 C 
ATOM     11  H   UNL     1       1.977   2.254  16.688  0.00  0.00    +0.000 HD
ENDROOT
BRANCH   5  12
ATOM     12  C   UNL     1       2.829   7.110  18.820  0.00  0.00    +0.000 A 
ATOM     13  N   UNL     1       2.951   8.136  17.990  0.00  0.00    +0.000 NA
ATOM     14  C   UNL     1       2.216   9.237  18.449  0.00  0.00    +0.000 A 
ATOM     15  C   UNL     1       2.105  10.500  17.839  0.00  0.00    +0.000 A 
ATOM     16  N   UNL     1       1.362  11.492  18.401  0.00  0.00    +0.000 NA
ATOM     17  C   UNL     1       0.715  11.254  19.561  0.00  0.00    +0.000 A 
ATOM     18  C   UNL     1       0.752  10.052  20.238  0.00  0.00    +0.000 A 
ATOM     19  C   UNL     1       1.526   9.038  19.643  0.00  0.00    +0.000 A 
ATOM     20  S   UNL     1       1.805   7.431  20.178  0.00  0.00    +0.000 S 
ENDBRANCH   5  12
BRANCH   1  23
ATOM     21  C   UNL     1       6.465   6.788  16.942  0.00  0.00    +0.000 C 
ATOM     22  O   UNL     1       6.090   6.298  15.876  0.00  0.00    +0.000 OA
ATOM     23  N   UNL     1       5.920   6.528  18.191  0.00  0.00    +0.000 N 
ATOM     24  H   UNL     1       6.051   7.239  18.909  0.00  0.00    +0.000 HD
BRANCH  21  25
ATOM     25  C   UNL     1       7.650   7.729  16.942  0.00  0.00    +0.000 C 
BRANCH  25  26
ATOM     26  C   UNL     1       7.546   8.894  17.922  0.00  0.00    +0.000 C 
BRANCH  26  27
ATOM     27  N   UNL     1       8.776   9.155  18.697  0.00  0.00    +0.000 NA
ATOM     28  H   UNL     1       8.698   8.678  19.599  0.00  0.00    +0.000 HD
BRANCH  27  29
ATOM     29  C   UNL     1       9.033  10.589  18.947  0.00  0.00    +0.000 C 
ATOM     30  C   UNL     1       9.494  10.822  20.390  0.00  0.00    +0.000 C 
BRANCH  29  32
ATOM     31  C   UNL     1       9.918  12.618  17.632  0.00  0.00    +0.000 C 
ATOM     32  C   UNL     1      10.093  11.144  17.975  0.00  0.00    +0.000 C 
ENDBRANCH  29  32
ENDBRANCH  27  29
ENDBRANCH  26  27
ENDBRANCH  25  26
ENDBRANCH  21  25
ENDBRANCH   1  23
TORSDOF 7
ENDMDL
MODEL 7
REMARK VINA RESULT:      -7.7      3.640      7.801
REMARK  Name = 
REMARK  10 active torsions:
REMARK  status: ('A' for Active; 'I' for Inactive)
REMARK    1  A    between atoms: C_1  and  C_2
REMARK    2  A    between atoms: C_2  and  C_3
REMARK    3  A    between atoms: C_3  and  C_4
REMARK    4  A    between atoms: C_3  and  N_5
REMARK    5  A    between atoms: N_5  and  C_6
REMARK    6  A    between atoms: C_6  and  C_7
REMARK    7  A    between atoms: C_7  and  C_8
REMARK    8  A    between atoms: N_10  and  C_11
REMARK    9  A    between atoms: C_15  and  C_16
REMARK   10  A    between atoms: C_26  and  C_27
REMARK                            x       y       z     vdW  Elec       q    Type
REMARK                         _______ _______ _______ _____ _____    ______ ____
ROOT
ATOM      1  C   UNL     1       2.155   6.668  20.411  0.00  0.00    +0.000 A 
ATOM      2  S   UNL     1       1.071   7.668  21.264  0.00  0.00    +0.000 S 
ATOM      3  C   UNL     1       0.996   8.748  19.978  0.00  0.00    +0.000 A 
ATOM      4  C   UNL     1       1.959   8.502  19.008  0.00  0.00    +0.000 A 
ATOM      5  C   UNL     1       2.695   7.280  19.285  0.00  0.00    +0.000 A 
ATOM      6  C   UNL     1       2.035   9.425  17.819  0.00  0.00    +0.000 C 
ATOM      7  C   UNL     1       1.161  10.707  18.023  0.00  0.00    +0.000 C 
ATOM      8  C   UNL     1       1.891  11.793  18.826  0.00  0.00    +0.000 C 
ATOM      9  N   UNL     1      -0.160  10.412  18.630  0.00  0.00    +0.000 NA
ATOM     10  C   UNL     1      -0.021   9.838  19.976  0.00  0.00    +0.000 C 
ATOM     11  H   UNL     1      -0.623   9.707  18.054  0.00  0.00    +0.000 HD
ENDROOT
BRANCH   5  12
ATOM     12  C   UNL     1       3.793   6.669  18.407  0.00  0.00    +0.000 A 
ATOM     13  N   UNL     1       3.840   6.827  17.092  0.00  0.00    +0.000 NA
ATOM     14  C   UNL     1       4.937   6.145  16.549  0.00  0.00    +0.000 A 
ATOM     15  C   UNL     1       5.311   6.078  15.195  0.00  0.00    +0.000 A 
ATOM     16  N   UNL     1       6.399   5.365  14.797  0.00  0.00    +0.000 NA
ATOM     17  C   UNL     1       7.135   4.716  15.723  0.00  0.00    +0.000 A 
ATOM     18  C   UNL     1       6.860   4.720  17.076  0.00  0.00    +0.000 A 
ATOM     19  C   UNL     1       5.730   5.462  17.468  0.00  0.00    +0.000 A 
ATOM     20  S   UNL     1       5.083   5.704  19.039  0.00  0.00    +0.000 S 
ENDBRANCH   5  12
BRANCH   1  23
ATOM     21  C   UNL     1       1.547   4.394  20.870  0.00  0.00    +0.000 C 
ATOM     22  O   UNL     1       0.543   4.382  20.157  0.00  0.00    +0.000 OA
ATOM     23  N   UNL     1       2.409   5.468  21.040  0.00  0.00    +0.000 N 
ATOM     24  H   UNL     1       3.360   5.254  21.333  0.00  0.00    +0.000 HD
BRANCH  21  25
ATOM     25  C   UNL     1       1.886   3.164  21.684  0.00  0.00    +0.000 C 
BRANCH  25  26
ATOM     26  C   UNL     1       2.969   2.273  21.083  0.00  0.00    +0.000 C 
BRANCH  26  27
ATOM     27  N   UNL     1       3.775   2.915  20.024  0.00  0.00    +0.000 NA
ATOM     28  H   UNL     1       3.396   3.850  19.852  0.00  0.00    +0.000 HD
BRANCH  27  29
ATOM     29  C   UNL     1       3.786   2.172  18.747  0.00  0.00    +0.000 C 
ATOM     30  C   UNL     1       4.107   0.691  18.974  0.00  0.00    +0.000 C 
BRANCH  29  32
ATOM     31  C   UNL     1       2.238   3.617  17.282  0.00  0.00    +0.000 C 
ATOM     32  C   UNL     1       2.433   2.297  18.017  0.00  0.00    +0.000 C 
ENDBRANCH  29  32
ENDBRANCH  27  29
ENDBRANCH  26  27
ENDBRANCH  25  26
ENDBRANCH  21  25
ENDBRANCH   1  23
TORSDOF 7
ENDMDL
MODEL 8
REMARK VINA RESULT:      -7.4      2.223      3.609
REMARK  Name = 
REMARK  10 active torsions:
REMARK  status: ('A' for Active; 'I' for Inactive)
REMARK    1  A    between atoms: C_1  and  C_2
REMARK    2  A    between atoms: C_2  and  C_3
REMARK    3  A    between atoms: C_3  and  C_4
REMARK    4  A    between atoms: C_3  and  N_5
REMARK    5  A    between atoms: N_5  and  C_6
REMARK    6  A    between atoms: C_6  and  C_7
REMARK    7  A    between atoms: C_7  and  C_8
REMARK    8  A    between atoms: N_10  and  C_11
REMARK    9  A    between atoms: C_15  and  C_16
REMARK   10  A    between atoms: C_26  and  C_27
REMARK                            x       y       z     vdW  Elec       q    Type
REMARK                         _______ _______ _______ _____ _____    ______ ____
ROOT
ATOM      1  C   UNL     1       4.157   5.389  18.504  0.00  0.00    +0.000 A 
ATOM      2  S   UNL     1       4.626   3.759  18.660  0.00  0.00    +0.000 S 
ATOM      3  C   UNL     1       3.105   3.336  19.237  0.00  0.00    +0.000 A 
ATOM      4  C   UNL     1       2.319   4.437  19.547  0.00  0.00    +0.000 A 
ATOM      5  C   UNL     1       2.963   5.680  19.156  0.00  0.00    +0.000 A 
ATOM      6  C   UNL     1       0.944   4.203  20.119  0.00  0.00    +0.000 C 
ATOM      7  C   UNL     1       0.735   2.708  20.532  0.00  0.00    +0.000 C 
ATOM      8  C   UNL     1       1.294   2.402  21.929  0.00  0.00    +0.000 C 
ATOM      9  N   UNL     1       1.279   1.755  19.535  0.00  0.00    +0.000 NA
ATOM     10  C   UNL     1       2.734   1.899  19.385  0.00  0.00    +0.000 C 
ATOM     11  H   UNL     1       0.865   1.973  18.627  0.00  0.00    +0.000 HD
ENDROOT
BRANCH   5  12
ATOM     12  C   UNL     1       2.371   7.087  19.295  0.00  0.00    +0.000 A 
ATOM     13  N   UNL     1       1.882   7.558  20.433  0.00  0.00    +0.000 NA
ATOM     14  C   UNL     1       1.392   8.859  20.262  0.00  0.00    +0.000 A 
ATOM     15  C   UNL     1       0.798   9.678  21.240  0.00  0.00    +0.000 A 
ATOM     16  N   UNL     1       0.351  10.927  20.936  0.00  0.00    +0.000 NA
ATOM     17  C   UNL     1       0.486  11.387  19.675  0.00  0.00    +0.000 A 
ATOM     18  C   UNL     1       1.057  10.668  18.644  0.00  0.00    +0.000 A 
ATOM     19  C   UNL     1       1.513   9.379  18.976  0.00  0.00    +0.000 A 
ATOM     20  S   UNL     1       2.272   8.207  17.978  0.00  0.00    +0.000 S 
ENDBRANCH   5  12
BRANCH   1  23
ATOM     21  C   UNL     1       6.395   6.233  18.337  0.00  0.00    +0.000 C 
ATOM     22  O   UNL     1       6.841   5.608  19.298  0.00  0.00    +0.000 OA
ATOM     23  N   UNL     1       5.092   6.172  17.863  0.00  0.00    +0.000 N 
ATOM     24  H   UNL     1       4.943   6.423  16.887  0.00  0.00    +0.000 HD
BRANCH  21  25
ATOM     25  C   UNL     1       7.300   7.198  17.601  0.00  0.00    +0.000 C 
BRANCH  25  26
ATOM     26  C   UNL     1       7.672   6.777  16.182  0.00  0.00    +0.000 C 
BRANCH  26  27
ATOM     27  N   UNL     1       6.602   6.066  15.453  0.00  0.00    +0.000 NA
ATOM     28  H   UNL     1       5.807   5.942  16.086  0.00  0.00    +0.000 HD
BRANCH  27  29
ATOM     29  C   UNL     1       7.005   4.739  14.943  0.00  0.00    +0.000 C 
ATOM     30  C   UNL     1       6.003   3.659  15.367  0.00  0.00    +0.000 C 
BRANCH  29  32
ATOM     31  C   UNL     1       6.324   3.658  12.707  0.00  0.00    +0.000 C 
ATOM     32  C   UNL     1       7.130   4.746  13.406  0.00  0.00    +0.000 C 
ENDBRANCH  29  32
ENDBRANCH  27  29
ENDBRANCH  26  27
ENDBRANCH  25  26
ENDBRANCH  21  25
ENDBRANCH   1  23
TORSDOF 7
ENDMDL
MODEL 9
REMARK VINA RESULT:      -7.4      3.132      7.771
REMARK  Name = 
REMARK  10 active torsions:
REMARK  status: ('A' for Active; 'I' for Inactive)
REMARK    1  A    between atoms: C_1  and  C_2
REMARK    2  A    between atoms: C_2  and  C_3
REMARK    3  A    between atoms: C_3  and  C_4
REMARK    4  A    between atoms: C_3  and  N_5
REMARK    5  A    between atoms: N_5  and  C_6
REMARK    6  A    between atoms: C_6  and  C_7
REMARK    7  A    between atoms: C_7  and  C_8
REMARK    8  A    between atoms: N_10  and  C_11
REMARK    9  A    between atoms: C_15  and  C_16
REMARK   10  A    between atoms: C_26  and  C_27
REMARK                            x       y       z     vdW  Elec       q    Type
REMARK                         _______ _______ _______ _____ _____    ______ ____
ROOT
ATOM      1  C   UNL     1       2.089   6.868  20.414  0.00  0.00    +0.000 A 
ATOM      2  S   UNL     1       1.129   7.951  21.313  0.00  0.00    +0.000 S 
ATOM      3  C   UNL     1       0.981   8.978  19.991  0.00  0.00    +0.000 A 
ATOM      4  C   UNL     1       1.841   8.649  18.952  0.00  0.00    +0.000 A 
ATOM      5  C   UNL     1       2.549   7.407  19.217  0.00  0.00    +0.000 A 
ATOM      6  C   UNL     1       1.846   9.516  17.719  0.00  0.00    +0.000 C 
ATOM      7  C   UNL     1       1.048  10.844  17.941  0.00  0.00    +0.000 C 
ATOM      8  C   UNL     1       1.892  11.929  18.626  0.00  0.00    +0.000 C 
ATOM      9  N   UNL     1      -0.223  10.634  18.676  0.00  0.00    +0.000 NA
ATOM     10  C   UNL     1       0.013  10.112  20.029  0.00  0.00    +0.000 C 
ATOM     11  H   UNL     1      -0.766   9.927  18.177  0.00  0.00    +0.000 HD
ENDROOT
BRANCH   5  12
ATOM     12  C   UNL     1       3.536   6.712  18.274  0.00  0.00    +0.000 A 
ATOM     13  N   UNL     1       4.776   7.137  18.082  0.00  0.00    +0.000 NA
ATOM     14  C   UNL     1       5.443   6.323  17.156  0.00  0.00    +0.000 A 
ATOM     15  C   UNL     1       6.766   6.463  16.699  0.00  0.00    +0.000 A 
ATOM     16  N   UNL     1       7.290   5.604  15.783  0.00  0.00    +0.000 NA
ATOM     17  C   UNL     1       6.525   4.598  15.310  0.00  0.00    +0.000 A 
ATOM     18  C   UNL     1       5.220   4.368  15.695  0.00  0.00    +0.000 A 
ATOM     19  C   UNL     1       4.694   5.266  16.642  0.00  0.00    +0.000 A 
ATOM     20  S   UNL     1       3.134   5.300  17.356  0.00  0.00    +0.000 S 
ENDBRANCH   5  12
BRANCH   1  23
ATOM     21  C   UNL     1       1.526   4.584  20.883  0.00  0.00    +0.000 C 
ATOM     22  O   UNL     1       0.554   4.533  20.129  0.00  0.00    +0.000 OA
ATOM     23  N   UNL     1       2.349   5.686  21.072  0.00  0.00    +0.000 N 
ATOM     24  H   UNL     1       3.293   5.504  21.409  0.00  0.00    +0.000 HD
BRANCH  21  25
ATOM     25  C   UNL     1       1.865   3.377  21.730  0.00  0.00    +0.000 C 
BRANCH  25  26
ATOM     26  C   UNL     1       1.876   2.048  20.981  0.00  0.00    +0.000 C 
BRANCH  26  27
ATOM     27  N   UNL     1       2.087   2.167  19.524  0.00  0.00    +0.000 NA
ATOM     28  H   UNL     1       1.287   1.746  19.046  0.00  0.00    +0.000 HD
BRANCH  27  29
ATOM     29  C   UNL     1       3.319   1.507  19.042  0.00  0.00    +0.000 C 
ATOM     30  C   UNL     1       3.541   1.778  17.550  0.00  0.00    +0.000 C 
BRANCH  29  32
ATOM     31  C   UNL     1       4.943   3.431  19.582  0.00  0.00    +0.000 C 
ATOM     32  C   UNL     1       4.553   1.980  19.837  0.00  0.00    +0.000 C 
ENDBRANCH  29  32
ENDBRANCH  27  29
ENDBRANCH  26  27
ENDBRANCH  25  26
ENDBRANCH  21  25
ENDBRANCH   1  23
TORSDOF 7
ENDMDL
