MODEL 1
REMARK VINA RESULT:      -6.6      0.000      0.000
REMARK  Name = 
REMARK  3 active torsions:
REMARK  status: ('A' for Active; 'I' for Inactive)
REMARK    1  A    between atoms: C_1  and  C_2
REMARK    2  A    between atoms: N_11  and  C_12
REMARK    3  A    between atoms: N_15  and  C_16
REMARK                            x       y       z     vdW  Elec       q    Type
REMARK                         _______ _______ _______ _____ _____    ______ ____
ROOT
ATOM      1  C   UNL     1       1.687   6.513  20.263  0.00  0.00    +0.000 C 
ATOM      2  C   UNL     1       1.968   5.055  20.014  0.00  0.00    +0.000 A 
ATOM      3  C   UNL     1       1.317   4.211  20.840  0.00  0.00    +0.000 A 
ATOM      4  C   UNL     1       1.507   2.763  20.696  0.00  0.00    +0.000 A 
ATOM      5  N   UNL     1       2.265   2.190  19.827  0.00  0.00    +0.000 NA
ATOM      6  N   UNL     1       2.904   3.066  19.013  0.00  0.00    +0.000 N 
ATOM      7  C   UNL     1       3.747   2.637  18.034  0.00  0.00    +0.000 A 
ATOM      8  C   UNL     1       4.240   3.734  17.382  0.00  0.00    +0.000 A 
ATOM      9  C   UNL     1       5.162   3.763  16.280  0.00  0.00    +0.000 A 
ATOM     10  O   UNL     1       5.624   2.737  15.788  0.00  0.00    +0.000 OA
ATOM     11  N   UNL     1       5.461   5.049  15.848  0.00  0.00    +0.000 N 
ATOM     12  C   UNL     1       6.384   5.200  14.741  0.00  0.00    +0.000 C 
ATOM     13  C   UNL     1       4.952   6.232  16.387  0.00  0.00    +0.000 A 
ATOM     14  O   UNL     1       5.293   7.323  15.916  0.00  0.00    +0.000 OA
ATOM     15  N   UNL     1       4.052   6.144  17.466  0.00  0.00    +0.000 N 
ATOM     16  C   UNL     1       3.564   7.404  17.976  0.00  0.00    +0.000 C 
ATOM     17  C   UNL     1       3.683   4.891  17.978  0.00  0.00    +0.000 A 
ATOM     18  C   UNL     1       2.836   4.470  19.012  0.00  0.00    +0.000 A 
ENDROOT
TORSDOF 0
ENDMDL
MODEL 2
REMARK VINA RESULT:      -6.3      1.226      3.244
REMARK  Name = 
REMARK  3 active torsions:
REMARK  status: ('A' for Active; 'I' for Inactive)
REMARK    1  A    between atoms: C_1  and  C_2
REMARK    2  A    between atoms: N_11  and  C_12
REMARK    3  A    between atoms: N_15  and  C_16
REMARK                            x       y       z     vdW  Elec       q    Type
REMARK                         _______ _______ _______ _____ _____    ______ ____
ROOT
ATOM      1  C   UNL     1       2.026   3.406  20.391  0.00  0.00    +0.000 C 
ATOM      2  C   UNL     1       2.141   4.868  20.050  0.00  0.00    +0.000 A 
ATOM      3  C   UNL     1       1.436   5.688  20.856  0.00  0.00    +0.000 A 
ATOM      4  C   UNL     1       1.468   7.137  20.626  0.00  0.00    +0.000 A 
ATOM      5  N   UNL     1       2.126   7.733  19.694  0.00  0.00    +0.000 NA
ATOM      6  N   UNL     1       2.824   6.881  18.902  0.00  0.00    +0.000 N 
ATOM      7  C   UNL     1       3.579   7.336  17.865  0.00  0.00    +0.000 A 
ATOM      8  C   UNL     1       4.160   6.259  17.253  0.00  0.00    +0.000 A 
ATOM      9  C   UNL     1       5.039   6.260  16.115  0.00  0.00    +0.000 A 
ATOM     10  O   UNL     1       5.371   7.298  15.549  0.00  0.00    +0.000 OA
ATOM     11  N   UNL     1       5.455   4.989  15.742  0.00  0.00    +0.000 N 
ATOM     12  C   UNL     1       6.345   4.869  14.605  0.00  0.00    +0.000 C 
ATOM     13  C   UNL     1       5.094   3.794  16.366  0.00  0.00    +0.000 A 
ATOM     14  O   UNL     1       5.531   2.718  15.941  0.00  0.00    +0.000 OA
ATOM     15  N   UNL     1       4.231   3.852  17.476  0.00  0.00    +0.000 N 
ATOM     16  C   UNL     1       3.896   2.580  18.074  0.00  0.00    +0.000 C 
ATOM     17  C   UNL     1       3.752   5.088  17.935  0.00  0.00    +0.000 A 
ATOM     18  C   UNL     1       2.905   5.480  18.982  0.00  0.00    +0.000 A 
ENDROOT
TORSDOF 0
ENDMDL
MODEL 3
REMARK VINA RESULT:      -6.2      2.251      4.862
REMARK  Name = 
REMARK  3 active torsions:
REMARK  status: ('A' for Active; 'I' for Inactive)
REMARK    1  A    between atoms: C_1  and  C_2
REMARK    2  A    between atoms: N_11  and  C_12
REMARK    3  A    between atoms: N_15  and  C_16
REMARK                            x       y       z     vdW  Elec       q    Type
REMARK                         _______ _______ _______ _____ _____    ______ ____
ROOT
ATOM      1  C   UNL     1       4.572   7.689  16.775  0.00  0.00    +0.000 C 
ATOM      2  C   UNL     1       4.865   6.246  16.465  0.00  0.00    +0.000 A 
ATOM      3  C   UNL     1       5.706   6.055  15.429  0.00  0.00    +0.000 A 
ATOM      4  C   UNL     1       6.069   4.690  15.029  0.00  0.00    +0.000 A 
ATOM      5  N   UNL     1       5.650   3.610  15.589  0.00  0.00    +0.000 NA
ATOM      6  N   UNL     1       4.807   3.836  16.627  0.00  0.00    +0.000 N 
ATOM      7  C   UNL     1       4.265   2.808  17.336  0.00  0.00    +0.000 A 
ATOM      8  C   UNL     1       3.464   3.336  18.312  0.00  0.00    +0.000 A 
ATOM      9  C   UNL     1       2.692   2.629  19.296  0.00  0.00    +0.000 A 
ATOM     10  O   UNL     1       2.680   1.403  19.358  0.00  0.00    +0.000 OA
ATOM     11  N   UNL     1       1.983   3.469  20.145  0.00  0.00    +0.000 N 
ATOM     12  C   UNL     1       1.166   2.864  21.178  0.00  0.00    +0.000 C 
ATOM     13  C   UNL     1       1.977   4.864  20.098  0.00  0.00    +0.000 A 
ATOM     14  O   UNL     1       1.303   5.507  20.911  0.00  0.00    +0.000 OA
ATOM     15  N   UNL     1       2.752   5.504  19.114  0.00  0.00    +0.000 N 
ATOM     16  C   UNL     1       2.702   6.948  19.121  0.00  0.00    +0.000 C 
ATOM     17  C   UNL     1       3.508   4.747  18.205  0.00  0.00    +0.000 A 
ATOM     18  C   UNL     1       4.359   5.067  17.138  0.00  0.00    +0.000 A 
ENDROOT
TORSDOF 0
ENDMDL
MODEL 4
REMARK VINA RESULT:      -6.0      2.578      4.733
REMARK  Name = 
REMARK  3 active torsions:
REMARK  status: ('A' for Active; 'I' for Inactive)
REMARK    1  A    between atoms: C_1  and  C_2
REMARK    2  A    between atoms: N_11  and  C_12
REMARK    3  A    between atoms: N_15  and  C_16
REMARK                            x       y       z     vdW  Elec       q    Type
REMARK                         _______ _______ _______ _____ _____    ______ ____
ROOT
ATOM      1  C   UNL     1       0.434   8.259  21.377  0.00  0.00    +0.000 C 
ATOM      2  C   UNL     1       1.080   8.790  20.124  0.00  0.00    +0.000 A 
ATOM      3  C   UNL     1       0.788  10.076  19.847  0.00  0.00    +0.000 A 
ATOM      4  C   UNL     1       1.359  10.709  18.652  0.00  0.00    +0.000 A 
ATOM      5  N   UNL     1       2.141  10.139  17.804  0.00  0.00    +0.000 NA
ATOM      6  N   UNL     1       2.415   8.846  18.112  0.00  0.00    +0.000 N 
ATOM      7  C   UNL     1       3.226   8.088  17.325  0.00  0.00    +0.000 A 
ATOM      8  C   UNL     1       3.316   6.840  17.880  0.00  0.00    +0.000 A 
ATOM      9  C   UNL     1       4.062   5.712  17.395  0.00  0.00    +0.000 A 
ATOM     10  O   UNL     1       4.734   5.767  16.368  0.00  0.00    +0.000 OA
ATOM     11  N   UNL     1       3.940   4.586  18.199  0.00  0.00    +0.000 N 
ATOM     12  C   UNL     1       4.650   3.386  17.805  0.00  0.00    +0.000 C 
ATOM     13  C   UNL     1       3.184   4.495  19.369  0.00  0.00    +0.000 A 
ATOM     14  O   UNL     1       3.152   3.434  20.003  0.00  0.00    +0.000 OA
ATOM     15  N   UNL     1       2.473   5.631  19.798  0.00  0.00    +0.000 N 
ATOM     16  C   UNL     1       1.713   5.469  21.015  0.00  0.00    +0.000 C 
ATOM     17  C   UNL     1       2.530   6.822  19.057  0.00  0.00    +0.000 A 
ATOM     18  C   UNL     1       1.958   8.093  19.207  0.00  0.00    +0.000 A 
ENDROOT
TORSDOF 0
ENDMDL
MODEL 5
REMARK VINA RESULT:      -6.0      2.672      4.700
REMARK  Name = 
REMARK  3 active torsions:
REMARK  status: ('A' for Active; 'I' for Inactive)
REMARK    1  A    between atoms: C_1  and  C_2
REMARK    2  A    between atoms: N_11  and  C_12
REMARK    3  A    between atoms: N_15  and  C_16
REMARK                            x       y       z     vdW  Elec       q    Type
REMARK                         _______ _______ _______ _____ _____    ______ ____
ROOT
ATOM      1  C   UNL     1       4.707   4.433  16.979  0.00  0.00    +0.000 C 
ATOM      2  C   UNL     1       4.021   4.161  18.291  0.00  0.00    +0.000 A 
ATOM      3  C   UNL     1       4.209   2.917  18.774  0.00  0.00    +0.000 A 
ATOM      4  C   UNL     1       3.592   2.530  20.048  0.00  0.00    +0.000 A 
ATOM      5  N   UNL     1       2.856   3.288  20.783  0.00  0.00    +0.000 NA
ATOM      6  N   UNL     1       2.686   4.532  20.270  0.00  0.00    +0.000 N 
ATOM      7  C   UNL     1       1.937   5.468  20.915  0.00  0.00    +0.000 A 
ATOM      8  C   UNL     1       1.947   6.613  20.167  0.00  0.00    +0.000 A 
ATOM      9  C   UNL     1       1.292   7.860  20.456  0.00  0.00    +0.000 A 
ATOM     10  O   UNL     1       0.619   8.023  21.470  0.00  0.00    +0.000 OA
ATOM     11  N   UNL     1       1.504   8.830  19.485  0.00  0.00    +0.000 N 
ATOM     12  C   UNL     1       0.889  10.129  19.672  0.00  0.00    +0.000 C 
ATOM     13  C   UNL     1       2.263   8.673  18.324  0.00  0.00    +0.000 A 
ATOM     14  O   UNL     1       2.379   9.613  17.530  0.00  0.00    +0.000 OA
ATOM     15  N   UNL     1       2.882   7.431  18.091  0.00  0.00    +0.000 N 
ATOM     16  C   UNL     1       3.652   7.335  16.873  0.00  0.00    +0.000 C 
ATOM     17  C   UNL     1       2.731   6.383  19.012  0.00  0.00    +0.000 A 
ATOM     18  C   UNL     1       3.202   5.063  19.075  0.00  0.00    +0.000 A 
ENDROOT
TORSDOF 0
ENDMDL
MODEL 6
REMARK VINA RESULT:      -6.0      2.787      5.343
REMARK  Name = 
REMARK  3 active torsions:
REMARK  status: ('A' for Active; 'I' for Inactive)
REMARK    1  A    between atoms: C_1  and  C_2
REMARK    2  A    between atoms: N_11  and  C_12
REMARK    3  A    between atoms: N_15  and  C_16
REMARK                            x       y       z     vdW  Elec       q    Type
REMARK                         _______ _______ _______ _____ _____    ______ ____
ROOT
ATOM      1  C   UNL     1       4.017   3.272  19.484  0.00  0.00    +0.000 C 
ATOM      2  C   UNL     1       4.330   4.184  18.328  0.00  0.00    +0.000 A 
ATOM      3  C   UNL     1       5.155   3.653  17.404  0.00  0.00    +0.000 A 
ATOM      4  C   UNL     1       5.534   4.444  16.227  0.00  0.00    +0.000 A 
ATOM      5  N   UNL     1       5.145   5.645  15.976  0.00  0.00    +0.000 NA
ATOM      6  N   UNL     1       4.316   6.150  16.925  0.00  0.00    +0.000 N 
ATOM      7  C   UNL     1       3.807   7.408  16.823  0.00  0.00    +0.000 A 
ATOM      8  C   UNL     1       3.014   7.638  17.914  0.00  0.00    +0.000 A 
ATOM      9  C   UNL     1       2.273   8.829  18.228  0.00  0.00    +0.000 A 
ATOM     10  O   UNL     1       2.282   9.815  17.497  0.00  0.00    +0.000 OA
ATOM     11  N   UNL     1       1.564   8.736  19.419  0.00  0.00    +0.000 N 
ATOM     12  C   UNL     1       0.780   9.880  19.838  0.00  0.00    +0.000 C 
ATOM     13  C   UNL     1       1.535   7.629  20.269  0.00  0.00    +0.000 A 
ATOM     14  O   UNL     1       0.864   7.665  21.307  0.00  0.00    +0.000 OA
ATOM     15  N   UNL     1       2.280   6.490  19.912  0.00  0.00    +0.000 N 
ATOM     16  C   UNL     1       2.206   5.381  20.834  0.00  0.00    +0.000 C 
ATOM     17  C   UNL     1       3.031   6.480  18.726  0.00  0.00    +0.000 A 
ATOM     18  C   UNL     1       3.856   5.534  18.101  0.00  0.00    +0.000 A 
ENDROOT
TORSDOF 0
ENDMDL
MODEL 7
REMARK VINA RESULT:      -5.7      2.808      4.491
REMARK  Name = 
REMARK  3 active torsions:
REMARK  status: ('A' for Active; 'I' for Inactive)
REMARK    1  A    between atoms: C_1  and  C_2
REMARK    2  A    between atoms: N_11  and  C_12
REMARK    3  A    between atoms: N_15  and  C_16
REMARK                            x       y       z     vdW  Elec       q    Type
REMARK                         _______ _______ _______ _____ _____    ______ ____
ROOT
ATOM      1  C   UNL     1       2.540   9.268  17.678  0.00  0.00    +0.000 C 
ATOM      2  C   UNL     1       1.869   8.748  18.921  0.00  0.00    +0.000 A 
ATOM      3  C   UNL     1       1.046   9.630  19.523  0.00  0.00    +0.000 A 
ATOM      4  C   UNL     1       0.332   9.241  20.745  0.00  0.00    +0.000 A 
ATOM      5  N   UNL     1       0.415   8.097  21.328  0.00  0.00    +0.000 NA
ATOM      6  N   UNL     1       1.251   7.233  20.698  0.00  0.00    +0.000 N 
ATOM      7  C   UNL     1       1.461   5.976  21.176  0.00  0.00    +0.000 A 
ATOM      8  C   UNL     1       2.342   5.343  20.342  0.00  0.00    +0.000 A 
ATOM      9  C   UNL     1       2.853   4.004  20.452  0.00  0.00    +0.000 A 
ATOM     10  O   UNL     1       2.522   3.253  21.366  0.00  0.00    +0.000 OA
ATOM     11  N   UNL     1       3.736   3.668  19.435  0.00  0.00    +0.000 N 
ATOM     12  C   UNL     1       4.316   2.340  19.445  0.00  0.00    +0.000 C 
ATOM     13  C   UNL     1       4.130   4.500  18.385  0.00  0.00    +0.000 A 
ATOM     14  O   UNL     1       4.927   4.087  17.535  0.00  0.00    +0.000 OA
ATOM     15  N   UNL     1       3.599   5.802  18.327  0.00  0.00    +0.000 N 
ATOM     16  C   UNL     1       4.047   6.610  17.217  0.00  0.00    +0.000 C 
ATOM     17  C   UNL     1       2.695   6.241  19.307  0.00  0.00    +0.000 A 
ATOM     18  C   UNL     1       2.005   7.441  19.530  0.00  0.00    +0.000 A 
ENDROOT
TORSDOF 0
ENDMDL
MODEL 8
REMARK VINA RESULT:      -5.5      2.294      5.706
REMARK  Name = 
REMARK  3 active torsions:
REMARK  status: ('A' for Active; 'I' for Inactive)
REMARK    1  A    between atoms: C_1  and  C_2
REMARK    2  A    between atoms: N_11  and  C_12
REMARK    3  A    between atoms: N_15  and  C_16
REMARK                            x       y       z     vdW  Elec       q    Type
REMARK                         _______ _______ _______ _____ _____    ______ ____
ROOT
ATOM      1  C   UNL     1       5.453   3.309  15.568  0.00  0.00    +0.000 C 
ATOM      2  C   UNL     1       5.046   4.646  16.129  0.00  0.00    +0.000 A 
ATOM      3  C   UNL     1       5.545   5.707  15.463  0.00  0.00    +0.000 A 
ATOM      4  C   UNL     1       5.219   7.065  15.913  0.00  0.00    +0.000 A 
ATOM      5  N   UNL     1       4.476   7.362  16.921  0.00  0.00    +0.000 NA
ATOM      6  N   UNL     1       3.991   6.273  17.569  0.00  0.00    +0.000 N 
ATOM      7  C   UNL     1       3.186   6.398  18.659  0.00  0.00    +0.000 A 
ATOM      8  C   UNL     1       2.857   5.143  19.094  0.00  0.00    +0.000 A 
ATOM      9  C   UNL     1       2.027   4.788  20.214  0.00  0.00    +0.000 A 
ATOM     10  O   UNL     1       1.502   5.635  20.930  0.00  0.00    +0.000 OA
ATOM     11  N   UNL     1       1.893   3.416  20.384  0.00  0.00    +0.000 N 
ATOM     12  C   UNL     1       1.078   2.942  21.484  0.00  0.00    +0.000 C 
ATOM     13  C   UNL     1       2.478   2.432  19.586  0.00  0.00    +0.000 A 
ATOM     14  O   UNL     1       2.285   1.237  19.838  0.00  0.00    +0.000 OA
ATOM     15  N   UNL     1       3.281   2.836  18.503  0.00  0.00    +0.000 N 
ATOM     16  C   UNL     1       3.856   1.768  17.719  0.00  0.00    +0.000 C 
ATOM     17  C   UNL     1       3.481   4.201  18.243  0.00  0.00    +0.000 A 
ATOM     18  C   UNL     1       4.200   4.915  17.274  0.00  0.00    +0.000 A 
ENDROOT
TORSDOF 0
ENDMDL
MODEL 9
REMARK VINA RESULT:      -5.5      2.202      4.337
REMARK  Name = 
REMARK  3 active torsions:
REMARK  status: ('A' for Active; 'I' for Inactive)
REMARK    1  A    between atoms: C_1  and  C_2
REMARK    2  A    between atoms: N_11  and  C_12
REMARK    3  A    between atoms: N_15  and  C_16
REMARK                            x       y       z     vdW  Elec       q    Type
REMARK                         _______ _______ _______ _____ _____    ______ ____
ROOT
ATOM      1  C   UNL     1       0.965   7.273  21.379  0.00  0.00    +0.000 C 
ATOM      2  C   UNL     1       1.358   8.125  20.202  0.00  0.00    +0.000 A 
ATOM      3  C   UNL     1       0.779   9.342  20.174  0.00  0.00    +0.000 A 
ATOM      4  C   UNL     1       1.083  10.267  19.076  0.00  0.00    +0.000 A 
ATOM      5  N   UNL     1       1.878  10.026  18.093  0.00  0.00    +0.000 NA
ATOM      6  N   UNL     1       2.443   8.794  18.150  0.00  0.00    +0.000 N 
ATOM      7  C   UNL     1       3.311   8.369  17.192  0.00  0.00    +0.000 A 
ATOM      8  C   UNL     1       3.713   7.101  17.512  0.00  0.00    +0.000 A 
ATOM      9  C   UNL     1       4.626   6.258  16.788  0.00  0.00    +0.000 A 
ATOM     10  O   UNL     1       5.165   6.622  15.747  0.00  0.00    +0.000 OA
ATOM     11  N   UNL     1       4.821   5.020  17.387  0.00  0.00    +0.000 N 
ATOM     12  C   UNL     1       5.721   4.085  16.743  0.00  0.00    +0.000 C 
ATOM     13  C   UNL     1       4.222   4.579  18.569  0.00  0.00    +0.000 A 
ATOM     14  O   UNL     1       4.475   3.450  19.006  0.00  0.00    +0.000 OA
ATOM     15  N   UNL     1       3.337   5.446  19.235  0.00  0.00    +0.000 N 
ATOM     16  C   UNL     1       2.753   4.929  20.451  0.00  0.00    +0.000 C 
ATOM     17  C   UNL     1       3.071   6.722  18.714  0.00  0.00    +0.000 A 
ATOM     18  C   UNL     1       2.265   7.795  19.122  0.00  0.00    +0.000 A 
ENDROOT
TORSDOF 0
ENDMDL
