MODEL 1
REMARK VINA RESULT:      -8.7      0.000      0.000
REMARK  Name = 
REMARK  5 active torsions:
REMARK  status: ('A' for Active; 'I' for Inactive)
REMARK    1  A    between atoms: C_1  and  C_2
REMARK    2  A    between atoms: C_2  and  N_3
REMARK    3  A    between atoms: C_9  and  C_10
REMARK    4  A    between atoms: C_13  and  N_14
REMARK    5  A    between atoms: C_15  and  C_17
REMARK                            x       y       z     vdW  Elec       q    Type
REMARK                         _______ _______ _______ _____ _____    ______ ____
ROOT
ATOM      1  N   UNL     1      -5.323  14.277  22.163  0.00  0.00    +0.000 NA
ATOM      2  C   UNL     1      -4.241  14.527  21.182  0.00  0.00    +0.000 C 
ATOM      3  C   UNL     1      -2.800  14.308  21.691  0.00  0.00    +0.000 C 
ATOM      4  N   UNL     1      -2.638  13.063  22.452  0.00  0.00    +0.000 N 
ATOM      5  C   UNL     1      -1.782  12.086  21.967  0.00  0.00    +0.000 A 
ATOM      6  C   UNL     1      -1.185  11.204  22.863  0.00  0.00    +0.000 A 
ATOM      7  C   UNL     1      -0.288  10.235  22.415  0.00  0.00    +0.000 A 
ATOM      8  C   UNL     1       0.364   9.314  23.411  0.00  0.00    +0.000 C 
ATOM      9  C   UNL     1      -0.017  10.170  21.038  0.00  0.00    +0.000 A 
ATOM     10  C   UNL     1       0.866   9.218  20.492  0.00  0.00    +0.000 A 
ATOM     11  C   UNL     1       1.142   9.152  19.130  0.00  0.00    +0.000 A 
ATOM     12  C   UNL     1       0.516  10.071  18.291  0.00  0.00    +0.000 A 
ATOM     13  C   UNL     1      -0.366  11.027  18.826  0.00  0.00    +0.000 A 
ATOM     14  C   UNL     1      -0.648  11.096  20.189  0.00  0.00    +0.000 A 
ATOM     15  N   UNL     1      -1.499  12.034  20.648  0.00  0.00    +0.000 NA
ATOM     16  C   UNL     1      -3.739  12.650  23.332  0.00  0.00    +0.000 C 
ATOM     17  C   UNL     1      -5.122  12.904  22.687  0.00  0.00    +0.000 C 
ENDROOT
BRANCH  11  18
ATOM     18  N   UNL     1       2.024   8.195  18.569  0.00  0.00    +0.000 N 
ATOM     19  C   UNL     1       2.373   6.983  19.139  0.00  0.00    +0.000 C 
ATOM     20  O   UNL     1       1.968   6.545  20.216  0.00  0.00    +0.000 OA
ATOM     21  H   UNL     1       2.455   8.445  17.686  0.00  0.00    +0.000 HD
BRANCH  19  22
ATOM     22  C   UNL     1       3.293   6.089  18.391  0.00  0.00    +0.000 A 
ATOM     23  C   UNL     1       4.605   6.581  18.230  0.00  0.00    +0.000 A 
ATOM     24  C   UNL     1       5.534   5.887  17.462  0.00  0.00    +0.000 A 
ATOM     25 BR   UNL     1       7.273   6.590  17.235  0.00  0.00    +0.000 Br
ATOM     26  C   UNL     1       5.179   4.694  16.849  0.00  0.00    +0.000 A 
ATOM     27  C   UNL     1       3.885   4.190  17.012  0.00  0.00    +0.000 A 
ATOM     28  C   UNL     1       2.937   4.882  17.780  0.00  0.00    +0.000 A 
ATOM     29 CL   UNL     1       1.355   4.196  17.866  0.00  0.00    +0.000 Cl
ENDBRANCH  19  22
ENDBRANCH  11  18
BRANCH   1  31
ATOM     30  C   UNL     1      -6.404  16.351  23.089  0.00  0.00    +0.000 C 
ATOM     31  C   UNL     1      -5.371  15.245  23.270  0.00  0.00    +0.000 C 
ENDBRANCH   1  31
TORSDOF 3
ENDMDL
MODEL 2
REMARK VINA RESULT:      -8.3      1.619      2.565
REMARK  Name = 
REMARK  5 active torsions:
REMARK  status: ('A' for Active; 'I' for Inactive)
REMARK    1  A    between atoms: C_1  and  C_2
REMARK    2  A    between atoms: C_2  and  N_3
REMARK    3  A    between atoms: C_9  and  C_10
REMARK    4  A    between atoms: C_13  and  N_14
REMARK    5  A    between atoms: C_15  and  C_17
REMARK                            x       y       z     vdW  Elec       q    Type
REMARK                         _______ _______ _______ _____ _____    ______ ____
ROOT
ATOM      1  N   UNL     1      -3.373  15.242  24.579  0.00  0.00    +0.000 NA
ATOM      2  C   UNL     1      -3.241  13.806  24.924  0.00  0.00    +0.000 C 
ATOM      3  C   UNL     1      -3.636  12.804  23.818  0.00  0.00    +0.000 C 
ATOM      4  N   UNL     1      -3.093  13.153  22.500  0.00  0.00    +0.000 N 
ATOM      5  C   UNL     1      -2.206  12.282  21.887  0.00  0.00    +0.000 A 
ATOM      6  C   UNL     1      -2.116  12.272  20.497  0.00  0.00    +0.000 A 
ATOM      7  C   UNL     1      -1.264  11.381  19.846  0.00  0.00    +0.000 A 
ATOM      8  C   UNL     1      -1.211  11.375  18.342  0.00  0.00    +0.000 C 
ATOM      9  C   UNL     1      -0.495  10.506  20.633  0.00  0.00    +0.000 A 
ATOM     10  C   UNL     1       0.400   9.580  20.065  0.00  0.00    +0.000 A 
ATOM     11  C   UNL     1       1.161   8.707  20.837  0.00  0.00    +0.000 A 
ATOM     12  C   UNL     1       1.016   8.765  22.222  0.00  0.00    +0.000 A 
ATOM     13  C   UNL     1       0.123   9.685  22.798  0.00  0.00    +0.000 A 
ATOM     14  C   UNL     1      -0.639  10.562  22.030  0.00  0.00    +0.000 A 
ATOM     15  N   UNL     1      -1.482  11.422  22.635  0.00  0.00    +0.000 NA
ATOM     16  C   UNL     1      -3.033  14.575  22.138  0.00  0.00    +0.000 C 
ATOM     17  C   UNL     1      -2.602  15.459  23.331  0.00  0.00    +0.000 C 
ENDROOT
BRANCH  11  18
ATOM     18  N   UNL     1       2.069   7.776  20.276  0.00  0.00    +0.000 N 
ATOM     19  C   UNL     1       1.915   6.400  20.265  0.00  0.00    +0.000 C 
ATOM     20  O   UNL     1       0.965   5.773  20.732  0.00  0.00    +0.000 OA
ATOM     21  H   UNL     1       2.918   8.161  19.878  0.00  0.00    +0.000 HD
BRANCH  19  22
ATOM     22  C   UNL     1       2.960   5.578  19.603  0.00  0.00    +0.000 A 
ATOM     23  C   UNL     1       3.581   6.183  18.491  0.00  0.00    +0.000 A 
ATOM     24  C   UNL     1       4.502   5.480  17.722  0.00  0.00    +0.000 A 
ATOM     25 BR   UNL     1       5.291   6.306  16.217  0.00  0.00    +0.000 Br
ATOM     26  C   UNL     1       4.826   4.170  18.048  0.00  0.00    +0.000 A 
ATOM     27  C   UNL     1       4.226   3.564  19.156  0.00  0.00    +0.000 A 
ATOM     28  C   UNL     1       3.291   4.260  19.936  0.00  0.00    +0.000 A 
ATOM     29 CL   UNL     1       2.573   3.394  21.246  0.00  0.00    +0.000 Cl
ENDBRANCH  19  22
ENDBRANCH  11  18
BRANCH   1  31
ATOM     30  C   UNL     1      -4.916  17.209  24.302  0.00  0.00    +0.000 C 
ATOM     31  C   UNL     1      -4.762  15.697  24.409  0.00  0.00    +0.000 C 
ENDBRANCH   1  31
TORSDOF 3
ENDMDL
MODEL 3
REMARK VINA RESULT:      -8.1      1.836      2.790
REMARK  Name = 
REMARK  5 active torsions:
REMARK  status: ('A' for Active; 'I' for Inactive)
REMARK    1  A    between atoms: C_1  and  C_2
REMARK    2  A    between atoms: C_2  and  N_3
REMARK    3  A    between atoms: C_9  and  C_10
REMARK    4  A    between atoms: C_13  and  N_14
REMARK    5  A    between atoms: C_15  and  C_17
REMARK                            x       y       z     vdW  Elec       q    Type
REMARK                         _______ _______ _______ _____ _____    ______ ____
ROOT
ATOM      1  N   UNL     1      -2.176  15.689  23.543  0.00  0.00    +0.000 NA
ATOM      2  C   UNL     1      -2.056  14.338  24.142  0.00  0.00    +0.000 C 
ATOM      3  C   UNL     1      -2.646  13.175  23.316  0.00  0.00    +0.000 C 
ATOM      4  N   UNL     1      -2.282  13.231  21.895  0.00  0.00    +0.000 N 
ATOM      5  C   UNL     1      -1.529  12.201  21.355  0.00  0.00    +0.000 A 
ATOM      6  C   UNL     1      -1.638  11.923  19.994  0.00  0.00    +0.000 A 
ATOM      7  C   UNL     1      -0.926  10.869  19.425  0.00  0.00    +0.000 A 
ATOM      8  C   UNL     1      -1.087  10.575  17.958  0.00  0.00    +0.000 C 
ATOM      9  C   UNL     1      -0.090  10.107  20.260  0.00  0.00    +0.000 A 
ATOM     10  C   UNL     1       0.676   9.031  19.772  0.00  0.00    +0.000 A 
ATOM     11  C   UNL     1       1.501   8.269  20.594  0.00  0.00    +0.000 A 
ATOM     12  C   UNL     1       1.557   8.597  21.947  0.00  0.00    +0.000 A 
ATOM     13  C   UNL     1       0.794   9.669  22.444  0.00  0.00    +0.000 A 
ATOM     14  C   UNL     1      -0.032  10.435  21.625  0.00  0.00    +0.000 A 
ATOM     15  N   UNL     1      -0.743  11.450  22.155  0.00  0.00    +0.000 NA
ATOM     16  C   UNL     1      -2.215  14.551  21.256  0.00  0.00    +0.000 C 
ATOM     17  C   UNL     1      -1.582  15.613  22.186  0.00  0.00    +0.000 C 
ENDROOT
BRANCH  11  18
ATOM     18  N   UNL     1       2.280   7.189  20.113  0.00  0.00    +0.000 N 
ATOM     19  C   UNL     1       1.967   5.846  20.235  0.00  0.00    +0.000 C 
ATOM     20  O   UNL     1       0.962   5.382  20.774  0.00  0.00    +0.000 OA
ATOM     21  H   UNL     1       3.158   7.432  19.668  0.00  0.00    +0.000 HD
BRANCH  19  22
ATOM     22  C   UNL     1       2.892   4.847  19.641  0.00  0.00    +0.000 A 
ATOM     23  C   UNL     1       3.522   5.253  18.447  0.00  0.00    +0.000 A 
ATOM     24  C   UNL     1       4.332   4.374  17.736  0.00  0.00    +0.000 A 
ATOM     25 BR   UNL     1       5.133   4.936  16.120  0.00  0.00    +0.000 Br
ATOM     26  C   UNL     1       4.534   3.083  18.203  0.00  0.00    +0.000 A 
ATOM     27  C   UNL     1       3.925   2.672  19.392  0.00  0.00    +0.000 A 
ATOM     28  C   UNL     1       3.102   3.548  20.115  0.00  0.00    +0.000 A 
ATOM     29 CL   UNL     1       2.358   2.918  21.540  0.00  0.00    +0.000 Cl
ENDBRANCH  19  22
ENDBRANCH  11  18
BRANCH   1  31
ATOM     30  C   UNL     1      -4.224  16.387  24.826  0.00  0.00    +0.000 C 
ATOM     31  C   UNL     1      -3.555  16.198  23.470  0.00  0.00    +0.000 C 
ENDBRANCH   1  31
TORSDOF 3
ENDMDL
MODEL 4
REMARK VINA RESULT:      -8.1      1.436      2.345
REMARK  Name = 
REMARK  5 active torsions:
REMARK  status: ('A' for Active; 'I' for Inactive)
REMARK    1  A    between atoms: C_1  and  C_2
REMARK    2  A    between atoms: C_2  and  N_3
REMARK    3  A    between atoms: C_9  and  C_10
REMARK    4  A    between atoms: C_13  and  N_14
REMARK    5  A    between atoms: C_15  and  C_17
REMARK                            x       y       z     vdW  Elec       q    Type
REMARK                         _______ _______ _______ _____ _____    ______ ____
ROOT
ATOM      1  N   UNL     1      -3.132  14.434  24.766  0.00  0.00    +0.000 NA
ATOM      2  C   UNL     1      -3.429  13.033  24.385  0.00  0.00    +0.000 C 
ATOM      3  C   UNL     1      -3.437  12.729  22.871  0.00  0.00    +0.000 C 
ATOM      4  N   UNL     1      -2.296  13.313  22.158  0.00  0.00    +0.000 N 
ATOM      5  C   UNL     1      -1.395  12.467  21.528  0.00  0.00    +0.000 A 
ATOM      6  C   UNL     1      -0.677  12.938  20.432  0.00  0.00    +0.000 A 
ATOM      7  C   UNL     1       0.208  12.103  19.750  0.00  0.00    +0.000 A 
ATOM      8  C   UNL     1       0.948  12.631  18.551  0.00  0.00    +0.000 C 
ATOM      9  C   UNL     1       0.359  10.783  20.209  0.00  0.00    +0.000 A 
ATOM     10  C   UNL     1       1.237   9.871  19.592  0.00  0.00    +0.000 A 
ATOM     11  C   UNL     1       1.389   8.562  20.039  0.00  0.00    +0.000 A 
ATOM     12  C   UNL     1       0.633   8.155  21.136  0.00  0.00    +0.000 A 
ATOM     13  C   UNL     1      -0.248   9.057  21.758  0.00  0.00    +0.000 A 
ATOM     14  C   UNL     1      -0.401  10.370  21.317  0.00  0.00    +0.000 A 
ATOM     15  N   UNL     1      -1.262  11.191  21.949  0.00  0.00    +0.000 NA
ATOM     16  C   UNL     1      -1.826  14.638  22.581  0.00  0.00    +0.000 C 
ATOM     17  C   UNL     1      -1.847  14.795  24.120  0.00  0.00    +0.000 C 
ENDROOT
BRANCH  11  18
ATOM     18  N   UNL     1       2.273   7.639  19.429  0.00  0.00    +0.000 N 
ATOM     19  C   UNL     1       2.390   6.297  19.748  0.00  0.00    +0.000 C 
ATOM     20  O   UNL     1       1.741   5.696  20.604  0.00  0.00    +0.000 OA
ATOM     21  H   UNL     1       2.892   8.013  18.718  0.00  0.00    +0.000 HD
BRANCH  19  22
ATOM     22  C   UNL     1       3.355   5.470  18.980  0.00  0.00    +0.000 A 
ATOM     23  C   UNL     1       4.712   5.794  19.180  0.00  0.00    +0.000 A 
ATOM     24  C   UNL     1       5.710   5.163  18.444  0.00  0.00    +0.000 A 
ATOM     25 BR   UNL     1       7.518   5.646  18.709  0.00  0.00    +0.000 Br
ATOM     26  C   UNL     1       5.376   4.198  17.504  0.00  0.00    +0.000 A 
ATOM     27  C   UNL     1       4.035   3.859  17.306  0.00  0.00    +0.000 A 
ATOM     28  C   UNL     1       3.019   4.491  18.038  0.00  0.00    +0.000 A 
ATOM     29 CL   UNL     1       1.396   4.033  17.671  0.00  0.00    +0.000 Cl
ENDBRANCH  19  22
ENDBRANCH  11  18
BRANCH   1  31
ATOM     30  C   UNL     1      -3.989  16.789  24.983  0.00  0.00    +0.000 C 
ATOM     31  C   UNL     1      -4.181  15.396  24.394  0.00  0.00    +0.000 C 
ENDBRANCH   1  31
TORSDOF 3
ENDMDL
MODEL 5
REMARK VINA RESULT:      -8.0      1.461      2.502
REMARK  Name = 
REMARK  5 active torsions:
REMARK  status: ('A' for Active; 'I' for Inactive)
REMARK    1  A    between atoms: C_1  and  C_2
REMARK    2  A    between atoms: C_2  and  N_3
REMARK    3  A    between atoms: C_9  and  C_10
REMARK    4  A    between atoms: C_13  and  N_14
REMARK    5  A    between atoms: C_15  and  C_17
REMARK                            x       y       z     vdW  Elec       q    Type
REMARK                         _______ _______ _______ _____ _____    ______ ____
ROOT
ATOM      1  N   UNL     1      -2.329  15.688  23.950  0.00  0.00    +0.000 NA
ATOM      2  C   UNL     1      -2.258  14.300  24.465  0.00  0.00    +0.000 C 
ATOM      3  C   UNL     1      -2.831  13.204  23.540  0.00  0.00    +0.000 C 
ATOM      4  N   UNL     1      -2.405  13.345  22.143  0.00  0.00    +0.000 N 
ATOM      5  C   UNL     1      -1.646  12.337  21.568  0.00  0.00    +0.000 A 
ATOM      6  C   UNL     1      -1.701  12.150  20.189  0.00  0.00    +0.000 A 
ATOM      7  C   UNL     1      -0.982  11.121  19.582  0.00  0.00    +0.000 A 
ATOM      8  C   UNL     1      -1.085  10.926  18.094  0.00  0.00    +0.000 C 
ATOM      9  C   UNL     1      -0.197  10.290  20.400  0.00  0.00    +0.000 A 
ATOM     10  C   UNL     1       0.571   9.233  19.876  0.00  0.00    +0.000 A 
ATOM     11  C   UNL     1       1.348   8.404  20.680  0.00  0.00    +0.000 A 
ATOM     12  C   UNL     1       1.350   8.643  22.053  0.00  0.00    +0.000 A 
ATOM     13  C   UNL     1       0.585   9.694  22.586  0.00  0.00    +0.000 A 
ATOM     14  C   UNL     1      -0.192  10.529  21.785  0.00  0.00    +0.000 A 
ATOM     15  N   UNL     1      -0.908  11.521  22.350  0.00  0.00    +0.000 NA
ATOM     16  C   UNL     1      -2.288  14.702  21.595  0.00  0.00    +0.000 C 
ATOM     17  C   UNL     1      -1.678  15.689  22.618  0.00  0.00    +0.000 C 
ENDROOT
BRANCH  11  18
ATOM     18  N   UNL     1       2.128   7.342  20.163  0.00  0.00    +0.000 N 
ATOM     19  C   UNL     1       2.427   7.130  18.828  0.00  0.00    +0.000 C 
ATOM     20  O   UNL     1       2.068   7.835  17.884  0.00  0.00    +0.000 OA
ATOM     21  H   UNL     1       2.468   6.664  20.837  0.00  0.00    +0.000 HD
BRANCH  19  22
ATOM     22  C   UNL     1       3.288   5.975  18.470  0.00  0.00    +0.000 A 
ATOM     23  C   UNL     1       4.548   6.313  17.934  0.00  0.00    +0.000 A 
ATOM     24  C   UNL     1       5.408   5.325  17.464  0.00  0.00    +0.000 A 
ATOM     25 BR   UNL     1       7.074   5.812  16.718  0.00  0.00    +0.000 Br
ATOM     26  C   UNL     1       5.035   3.990  17.527  0.00  0.00    +0.000 A 
ATOM     27  C   UNL     1       3.794   3.642  18.068  0.00  0.00    +0.000 A 
ATOM     28  C   UNL     1       2.915   4.628  18.540  0.00  0.00    +0.000 A 
ATOM     29 CL   UNL     1       1.388   4.088  19.136  0.00  0.00    +0.000 Cl
ENDBRANCH  19  22
ENDBRANCH  11  18
BRANCH   1  31
ATOM     30  C   UNL     1      -4.207  16.868  25.138  0.00  0.00    +0.000 C 
ATOM     31  C   UNL     1      -3.694  16.228  23.853  0.00  0.00    +0.000 C 
ENDBRANCH   1  31
TORSDOF 3
ENDMDL
MODEL 6
REMARK VINA RESULT:      -8.0      4.325     10.541
REMARK  Name = 
REMARK  5 active torsions:
REMARK  status: ('A' for Active; 'I' for Inactive)
REMARK    1  A    between atoms: C_1  and  C_2
REMARK    2  A    between atoms: C_2  and  N_3
REMARK    3  A    between atoms: C_9  and  C_10
REMARK    4  A    between atoms: C_13  and  N_14
REMARK    5  A    between atoms: C_15  and  C_17
REMARK                            x       y       z     vdW  Elec       q    Type
REMARK                         _______ _______ _______ _____ _____    ______ ____
ROOT
ATOM      1  N   UNL     1       2.274   3.197  18.975  0.00  0.00    +0.000 NA
ATOM      2  C   UNL     1       2.468   3.882  20.275  0.00  0.00    +0.000 C 
ATOM      3  C   UNL     1       3.169   5.257  20.219  0.00  0.00    +0.000 C 
ATOM      4  N   UNL     1       2.652   6.128  19.158  0.00  0.00    +0.000 N 
ATOM      5  C   UNL     1       2.046   7.325  19.508  0.00  0.00    +0.000 A 
ATOM      6  C   UNL     1       2.058   8.381  18.600  0.00  0.00    +0.000 A 
ATOM      7  C   UNL     1       1.495   9.611  18.934  0.00  0.00    +0.000 A 
ATOM      8  C   UNL     1       1.549  10.743  17.943  0.00  0.00    +0.000 C 
ATOM      9  C   UNL     1       0.907   9.748  20.203  0.00  0.00    +0.000 A 
ATOM     10  C   UNL     1       0.303  10.948  20.624  0.00  0.00    +0.000 A 
ATOM     11  C   UNL     1      -0.276  11.091  21.882  0.00  0.00    +0.000 A 
ATOM     12  C   UNL     1      -0.246   9.996  22.743  0.00  0.00    +0.000 A 
ATOM     13  C   UNL     1       0.356   8.794  22.332  0.00  0.00    +0.000 A 
ATOM     14  C   UNL     1       0.935   8.645  21.074  0.00  0.00    +0.000 A 
ATOM     15  N   UNL     1       1.501   7.470  20.734  0.00  0.00    +0.000 NA
ATOM     16  C   UNL     1       2.276   5.505  17.882  0.00  0.00    +0.000 C 
ATOM     17  C   UNL     1       1.562   4.149  18.088  0.00  0.00    +0.000 C 
ENDROOT
BRANCH  11  18
ATOM     18  N   UNL     1      -0.891  12.292  22.313  0.00  0.00    +0.000 N 
ATOM     19  C   UNL     1      -2.051  12.386  23.062  0.00  0.00    +0.000 C 
ATOM     20  O   UNL     1      -2.724  11.442  23.477  0.00  0.00    +0.000 OA
ATOM     21  H   UNL     1      -0.449  13.155  22.014  0.00  0.00    +0.000 HD
BRANCH  19  22
ATOM     22  C   UNL     1      -2.535  13.735  23.450  0.00  0.00    +0.000 A 
ATOM     23  C   UNL     1      -1.753  14.394  24.420  0.00  0.00    +0.000 A 
ATOM     24  C   UNL     1      -2.154  15.619  24.943  0.00  0.00    +0.000 A 
ATOM     25 BR   UNL     1      -1.102  16.461  26.269  0.00  0.00    +0.000 Br
ATOM     26  C   UNL     1      -3.331  16.210  24.508  0.00  0.00    +0.000 A 
ATOM     27  C   UNL     1      -4.109  15.572  23.537  0.00  0.00    +0.000 A 
ATOM     28  C   UNL     1      -3.719  14.334  23.006  0.00  0.00    +0.000 A 
ATOM     29 CL   UNL     1      -4.783  13.612  21.855  0.00  0.00    +0.000 Cl
ENDBRANCH  19  22
ENDBRANCH  11  18
BRANCH   1  31
ATOM     30  C   UNL     1       3.789   1.248  18.494  0.00  0.00    +0.000 C 
ATOM     31  C   UNL     1       3.520   2.740  18.341  0.00  0.00    +0.000 C 
ENDBRANCH   1  31
TORSDOF 3
ENDMDL
MODEL 7
REMARK VINA RESULT:      -7.9      1.609      2.412
REMARK  Name = 
REMARK  5 active torsions:
REMARK  status: ('A' for Active; 'I' for Inactive)
REMARK    1  A    between atoms: C_1  and  C_2
REMARK    2  A    between atoms: C_2  and  N_3
REMARK    3  A    between atoms: C_9  and  C_10
REMARK    4  A    between atoms: C_13  and  N_14
REMARK    5  A    between atoms: C_15  and  C_17
REMARK                            x       y       z     vdW  Elec       q    Type
REMARK                         _______ _______ _______ _____ _____    ______ ____
ROOT
ATOM      1  N   UNL     1      -2.818  15.029  24.714  0.00  0.00    +0.000 NA
ATOM      2  C   UNL     1      -3.296  13.710  24.237  0.00  0.00    +0.000 C 
ATOM      3  C   UNL     1      -3.102  13.421  22.733  0.00  0.00    +0.000 C 
ATOM      4  N   UNL     1      -1.768  13.785  22.242  0.00  0.00    +0.000 N 
ATOM      5  C   UNL     1      -0.943  12.789  21.741  0.00  0.00    +0.000 A 
ATOM      6  C   UNL     1       0.026  13.124  20.798  0.00  0.00    +0.000 A 
ATOM      7  C   UNL     1       0.846  12.142  20.244  0.00  0.00    +0.000 A 
ATOM      8  C   UNL     1       1.864  12.529  19.205  0.00  0.00    +0.000 C 
ATOM      9  C   UNL     1       0.673  10.815  20.673  0.00  0.00    +0.000 A 
ATOM     10  C   UNL     1       1.462   9.758  20.178  0.00  0.00    +0.000 A 
ATOM     11  C   UNL     1       1.292   8.441  20.595  0.00  0.00    +0.000 A 
ATOM     12  C   UNL     1       0.298   8.177  21.535  0.00  0.00    +0.000 A 
ATOM     13  C   UNL     1      -0.495   9.225  22.034  0.00  0.00    +0.000 A 
ATOM     14  C   UNL     1      -0.328  10.545  21.622  0.00  0.00    +0.000 A 
ATOM     15  N   UNL     1      -1.119  11.509  22.131  0.00  0.00    +0.000 NA
ATOM     16  C   UNL     1      -1.143  14.997  22.787  0.00  0.00    +0.000 C 
ATOM     17  C   UNL     1      -1.398  15.148  24.305  0.00  0.00    +0.000 C 
ENDROOT
BRANCH  11  18
ATOM     18  N   UNL     1       2.083   7.373  20.108  0.00  0.00    +0.000 N 
ATOM     19  C   UNL     1       2.409   7.143  18.782  0.00  0.00    +0.000 C 
ATOM     20  O   UNL     1       2.068   7.834  17.822  0.00  0.00    +0.000 OA
ATOM     21  H   UNL     1       2.410   6.705  20.798  0.00  0.00    +0.000 HD
BRANCH  19  22
ATOM     22  C   UNL     1       3.278   5.984  18.457  0.00  0.00    +0.000 A 
ATOM     23  C   UNL     1       4.552   6.315  17.952  0.00  0.00    +0.000 A 
ATOM     24  C   UNL     1       5.423   5.323  17.515  0.00  0.00    +0.000 A 
ATOM     25 BR   UNL     1       7.109   5.801  16.809  0.00  0.00    +0.000 Br
ATOM     26  C   UNL     1       5.046   3.989  17.579  0.00  0.00    +0.000 A 
ATOM     27  C   UNL     1       3.791   3.647  18.089  0.00  0.00    +0.000 A 
ATOM     28  C   UNL     1       2.901   4.638  18.528  0.00  0.00    +0.000 A 
ATOM     29 CL   UNL     1       1.357   4.105  19.088  0.00  0.00    +0.000 Cl
ENDBRANCH  19  22
ENDBRANCH  11  18
BRANCH   1  31
ATOM     30  C   UNL     1      -5.096  16.062  24.441  0.00  0.00    +0.000 C 
ATOM     31  C   UNL     1      -3.594  16.172  24.208  0.00  0.00    +0.000 C 
ENDBRANCH   1  31
TORSDOF 3
ENDMDL
MODEL 8
REMARK VINA RESULT:      -7.9      1.084      1.089
REMARK  Name = 
REMARK  5 active torsions:
REMARK  status: ('A' for Active; 'I' for Inactive)
REMARK    1  A    between atoms: C_1  and  C_2
REMARK    2  A    between atoms: C_2  and  N_3
REMARK    3  A    between atoms: C_9  and  C_10
REMARK    4  A    between atoms: C_13  and  N_14
REMARK    5  A    between atoms: C_15  and  C_17
REMARK                            x       y       z     vdW  Elec       q    Type
REMARK                         _______ _______ _______ _____ _____    ______ ____
ROOT
ATOM      1  N   UNL     1      -5.440  14.324  21.374  0.00  0.00    +0.000 NA
ATOM      2  C   UNL     1      -4.292  14.472  20.449  0.00  0.00    +0.000 C 
ATOM      3  C   UNL     1      -2.890  14.307  21.075  0.00  0.00    +0.000 C 
ATOM      4  N   UNL     1      -2.789  13.149  21.971  0.00  0.00    +0.000 N 
ATOM      5  C   UNL     1      -1.908  12.128  21.650  0.00  0.00    +0.000 A 
ATOM      6  C   UNL     1      -1.379  11.344  22.672  0.00  0.00    +0.000 A 
ATOM      7  C   UNL     1      -0.460  10.334  22.389  0.00  0.00    +0.000 A 
ATOM      8  C   UNL     1       0.117   9.523  23.517  0.00  0.00    +0.000 C 
ATOM      9  C   UNL     1      -0.096  10.127  21.048  0.00  0.00    +0.000 A 
ATOM     10  C   UNL     1       0.816   9.124  20.665  0.00  0.00    +0.000 A 
ATOM     11  C   UNL     1       1.184   8.916  19.339  0.00  0.00    +0.000 A 
ATOM     12  C   UNL     1       0.622   9.743  18.369  0.00  0.00    +0.000 A 
ATOM     13  C   UNL     1      -0.287  10.748  18.740  0.00  0.00    +0.000 A 
ATOM     14  C   UNL     1      -0.661  10.958  20.066  0.00  0.00    +0.000 A 
ATOM     15  N   UNL     1      -1.536  11.939  20.366  0.00  0.00    +0.000 NA
ATOM     16  C   UNL     1      -3.949  12.829  22.811  0.00  0.00    +0.000 C 
ATOM     17  C   UNL     1      -5.284  13.014  22.051  0.00  0.00    +0.000 C 
ENDROOT
BRANCH  11  18
ATOM     18  N   UNL     1       2.096   7.907  18.943  0.00  0.00    +0.000 N 
ATOM     19  C   UNL     1       2.323   6.714  19.607  0.00  0.00    +0.000 C 
ATOM     20  O   UNL     1       1.765   6.341  20.639  0.00  0.00    +0.000 OA
ATOM     21  H   UNL     1       2.647   8.101  18.115  0.00  0.00    +0.000 HD
BRANCH  19  22
ATOM     22  C   UNL     1       3.299   5.757  19.027  0.00  0.00    +0.000 A 
ATOM     23  C   UNL     1       3.926   6.189  17.840  0.00  0.00    +0.000 A 
ATOM     24  C   UNL     1       4.784   5.345  17.142  0.00  0.00    +0.000 A 
ATOM     25 BR   UNL     1       5.581   5.940  15.535  0.00  0.00    +0.000 Br
ATOM     26  C   UNL     1       5.038   4.065  17.614  0.00  0.00    +0.000 A 
ATOM     27  C   UNL     1       4.432   3.630  18.797  0.00  0.00    +0.000 A 
ATOM     28  C   UNL     1       3.561   4.469  19.507  0.00  0.00    +0.000 A 
ATOM     29 CL   UNL     1       2.827   3.808  20.923  0.00  0.00    +0.000 Cl
ENDBRANCH  19  22
ENDBRANCH  11  18
BRANCH   1  31
ATOM     30  C   UNL     1      -5.977  16.747  21.787  0.00  0.00    +0.000 C 
ATOM     31  C   UNL     1      -5.557  15.402  22.368  0.00  0.00    +0.000 C 
ENDBRANCH   1  31
TORSDOF 3
ENDMDL
MODEL 9
REMARK VINA RESULT:      -7.8      4.271     10.465
REMARK  Name = 
REMARK  5 active torsions:
REMARK  status: ('A' for Active; 'I' for Inactive)
REMARK    1  A    between atoms: C_1  and  C_2
REMARK    2  A    between atoms: C_2  and  N_3
REMARK    3  A    between atoms: C_9  and  C_10
REMARK    4  A    between atoms: C_13  and  N_14
REMARK    5  A    between atoms: C_15  and  C_17
REMARK                            x       y       z     vdW  Elec       q    Type
REMARK                         _______ _______ _______ _____ _____    ______ ____
ROOT
ATOM      1  N   UNL     1       2.120   3.145  18.932  0.00  0.00    +0.000 NA
ATOM      2  C   UNL     1       2.244   3.750  20.279  0.00  0.00    +0.000 C 
ATOM      3  C   UNL     1       2.976   5.107  20.349  0.00  0.00    +0.000 C 
ATOM      4  N   UNL     1       2.546   6.050  19.309  0.00  0.00    +0.000 N 
ATOM      5  C   UNL     1       1.945   7.240  19.690  0.00  0.00    +0.000 A 
ATOM      6  C   UNL     1       2.038   8.345  18.848  0.00  0.00    +0.000 A 
ATOM      7  C   UNL     1       1.480   9.568  19.217  0.00  0.00    +0.000 A 
ATOM      8  C   UNL     1       1.622  10.753  18.300  0.00  0.00    +0.000 C 
ATOM      9  C   UNL     1       0.814   9.646  20.453  0.00  0.00    +0.000 A 
ATOM     10  C   UNL     1       0.210  10.835  20.905  0.00  0.00    +0.000 A 
ATOM     11  C   UNL     1      -0.446  10.921  22.129  0.00  0.00    +0.000 A 
ATOM     12  C   UNL     1      -0.494   9.778  22.925  0.00  0.00    +0.000 A 
ATOM     13  C   UNL     1       0.107   8.586  22.483  0.00  0.00    +0.000 A 
ATOM     14  C   UNL     1       0.763   8.495  21.258  0.00  0.00    +0.000 A 
ATOM     15  N   UNL     1       1.325   7.328  20.886  0.00  0.00    +0.000 NA
ATOM     16  C   UNL     1       2.241   5.511  17.978  0.00  0.00    +0.000 C 
ATOM     17  C   UNL     1       1.487   4.163  18.058  0.00  0.00    +0.000 C 
ENDROOT
BRANCH  11  18
ATOM     18  N   UNL     1      -1.062  12.110  22.590  0.00  0.00    +0.000 N 
ATOM     19  C   UNL     1      -2.181  12.710  22.039  0.00  0.00    +0.000 C 
ATOM     20  O   UNL     1      -2.819  12.301  21.069  0.00  0.00    +0.000 OA
ATOM     21  H   UNL     1      -0.616  12.570  23.376  0.00  0.00    +0.000 HD
BRANCH  19  22
ATOM     22  C   UNL     1      -2.708  13.943  22.676  0.00  0.00    +0.000 A 
ATOM     23  C   UNL     1      -2.251  15.151  22.108  0.00  0.00    +0.000 A 
ATOM     24  C   UNL     1      -2.589  16.375  22.675  0.00  0.00    +0.000 A 
ATOM     25 BR   UNL     1      -1.932  17.974  21.912  0.00  0.00    +0.000 Br
ATOM     26  C   UNL     1      -3.389  16.420  23.808  0.00  0.00    +0.000 A 
ATOM     27  C   UNL     1      -3.858  15.231  24.373  0.00  0.00    +0.000 A 
ATOM     28  C   UNL     1      -3.520  13.989  23.814  0.00  0.00    +0.000 A 
ATOM     29 CL   UNL     1      -4.109  12.584  24.626  0.00  0.00    +0.000 Cl
ENDBRANCH  19  22
ENDBRANCH  11  18
BRANCH   1  31
ATOM     30  C   UNL     1       4.182   1.738  19.239  0.00  0.00    +0.000 C 
ATOM     31  C   UNL     1       3.394   2.694  18.352  0.00  0.00    +0.000 C 
ENDBRANCH   1  31
TORSDOF 3
ENDMDL
