MODEL 1
REMARK VINA RESULT:      -6.8      0.000      0.000
REMARK  Name = 
REMARK  6 active torsions:
REMARK  status: ('A' for Active; 'I' for Inactive)
REMARK    1  A    between atoms: C_1  and  C_2
REMARK    2  A    between atoms: C_2  and  C_3
REMARK    3  A    between atoms: C_3  and  C_4
REMARK    4  A    between atoms: C_12  and  S_13
REMARK    5  A    between atoms: S_13  and  C_14
REMARK    6  A    between atoms: C_14  and  C_15
REMARK                            x       y       z     vdW  Elec       q    Type
REMARK                         _______ _______ _______ _____ _____    ______ ____
ROOT
ATOM      1  C   UNL     1       2.688   5.500  19.871  0.00  0.00    +0.000 A 
ATOM      2  C   UNL     1       1.716   4.863  20.564  0.00  0.00    +0.000 A 
ATOM      3  C   UNL     1       1.830   3.425  20.939  0.00  0.00    +0.000 A 
ATOM      4  O   UNL     1       0.916   2.871  21.538  0.00  0.00    +0.000 OA
ATOM      5  N   UNL     1       2.982   2.786  20.589  0.00  0.00    +0.000 N 
ATOM      6  C   UNL     1       3.976   3.439  19.912  0.00  0.00    +0.000 A 
ATOM      7  N   UNL     1       5.130   2.946  19.543  0.00  0.00    +0.000 NA
ATOM      8  N   UNL     1       5.792   3.931  18.870  0.00  0.00    +0.000 NA
ATOM      9  C   UNL     1       5.032   5.006  18.853  0.00  0.00    +0.000 A 
ATOM     10  N   UNL     1       3.845   4.772  19.529  0.00  0.00    +0.000 N 
ATOM     11  H   UNL     1       3.102   1.811  20.827  0.00  0.00    +0.000 HD
ENDROOT
BRANCH   1  12
ATOM     12  C   UNL     1       2.493   6.963  19.559  0.00  0.00    +0.000 C 
BRANCH  12  14
ATOM     13  C   UNL     1       1.980   8.686  17.786  0.00  0.00    +0.000 C 
ATOM     14  C   UNL     1       2.098   7.201  18.098  0.00  0.00    +0.000 C 
ENDBRANCH  12  14
ENDBRANCH   1  12
BRANCH   9  15
ATOM     15  S   UNL     1       5.459   6.375  17.897  0.00  0.00    +0.000 S 
BRANCH  15  16
ATOM     16  C   UNL     1       5.708   5.709  16.240  0.00  0.00    +0.000 C 
BRANCH  16  17
ATOM     17  C   UNL     1       7.070   5.187  15.821  0.00  0.00    +0.000 C 
ATOM     18  N   UNL     1       7.828   4.450  16.671  0.00  0.00    +0.000 N 
ATOM     19  O   UNL     1       7.482   5.377  14.676  0.00  0.00    +0.000 OA
ATOM     20  H   UNL     1       7.718   4.520  17.679  0.00  0.00    +0.000 HD
ATOM     21  H   UNL     1       8.762   4.228  16.347  0.00  0.00    +0.000 HD
ENDBRANCH  16  17
ENDBRANCH  15  16
ENDBRANCH   9  15
TORSDOF 5
ENDMDL
MODEL 2
REMARK VINA RESULT:      -6.8      1.131      1.170
REMARK  Name = 
REMARK  6 active torsions:
REMARK  status: ('A' for Active; 'I' for Inactive)
REMARK    1  A    between atoms: C_1  and  C_2
REMARK    2  A    between atoms: C_2  and  C_3
REMARK    3  A    between atoms: C_3  and  C_4
REMARK    4  A    between atoms: C_12  and  S_13
REMARK    5  A    between atoms: S_13  and  C_14
REMARK    6  A    between atoms: C_14  and  C_15
REMARK                            x       y       z     vdW  Elec       q    Type
REMARK                         _______ _______ _______ _____ _____    ______ ____
ROOT
ATOM      1  C   UNL     1       2.197   4.690  19.639  0.00  0.00    +0.000 A 
ATOM      2  C   UNL     1       1.411   4.191  20.620  0.00  0.00    +0.000 A 
ATOM      3  C   UNL     1       1.833   3.028  21.451  0.00  0.00    +0.000 A 
ATOM      4  O   UNL     1       1.083   2.581  22.310  0.00  0.00    +0.000 OA
ATOM      5  N   UNL     1       3.071   2.512  21.207  0.00  0.00    +0.000 N 
ATOM      6  C   UNL     1       3.876   3.036  20.232  0.00  0.00    +0.000 A 
ATOM      7  N   UNL     1       5.086   2.648  19.920  0.00  0.00    +0.000 NA
ATOM      8  N   UNL     1       5.500   3.420  18.874  0.00  0.00    +0.000 NA
ATOM      9  C   UNL     1       4.537   4.269  18.579  0.00  0.00    +0.000 A 
ATOM     10  N   UNL     1       3.459   4.097  19.432  0.00  0.00    +0.000 N 
ATOM     11  H   UNL     1       3.398   1.725  21.750  0.00  0.00    +0.000 HD
ENDROOT
BRANCH   1  12
ATOM     12  C   UNL     1       1.694   5.885  18.867  0.00  0.00    +0.000 C 
BRANCH  12  14
ATOM     13  C   UNL     1       2.385   8.229  18.231  0.00  0.00    +0.000 C 
ATOM     14  C   UNL     1       2.320   7.197  19.348  0.00  0.00    +0.000 C 
ENDBRANCH  12  14
ENDBRANCH   1  12
BRANCH   9  15
ATOM     15  S   UNL     1       4.629   5.252  17.165  0.00  0.00    +0.000 S 
BRANCH  15  16
ATOM     16  C   UNL     1       5.633   4.294  16.015  0.00  0.00    +0.000 C 
BRANCH  16  17
ATOM     17  C   UNL     1       7.089   4.654  15.786  0.00  0.00    +0.000 C 
ATOM     18  N   UNL     1       7.488   5.258  14.638  0.00  0.00    +0.000 N 
ATOM     19  O   UNL     1       7.925   4.455  16.669  0.00  0.00    +0.000 OA
ATOM     20  H   UNL     1       6.957   5.165  13.776  0.00  0.00    +0.000 HD
ATOM     21  H   UNL     1       8.488   5.371  14.526  0.00  0.00    +0.000 HD
ENDBRANCH  16  17
ENDBRANCH  15  16
ENDBRANCH   9  15
TORSDOF 5
ENDMDL
MODEL 3
REMARK VINA RESULT:      -6.7      1.959      4.921
REMARK  Name = 
REMARK  6 active torsions:
REMARK  status: ('A' for Active; 'I' for Inactive)
REMARK    1  A    between atoms: C_1  and  C_2
REMARK    2  A    between atoms: C_2  and  C_3
REMARK    3  A    between atoms: C_3  and  C_4
REMARK    4  A    between atoms: C_12  and  S_13
REMARK    5  A    between atoms: S_13  and  C_14
REMARK    6  A    between atoms: C_14  and  C_15
REMARK                            x       y       z     vdW  Elec       q    Type
REMARK                         _______ _______ _______ _____ _____    ______ ____
ROOT
ATOM      1  C   UNL     1       3.748   6.482  18.168  0.00  0.00    +0.000 A 
ATOM      2  C   UNL     1       4.671   7.065  17.368  0.00  0.00    +0.000 A 
ATOM      3  C   UNL     1       6.042   6.501  17.208  0.00  0.00    +0.000 A 
ATOM      4  O   UNL     1       6.863   7.072  16.501  0.00  0.00    +0.000 OA
ATOM      5  N   UNL     1       6.313   5.343  17.872  0.00  0.00    +0.000 N 
ATOM      6  C   UNL     1       5.369   4.740  18.659  0.00  0.00    +0.000 A 
ATOM      7  N   UNL     1       5.500   3.621  19.324  0.00  0.00    +0.000 NA
ATOM      8  N   UNL     1       4.331   3.412  19.996  0.00  0.00    +0.000 NA
ATOM      9  C   UNL     1       3.509   4.404  19.716  0.00  0.00    +0.000 A 
ATOM     10  N   UNL     1       4.105   5.294  18.837  0.00  0.00    +0.000 N 
ATOM     11  H   UNL     1       7.229   4.924  17.788  0.00  0.00    +0.000 HD
ENDROOT
BRANCH   1  12
ATOM     12  C   UNL     1       2.380   7.114  18.248  0.00  0.00    +0.000 C 
BRANCH  12  14
ATOM     13  C   UNL     1       1.311   9.400  18.323  0.00  0.00    +0.000 C 
ATOM     14  C   UNL     1       2.350   8.520  17.642  0.00  0.00    +0.000 C 
ENDBRANCH  12  14
ENDBRANCH   1  12
BRANCH   9  15
ATOM     15  S   UNL     1       2.019   4.582  20.564  0.00  0.00    +0.000 S 
BRANCH  15  16
ATOM     16  C   UNL     1       1.231   2.965  20.436  0.00  0.00    +0.000 C 
BRANCH  16  17
ATOM     17  C   UNL     1       1.153   2.255  19.097  0.00  0.00    +0.000 C 
ATOM     18  N   UNL     1       2.183   1.495  18.648  0.00  0.00    +0.000 N 
ATOM     19  O   UNL     1       0.123   2.312  18.423  0.00  0.00    +0.000 OA
ATOM     20  H   UNL     1       3.136   1.650  18.965  0.00  0.00    +0.000 HD
ATOM     21  H   UNL     1       2.088   1.140  17.704  0.00  0.00    +0.000 HD
ENDBRANCH  16  17
ENDBRANCH  15  16
ENDBRANCH   9  15
TORSDOF 5
ENDMDL
MODEL 4
REMARK VINA RESULT:      -6.7      1.299      1.365
REMARK  Name = 
REMARK  6 active torsions:
REMARK  status: ('A' for Active; 'I' for Inactive)
REMARK    1  A    between atoms: C_1  and  C_2
REMARK    2  A    between atoms: C_2  and  C_3
REMARK    3  A    between atoms: C_3  and  C_4
REMARK    4  A    between atoms: C_12  and  S_13
REMARK    5  A    between atoms: S_13  and  C_14
REMARK    6  A    between atoms: C_14  and  C_15
REMARK                            x       y       z     vdW  Elec       q    Type
REMARK                         _______ _______ _______ _____ _____    ______ ____
ROOT
ATOM      1  C   UNL     1       2.482   4.975  18.160  0.00  0.00    +0.000 A 
ATOM      2  C   UNL     1       1.372   4.205  18.220  0.00  0.00    +0.000 A 
ATOM      3  C   UNL     1       1.404   2.820  18.770  0.00  0.00    +0.000 A 
ATOM      4  O   UNL     1       0.386   2.138  18.780  0.00  0.00    +0.000 OA
ATOM      5  N   UNL     1       2.598   2.377  19.253  0.00  0.00    +0.000 N 
ATOM      6  C   UNL     1       3.715   3.168  19.217  0.00  0.00    +0.000 A 
ATOM      7  N   UNL     1       4.905   2.867  19.668  0.00  0.00    +0.000 NA
ATOM      8  N   UNL     1       5.719   3.928  19.396  0.00  0.00    +0.000 NA
ATOM      9  C   UNL     1       5.003   4.857  18.796  0.00  0.00    +0.000 A 
ATOM     10  N   UNL     1       3.687   4.445  18.664  0.00  0.00    +0.000 N 
ATOM     11  H   UNL     1       2.664   1.445  19.639  0.00  0.00    +0.000 HD
ENDROOT
BRANCH   1  12
ATOM     12  C   UNL     1       2.345   6.373  17.608  0.00  0.00    +0.000 C 
BRANCH  12  14
ATOM     13  C   UNL     1       2.104   8.831  18.133  0.00  0.00    +0.000 C 
ATOM     14  C   UNL     1       2.265   7.432  18.711  0.00  0.00    +0.000 C 
ENDBRANCH  12  14
ENDBRANCH   1  12
BRANCH   9  15
ATOM     15  S   UNL     1       5.757   6.247  18.110  0.00  0.00    +0.000 S 
BRANCH  15  16
ATOM     16  C   UNL     1       5.951   5.840  16.364  0.00  0.00    +0.000 C 
BRANCH  16  17
ATOM     17  C   UNL     1       6.958   4.792  15.929  0.00  0.00    +0.000 C 
ATOM     18  N   UNL     1       7.845   4.265  16.811  0.00  0.00    +0.000 N 
ATOM     19  O   UNL     1       6.945   4.359  14.776  0.00  0.00    +0.000 OA
ATOM     20  H   UNL     1       8.127   4.770  17.647  0.00  0.00    +0.000 HD
ATOM     21  H   UNL     1       8.544   3.649  16.416  0.00  0.00    +0.000 HD
ENDBRANCH  16  17
ENDBRANCH  15  16
ENDBRANCH   9  15
TORSDOF 5
ENDMDL
MODEL 5
REMARK VINA RESULT:      -6.7      1.703      1.777
REMARK  Name = 
REMARK  6 active torsions:
REMARK  status: ('A' for Active; 'I' for Inactive)
REMARK    1  A    between atoms: C_1  and  C_2
REMARK    2  A    between atoms: C_2  and  C_3
REMARK    3  A    between atoms: C_3  and  C_4
REMARK    4  A    between atoms: C_12  and  S_13
REMARK    5  A    between atoms: S_13  and  C_14
REMARK    6  A    between atoms: C_14  and  C_15
REMARK                            x       y       z     vdW  Elec       q    Type
REMARK                         _______ _______ _______ _____ _____    ______ ____
ROOT
ATOM      1  C   UNL     1       2.661   4.585  18.238  0.00  0.00    +0.000 A 
ATOM      2  C   UNL     1       1.434   4.041  18.068  0.00  0.00    +0.000 A 
ATOM      3  C   UNL     1       1.088   2.694  18.604  0.00  0.00    +0.000 A 
ATOM      4  O   UNL     1      -0.023   2.218  18.405  0.00  0.00    +0.000 OA
ATOM      5  N   UNL     1       2.055   2.048  19.315  0.00  0.00    +0.000 N 
ATOM      6  C   UNL     1       3.287   2.611  19.510  0.00  0.00    +0.000 A 
ATOM      7  N   UNL     1       4.283   2.104  20.189  0.00  0.00    +0.000 NA
ATOM      8  N   UNL     1       5.324   2.982  20.094  0.00  0.00    +0.000 NA
ATOM      9  C   UNL     1       4.934   4.009  19.367  0.00  0.00    +0.000 A 
ATOM     10  N   UNL     1       3.616   3.851  18.971  0.00  0.00    +0.000 N 
ATOM     11  H   UNL     1       1.861   1.133  19.700  0.00  0.00    +0.000 HD
ENDROOT
BRANCH   1  12
ATOM     12  C   UNL     1       2.908   5.964  17.679  0.00  0.00    +0.000 C 
BRANCH  12  14
ATOM     13  C   UNL     1       2.167   8.360  17.967  0.00  0.00    +0.000 C 
ATOM     14  C   UNL     1       2.554   7.071  18.677  0.00  0.00    +0.000 C 
ENDBRANCH  12  14
ENDBRANCH   1  12
BRANCH   9  15
ATOM     15  S   UNL     1       6.063   5.209  18.857  0.00  0.00    +0.000 S 
BRANCH  15  16
ATOM     16  C   UNL     1       6.384   4.818  17.127  0.00  0.00    +0.000 C 
BRANCH  16  17
ATOM     17  C   UNL     1       7.183   5.774  16.261  0.00  0.00    +0.000 C 
ATOM     18  N   UNL     1       7.569   6.987  16.731  0.00  0.00    +0.000 N 
ATOM     19  O   UNL     1       7.546   5.436  15.133  0.00  0.00    +0.000 OA
ATOM     20  H   UNL     1       7.064   7.451  17.482  0.00  0.00    +0.000 HD
ATOM     21  H   UNL     1       8.009   7.600  16.056  0.00  0.00    +0.000 HD
ENDBRANCH  16  17
ENDBRANCH  15  16
ENDBRANCH   9  15
TORSDOF 5
ENDMDL
MODEL 6
REMARK VINA RESULT:      -6.6      2.901      6.079
REMARK  Name = 
REMARK  6 active torsions:
REMARK  status: ('A' for Active; 'I' for Inactive)
REMARK    1  A    between atoms: C_1  and  C_2
REMARK    2  A    between atoms: C_2  and  C_3
REMARK    3  A    between atoms: C_3  and  C_4
REMARK    4  A    between atoms: C_12  and  S_13
REMARK    5  A    between atoms: S_13  and  C_14
REMARK    6  A    between atoms: C_14  and  C_15
REMARK                            x       y       z     vdW  Elec       q    Type
REMARK                         _______ _______ _______ _____ _____    ______ ____
ROOT
ATOM      1  C   UNL     1       5.791   4.769  16.293  0.00  0.00    +0.000 A 
ATOM      2  C   UNL     1       6.649   5.785  16.041  0.00  0.00    +0.000 A 
ATOM      3  C   UNL     1       7.273   6.578  17.137  0.00  0.00    +0.000 A 
ATOM      4  O   UNL     1       8.020   7.512  16.873  0.00  0.00    +0.000 OA
ATOM      5  N   UNL     1       6.975   6.206  18.414  0.00  0.00    +0.000 N 
ATOM      6  C   UNL     1       6.129   5.161  18.668  0.00  0.00    +0.000 A 
ATOM      7  N   UNL     1       5.786   4.695  19.841  0.00  0.00    +0.000 NA
ATOM      8  N   UNL     1       4.903   3.677  19.628  0.00  0.00    +0.000 NA
ATOM      9  C   UNL     1       4.736   3.537  18.329  0.00  0.00    +0.000 A 
ATOM     10  N   UNL     1       5.517   4.450  17.639  0.00  0.00    +0.000 N 
ATOM     11  H   UNL     1       7.380   6.715  19.188  0.00  0.00    +0.000 HD
ENDROOT
BRANCH   1  12
ATOM     12  C   UNL     1       5.228   4.009  15.118  0.00  0.00    +0.000 C 
BRANCH  12  14
ATOM     13  C   UNL     1       5.522   3.488  12.665  0.00  0.00    +0.000 C 
ATOM     14  C   UNL     1       6.213   3.931  13.947  0.00  0.00    +0.000 C 
ENDBRANCH  12  14
ENDBRANCH   1  12
BRANCH   9  15
ATOM     15  S   UNL     1       3.520   2.488  17.702  0.00  0.00    +0.000 S 
BRANCH  15  16
ATOM     16  C   UNL     1       2.535   2.030  19.140  0.00  0.00    +0.000 C 
BRANCH  16  17
ATOM     17  C   UNL     1       1.098   2.502  19.268  0.00  0.00    +0.000 C 
ATOM     18  N   UNL     1       0.712   3.293  20.300  0.00  0.00    +0.000 N 
ATOM     19  O   UNL     1       0.272   2.220  18.399  0.00  0.00    +0.000 OA
ATOM     20  H   UNL     1       1.217   3.301  21.182  0.00  0.00    +0.000 HD
ATOM     21  H   UNL     1      -0.282   3.478  20.364  0.00  0.00    +0.000 HD
ENDBRANCH  16  17
ENDBRANCH  15  16
ENDBRANCH   9  15
TORSDOF 5
ENDMDL
MODEL 7
REMARK VINA RESULT:      -6.6      2.826      4.896
REMARK  Name = 
REMARK  6 active torsions:
REMARK  status: ('A' for Active; 'I' for Inactive)
REMARK    1  A    between atoms: C_1  and  C_2
REMARK    2  A    between atoms: C_2  and  C_3
REMARK    3  A    between atoms: C_3  and  C_4
REMARK    4  A    between atoms: C_12  and  S_13
REMARK    5  A    between atoms: S_13  and  C_14
REMARK    6  A    between atoms: C_14  and  C_15
REMARK                            x       y       z     vdW  Elec       q    Type
REMARK                         _______ _______ _______ _____ _____    ______ ____
ROOT
ATOM      1  C   UNL     1       4.248   5.946  17.967  0.00  0.00    +0.000 A 
ATOM      2  C   UNL     1       3.892   7.143  17.446  0.00  0.00    +0.000 A 
ATOM      3  C   UNL     1       2.728   7.914  17.968  0.00  0.00    +0.000 A 
ATOM      4  O   UNL     1       2.414   8.979  17.451  0.00  0.00    +0.000 OA
ATOM      5  N   UNL     1       2.060   7.378  19.028  0.00  0.00    +0.000 N 
ATOM      6  C   UNL     1       2.438   6.181  19.572  0.00  0.00    +0.000 A 
ATOM      7  N   UNL     1       1.896   5.579  20.599  0.00  0.00    +0.000 NA
ATOM      8  N   UNL     1       2.563   4.401  20.774  0.00  0.00    +0.000 NA
ATOM      9  C   UNL     1       3.505   4.318  19.857  0.00  0.00    +0.000 A 
ATOM     10  N   UNL     1       3.501   5.446  19.053  0.00  0.00    +0.000 N 
ATOM     11  H   UNL     1       1.267   7.870  19.415  0.00  0.00    +0.000 HD
ENDROOT
BRANCH   1  12
ATOM     12  C   UNL     1       5.456   5.252  17.388  0.00  0.00    +0.000 C 
BRANCH  12  14
ATOM     13  C   UNL     1       5.731   5.024  14.888  0.00  0.00    +0.000 C 
ATOM     14  C   UNL     1       5.114   4.425  16.144  0.00  0.00    +0.000 C 
ENDBRANCH  12  14
ENDBRANCH   1  12
BRANCH   9  15
ATOM     15  S   UNL     1       4.401   2.861  19.642  0.00  0.00    +0.000 S 
BRANCH  15  16
ATOM     16  C   UNL     1       3.476   1.942  18.397  0.00  0.00    +0.000 C 
BRANCH  16  17
ATOM     17  C   UNL     1       2.095   2.405  17.972  0.00  0.00    +0.000 C 
ATOM     18  N   UNL     1       0.992   2.064  18.685  0.00  0.00    +0.000 N 
ATOM     19  O   UNL     1       1.962   3.151  17.000  0.00  0.00    +0.000 OA
ATOM     20  H   UNL     1       0.974   1.234  19.271  0.00  0.00    +0.000 HD
ATOM     21  H   UNL     1       0.105   2.331  18.275  0.00  0.00    +0.000 HD
ENDBRANCH  16  17
ENDBRANCH  15  16
ENDBRANCH   9  15
TORSDOF 5
ENDMDL
MODEL 8
REMARK VINA RESULT:      -6.6      1.016      1.073
REMARK  Name = 
REMARK  6 active torsions:
REMARK  status: ('A' for Active; 'I' for Inactive)
REMARK    1  A    between atoms: C_1  and  C_2
REMARK    2  A    between atoms: C_2  and  C_3
REMARK    3  A    between atoms: C_3  and  C_4
REMARK    4  A    between atoms: C_12  and  S_13
REMARK    5  A    between atoms: S_13  and  C_14
REMARK    6  A    between atoms: C_14  and  C_15
REMARK                            x       y       z     vdW  Elec       q    Type
REMARK                         _______ _______ _______ _____ _____    ______ ____
ROOT
ATOM      1  C   UNL     1       2.563   5.352  18.552  0.00  0.00    +0.000 A 
ATOM      2  C   UNL     1       1.604   4.593  19.131  0.00  0.00    +0.000 A 
ATOM      3  C   UNL     1       1.932   3.338  19.866  0.00  0.00    +0.000 A 
ATOM      4  O   UNL     1       1.037   2.657  20.351  0.00  0.00    +0.000 OA
ATOM      5  N   UNL     1       3.251   3.010  19.967  0.00  0.00    +0.000 N 
ATOM      6  C   UNL     1       4.221   3.794  19.404  0.00  0.00    +0.000 A 
ATOM      7  N   UNL     1       5.514   3.599  19.452  0.00  0.00    +0.000 NA
ATOM      8  N   UNL     1       6.099   4.600  18.732  0.00  0.00    +0.000 NA
ATOM      9  C   UNL     1       5.150   5.388  18.271  0.00  0.00    +0.000 A 
ATOM     10  N   UNL     1       3.905   4.943  18.684  0.00  0.00    +0.000 N 
ATOM     11  H   UNL     1       3.517   2.169  20.460  0.00  0.00    +0.000 HD
ENDROOT
BRANCH   1  12
ATOM     12  C   UNL     1       2.136   6.618  17.850  0.00  0.00    +0.000 C 
BRANCH  12  14
ATOM     13  C   UNL     1       1.981   9.135  17.964  0.00  0.00    +0.000 C 
ATOM     14  C   UNL     1       2.311   7.861  18.728  0.00  0.00    +0.000 C 
ENDBRANCH  12  14
ENDBRANCH   1  12
BRANCH   9  15
ATOM     15  S   UNL     1       5.511   6.633  17.134  0.00  0.00    +0.000 S 
BRANCH  15  16
ATOM     16  C   UNL     1       5.493   5.802  15.534  0.00  0.00    +0.000 C 
BRANCH  16  17
ATOM     17  C   UNL     1       6.561   4.781  15.189  0.00  0.00    +0.000 C 
ATOM     18  N   UNL     1       6.395   3.468  15.488  0.00  0.00    +0.000 N 
ATOM     19  O   UNL     1       7.573   5.123  14.576  0.00  0.00    +0.000 OA
ATOM     20  H   UNL     1       5.779   3.167  16.239  0.00  0.00    +0.000 HD
ATOM     21  H   UNL     1       7.196   2.873  15.314  0.00  0.00    +0.000 HD
ENDBRANCH  16  17
ENDBRANCH  15  16
ENDBRANCH   9  15
TORSDOF 5
ENDMDL
MODEL 9
REMARK VINA RESULT:      -6.5      1.176      1.254
REMARK  Name = 
REMARK  6 active torsions:
REMARK  status: ('A' for Active; 'I' for Inactive)
REMARK    1  A    between atoms: C_1  and  C_2
REMARK    2  A    between atoms: C_2  and  C_3
REMARK    3  A    between atoms: C_3  and  C_4
REMARK    4  A    between atoms: C_12  and  S_13
REMARK    5  A    between atoms: S_13  and  C_14
REMARK    6  A    between atoms: C_14  and  C_15
REMARK                            x       y       z     vdW  Elec       q    Type
REMARK                         _______ _______ _______ _____ _____    ______ ____
ROOT
ATOM      1  C   UNL     1       3.041   5.943  18.754  0.00  0.00    +0.000 A 
ATOM      2  C   UNL     1       1.946   5.505  19.417  0.00  0.00    +0.000 A 
ATOM      3  C   UNL     1       1.943   4.216  20.166  0.00  0.00    +0.000 A 
ATOM      4  O   UNL     1       0.924   3.834  20.729  0.00  0.00    +0.000 OA
ATOM      5  N   UNL     1       3.111   3.515  20.190  0.00  0.00    +0.000 N 
ATOM      6  C   UNL     1       4.226   3.972  19.542  0.00  0.00    +0.000 A 
ATOM      7  N   UNL     1       5.405   3.406  19.511  0.00  0.00    +0.000 NA
ATOM      8  N   UNL     1       6.204   4.183  18.725  0.00  0.00    +0.000 NA
ATOM      9  C   UNL     1       5.498   5.212  18.303  0.00  0.00    +0.000 A 
ATOM     10  N   UNL     1       4.210   5.157  18.810  0.00  0.00    +0.000 N 
ATOM     11  H   UNL     1       3.154   2.637  20.690  0.00  0.00    +0.000 HD
ENDROOT
BRANCH   1  12
ATOM     12  C   UNL     1       2.955   7.271  18.044  0.00  0.00    +0.000 C 
BRANCH  12  14
ATOM     13  C   UNL     1       1.562   9.366  17.837  0.00  0.00    +0.000 C 
ATOM     14  C   UNL     1       2.041   8.263  18.770  0.00  0.00    +0.000 C 
ENDBRANCH  12  14
ENDBRANCH   1  12
BRANCH   9  15
ATOM     15  S   UNL     1       6.127   6.284  17.108  0.00  0.00    +0.000 S 
BRANCH  15  16
ATOM     16  C   UNL     1       5.539   5.610  15.543  0.00  0.00    +0.000 C 
BRANCH  16  17
ATOM     17  C   UNL     1       6.505   4.928  14.592  0.00  0.00    +0.000 C 
ATOM     18  N   UNL     1       7.733   5.450  14.349  0.00  0.00    +0.000 N 
ATOM     19  O   UNL     1       6.207   3.852  14.070  0.00  0.00    +0.000 OA
ATOM     20  H   UNL     1       7.923   6.441  14.471  0.00  0.00    +0.000 HD
ATOM     21  H   UNL     1       8.273   4.988  13.627  0.00  0.00    +0.000 HD
ENDBRANCH  16  17
ENDBRANCH  15  16
ENDBRANCH   9  15
TORSDOF 5
ENDMDL
