MODEL 1
REMARK VINA RESULT:      -7.4      0.000      0.000
REMARK  Name = 
REMARK  6 active torsions:
REMARK  status: ('A' for Active; 'I' for Inactive)
REMARK    1  A    between atoms: C_2  and  OXT_3
REMARK    2  A    between atoms: C_2  and  CA_4
REMARK    3  A    between atoms: C_6  and  C_7
REMARK    4  A    between atoms: C_7  and  O_9
REMARK    5  A    between atoms: CA_19  and  C_20
REMARK    6  A    between atoms: C_20  and  OXT_22
REMARK                            x       y       z     vdW  Elec       q    Type
REMARK                         _______ _______ _______ _____ _____    ______ ____
ROOT
ATOM      1  CA  UNL     1       4.548   2.585  20.068  0.00  0.00    +0.000 A 
ATOM      2  C   UNL     1       3.340   3.095  20.503  0.00  0.00    +0.000 A 
ATOM      3  C   UNL     1       2.899   4.320  19.976  0.00  0.00    +0.000 A 
ATOM      4  C   UNL     1       3.700   5.031  19.055  0.00  0.00    +0.000 A 
ATOM      5  C   UNL     1       4.916   4.410  18.696  0.00  0.00    +0.000 A 
ATOM      6  N   UNL     1       5.341   3.207  19.171  0.00  0.00    +0.000 NA
ATOM      7  C   UNL     1       5.878   5.041  17.735  0.00  0.00    +0.000 C 
ATOM      8  O   UNL     1       6.901   4.465  17.386  0.00  0.00    +0.000 OA
ATOM      9  C   UNL     1       5.553   6.431  17.196  0.00  0.00    +0.000 C 
ATOM     10  O   UNL     1       6.343   7.024  16.476  0.00  0.00    +0.000 OA
ATOM     11  C   UNL     1       4.280   7.002  17.582  0.00  0.00    +0.000 A 
ATOM     12  C   UNL     1       3.706   8.247  17.233  0.00  0.00    +0.000 A 
ATOM     13  CA  UNL     1       2.484   8.341  17.875  0.00  0.00    +0.000 A 
ATOM     14  N   UNL     1       2.323   7.163  18.589  0.00  0.00    +0.000 N 
ATOM     15  C   UNL     1       3.417   6.338  18.435  0.00  0.00    +0.000 A 
ATOM     16  H   UNL     1       1.527   6.997  19.203  0.00  0.00    +0.000 HD
ENDROOT
BRANCH   1  18
ATOM     17  O   UNL     1       5.405   1.098  21.728  0.00  0.00    +0.000 OA
ATOM     18  C   UNL     1       5.053   1.280  20.578  0.00  0.00    +0.000 C 
BRANCH  18  19
ATOM     19  OXT UNL     1       5.055   0.341  19.604  0.00  0.00    +0.000 OA
ATOM     20  HXT UNL     1       5.343   0.727  18.743  0.00  0.00    +0.000 HD
ENDBRANCH  18  19
ENDBRANCH   1  18
BRANCH   3  21
ATOM     21  C   UNL     1       1.618   4.842  20.506  0.00  0.00    +0.000 C 
ATOM     22  O   UNL     1       1.516   5.947  21.007  0.00  0.00    +0.000 OA
BRANCH  21  23
ATOM     23  O   UNL     1       0.571   4.006  20.365  0.00  0.00    +0.000 OA
ATOM     24  H   UNL     1       0.690   3.064  20.590  0.00  0.00    +0.000 HD
ENDBRANCH  21  23
ENDBRANCH   3  21
BRANCH  13  25
ATOM     25  C   UNL     1       1.471   9.375  17.908  0.00  0.00    +0.000 C 
ATOM     26  O   UNL     1       0.328   9.207  18.299  0.00  0.00    +0.000 OA
BRANCH  25  27
ATOM     27  OXT UNL     1       1.915  10.571  17.460  0.00  0.00    +0.000 OA
ATOM     28  HXT UNL     1       2.373  11.110  18.125  0.00  0.00    +0.000 HD
ENDBRANCH  25  27
ENDBRANCH  13  25
TORSDOF 6
ENDMDL
MODEL 2
REMARK VINA RESULT:      -6.6      9.357     11.519
REMARK  Name = 
REMARK  6 active torsions:
REMARK  status: ('A' for Active; 'I' for Inactive)
REMARK    1  A    between atoms: C_2  and  OXT_3
REMARK    2  A    between atoms: C_2  and  CA_4
REMARK    3  A    between atoms: C_6  and  C_7
REMARK    4  A    between atoms: C_7  and  O_9
REMARK    5  A    between atoms: CA_19  and  C_20
REMARK    6  A    between atoms: C_20  and  OXT_22
REMARK                            x       y       z     vdW  Elec       q    Type
REMARK                         _______ _______ _______ _____ _____    ______ ____
ROOT
ATOM      1  CA  UNL     1      -3.546  11.238  17.210  0.00  0.00    +0.000 A 
ATOM      2  C   UNL     1      -4.901  11.131  17.459  0.00  0.00    +0.000 A 
ATOM      3  C   UNL     1      -5.387  11.547  18.710  0.00  0.00    +0.000 A 
ATOM      4  C   UNL     1      -4.500  12.020  19.701  0.00  0.00    +0.000 A 
ATOM      5  C   UNL     1      -3.139  12.073  19.327  0.00  0.00    +0.000 A 
ATOM      6  N   UNL     1      -2.657  11.707  18.108  0.00  0.00    +0.000 NA
ATOM      7  C   UNL     1      -2.073  12.545  20.269  0.00  0.00    +0.000 C 
ATOM      8  O   UNL     1      -0.905  12.644  19.913  0.00  0.00    +0.000 OA
ATOM      9  C   UNL     1      -2.479  12.905  21.696  0.00  0.00    +0.000 C 
ATOM     10  O   UNL     1      -1.636  13.216  22.526  0.00  0.00    +0.000 OA
ATOM     11  C   UNL     1      -3.890  12.855  22.008  0.00  0.00    +0.000 A 
ATOM     12  C   UNL     1      -4.558  13.143  23.222  0.00  0.00    +0.000 A 
ATOM     13  CA  UNL     1      -5.909  12.922  23.021  0.00  0.00    +0.000 A 
ATOM     14  N   UNL     1      -6.050  12.518  21.702  0.00  0.00    +0.000 N 
ATOM     15  C   UNL     1      -4.826  12.456  21.070  0.00  0.00    +0.000 A 
ATOM     16  H   UNL     1      -6.945  12.233  21.308  0.00  0.00    +0.000 HD
ENDROOT
BRANCH   1  18
ATOM     17  O   UNL     1      -3.444  11.182  14.824  0.00  0.00    +0.000 OA
ATOM     18  C   UNL     1      -2.979  10.833  15.893  0.00  0.00    +0.000 C 
BRANCH  18  19
ATOM     19  OXT UNL     1      -1.890  10.047  16.049  0.00  0.00    +0.000 OA
ATOM     20  HXT UNL     1      -1.237  10.201  15.325  0.00  0.00    +0.000 HD
ENDBRANCH  18  19
ENDBRANCH   1  18
BRANCH   3  21
ATOM     21  C   UNL     1      -6.840  11.373  18.942  0.00  0.00    +0.000 C 
ATOM     22  O   UNL     1      -7.609  12.313  19.032  0.00  0.00    +0.000 OA
BRANCH  21  23
ATOM     23  O   UNL     1      -7.245  10.090  19.018  0.00  0.00    +0.000 OA
ATOM     24  H   UNL     1      -7.926   9.776  18.393  0.00  0.00    +0.000 HD
ENDBRANCH  21  23
ENDBRANCH   3  21
BRANCH  13  25
ATOM     25  C   UNL     1      -7.060  13.034  23.892  0.00  0.00    +0.000 C 
ATOM     26  O   UNL     1      -7.904  12.165  24.033  0.00  0.00    +0.000 OA
BRANCH  25  27
ATOM     27  OXT UNL     1      -7.117  14.213  24.553  0.00  0.00    +0.000 OA
ATOM     28  HXT UNL     1      -6.392  14.826  24.352  0.00  0.00    +0.000 HD
ENDBRANCH  25  27
ENDBRANCH  13  25
TORSDOF 6
ENDMDL
MODEL 3
REMARK VINA RESULT:      -6.4      2.264      5.934
REMARK  Name = 
REMARK  6 active torsions:
REMARK  status: ('A' for Active; 'I' for Inactive)
REMARK    1  A    between atoms: C_2  and  OXT_3
REMARK    2  A    between atoms: C_2  and  CA_4
REMARK    3  A    between atoms: C_6  and  C_7
REMARK    4  A    between atoms: C_7  and  O_9
REMARK    5  A    between atoms: CA_19  and  C_20
REMARK    6  A    between atoms: C_20  and  OXT_22
REMARK                            x       y       z     vdW  Elec       q    Type
REMARK                         _______ _______ _______ _____ _____    ______ ____
ROOT
ATOM      1  CA  UNL     1       1.172   7.773  20.943  0.00  0.00    +0.000 A 
ATOM      2  C   UNL     1       1.639   8.428  19.820  0.00  0.00    +0.000 A 
ATOM      3  C   UNL     1       2.381   7.698  18.876  0.00  0.00    +0.000 A 
ATOM      4  C   UNL     1       2.676   6.335  19.099  0.00  0.00    +0.000 A 
ATOM      5  C   UNL     1       2.150   5.782  20.287  0.00  0.00    +0.000 A 
ATOM      6  N   UNL     1       1.400   6.468  21.194  0.00  0.00    +0.000 NA
ATOM      7  C   UNL     1       2.381   4.351  20.670  0.00  0.00    +0.000 C 
ATOM      8  O   UNL     1       1.869   3.868  21.673  0.00  0.00    +0.000 OA
ATOM      9  C   UNL     1       3.277   3.501  19.774  0.00  0.00    +0.000 C 
ATOM     10  O   UNL     1       3.564   2.354  20.085  0.00  0.00    +0.000 OA
ATOM     11  C   UNL     1       3.764   4.117  18.559  0.00  0.00    +0.000 A 
ATOM     12  C   UNL     1       4.588   3.582  17.541  0.00  0.00    +0.000 A 
ATOM     13  CA  UNL     1       4.793   4.575  16.600  0.00  0.00    +0.000 A 
ATOM     14  N   UNL     1       4.091   5.687  17.042  0.00  0.00    +0.000 N 
ATOM     15  C   UNL     1       3.468   5.432  18.245  0.00  0.00    +0.000 A 
ATOM     16  H   UNL     1       4.120   6.583  16.558  0.00  0.00    +0.000 HD
ENDROOT
BRANCH   1  18
ATOM     17  O   UNL     1      -0.826   8.299  22.141  0.00  0.00    +0.000 OA
ATOM     18  C   UNL     1       0.362   8.493  21.965  0.00  0.00    +0.000 C 
BRANCH  18  19
ATOM     19  OXT UNL     1       1.121   9.367  22.664  0.00  0.00    +0.000 OA
ATOM     20  HXT UNL     1       1.466  10.083  22.077  0.00  0.00    +0.000 HD
ENDBRANCH  18  19
ENDBRANCH   1  18
BRANCH   3  21
ATOM     21  C   UNL     1       2.894   8.457  17.712  0.00  0.00    +0.000 C 
ATOM     22  O   UNL     1       4.025   8.319  17.285  0.00  0.00    +0.000 OA
BRANCH  21  23
ATOM     23  O   UNL     1       1.998   9.290  17.148  0.00  0.00    +0.000 OA
ATOM     24  H   UNL     1       1.085   9.299  17.493  0.00  0.00    +0.000 HD
ENDBRANCH  21  23
ENDBRANCH   3  21
BRANCH  13  25
ATOM     25  C   UNL     1       5.550   4.615  15.367  0.00  0.00    +0.000 C 
ATOM     26  O   UNL     1       5.995   3.632  14.799  0.00  0.00    +0.000 OA
BRANCH  25  27
ATOM     27  OXT UNL     1       5.725   5.868  14.888  0.00  0.00    +0.000 OA
ATOM     28  HXT UNL     1       6.459   5.963  14.259  0.00  0.00    +0.000 HD
ENDBRANCH  25  27
ENDBRANCH  13  25
TORSDOF 6
ENDMDL
MODEL 4
REMARK VINA RESULT:      -6.4      7.836     10.926
REMARK  Name = 
REMARK  6 active torsions:
REMARK  status: ('A' for Active; 'I' for Inactive)
REMARK    1  A    between atoms: C_2  and  OXT_3
REMARK    2  A    between atoms: C_2  and  CA_4
REMARK    3  A    between atoms: C_6  and  C_7
REMARK    4  A    between atoms: C_7  and  O_9
REMARK    5  A    between atoms: CA_19  and  C_20
REMARK    6  A    between atoms: C_20  and  OXT_22
REMARK                            x       y       z     vdW  Elec       q    Type
REMARK                         _______ _______ _______ _____ _____    ______ ____
ROOT
ATOM      1  CA  UNL     1      -3.321  10.580  15.800  0.00  0.00    +0.000 A 
ATOM      2  C   UNL     1      -2.139  10.453  16.504  0.00  0.00    +0.000 A 
ATOM      3  C   UNL     1      -2.088  10.934  17.823  0.00  0.00    +0.000 A 
ATOM      4  C   UNL     1      -3.211  11.571  18.395  0.00  0.00    +0.000 A 
ATOM      5  C   UNL     1      -4.355  11.647  17.572  0.00  0.00    +0.000 A 
ATOM      6  N   UNL     1      -4.431  11.156  16.304  0.00  0.00    +0.000 NA
ATOM      7  C   UNL     1      -5.624  12.300  18.031  0.00  0.00    +0.000 C 
ATOM      8  O   UNL     1      -6.629  12.306  17.330  0.00  0.00    +0.000 OA
ATOM      9  C   UNL     1      -5.638  12.963  19.405  0.00  0.00    +0.000 C 
ATOM     10  O   UNL     1      -6.620  13.580  19.792  0.00  0.00    +0.000 OA
ATOM     11  C   UNL     1      -4.443  12.828  20.210  0.00  0.00    +0.000 A 
ATOM     12  C   UNL     1      -4.169  13.315  21.510  0.00  0.00    +0.000 A 
ATOM     13  CA  UNL     1      -2.876  12.945  21.834  0.00  0.00    +0.000 A 
ATOM     14  N   UNL     1      -2.386  12.236  20.747  0.00  0.00    +0.000 N 
ATOM     15  C   UNL     1      -3.323  12.166  19.739  0.00  0.00    +0.000 A 
ATOM     16  H   UNL     1      -1.427  11.896  20.701  0.00  0.00    +0.000 HD
ENDROOT
BRANCH   1  18
ATOM     17  O   UNL     1      -2.480   9.867  13.682  0.00  0.00    +0.000 OA
ATOM     18  C   UNL     1      -3.437  10.069  14.406  0.00  0.00    +0.000 C 
BRANCH  18  19
ATOM     19  OXT UNL     1      -4.728   9.853  14.069  0.00  0.00    +0.000 OA
ATOM     20  HXT UNL     1      -4.793   9.256  13.285  0.00  0.00    +0.000 HD
ENDBRANCH  18  19
ENDBRANCH   1  18
BRANCH   3  21
ATOM     21  C   UNL     1      -0.786  10.811  18.519  0.00  0.00    +0.000 C 
ATOM     22  O   UNL     1      -0.586   9.995  19.400  0.00  0.00    +0.000 OA
BRANCH  21  23
ATOM     23  O   UNL     1       0.166  11.657  18.079  0.00  0.00    +0.000 OA
ATOM     24  H   UNL     1       0.742  12.094  18.734  0.00  0.00    +0.000 HD
ENDBRANCH  21  23
ENDBRANCH   3  21
BRANCH  13  25
ATOM     25  C   UNL     1      -2.057  13.171  23.005  0.00  0.00    +0.000 C 
ATOM     26  O   UNL     1      -1.071  12.513  23.295  0.00  0.00    +0.000 OA
BRANCH  25  27
ATOM     27  OXT UNL     1      -2.488  14.202  23.768  0.00  0.00    +0.000 OA
ATOM     28  HXT UNL     1      -3.053  13.945  24.515  0.00  0.00    +0.000 HD
ENDBRANCH  25  27
ENDBRANCH  13  25
TORSDOF 6
ENDMDL
MODEL 5
REMARK VINA RESULT:      -6.4      5.754      9.463
REMARK  Name = 
REMARK  6 active torsions:
REMARK  status: ('A' for Active; 'I' for Inactive)
REMARK    1  A    between atoms: C_2  and  OXT_3
REMARK    2  A    between atoms: C_2  and  CA_4
REMARK    3  A    between atoms: C_6  and  C_7
REMARK    4  A    between atoms: C_7  and  O_9
REMARK    5  A    between atoms: CA_19  and  C_20
REMARK    6  A    between atoms: C_20  and  OXT_22
REMARK                            x       y       z     vdW  Elec       q    Type
REMARK                         _______ _______ _______ _____ _____    ______ ____
ROOT
ATOM      1  CA  UNL     1       0.282  10.005  18.700  0.00  0.00    +0.000 A 
ATOM      2  C   UNL     1      -0.694  10.118  17.728  0.00  0.00    +0.000 A 
ATOM      3  C   UNL     1      -1.832  10.893  18.008  0.00  0.00    +0.000 A 
ATOM      4  C   UNL     1      -1.989  11.503  19.272  0.00  0.00    +0.000 A 
ATOM      5  C   UNL     1      -0.928  11.305  20.181  0.00  0.00    +0.000 A 
ATOM      6  N   UNL     1       0.198  10.586  19.913  0.00  0.00    +0.000 NA
ATOM      7  C   UNL     1      -0.947  11.881  21.565  0.00  0.00    +0.000 C 
ATOM      8  O   UNL     1       0.007  11.753  22.323  0.00  0.00    +0.000 OA
ATOM      9  C   UNL     1      -2.194  12.639  22.013  0.00  0.00    +0.000 C 
ATOM     10  O   UNL     1      -2.294  13.057  23.158  0.00  0.00    +0.000 OA
ATOM     11  C   UNL     1      -3.235  12.829  21.027  0.00  0.00    +0.000 A 
ATOM     12  C   UNL     1      -4.479  13.493  21.142  0.00  0.00    +0.000 A 
ATOM     13  CA  UNL     1      -5.131  13.380  19.927  0.00  0.00    +0.000 A 
ATOM     14  N   UNL     1      -4.283  12.669  19.091  0.00  0.00    +0.000 N 
ATOM     15  C   UNL     1      -3.126  12.310  19.749  0.00  0.00    +0.000 A 
ATOM     16  H   UNL     1      -4.547  12.394  18.146  0.00  0.00    +0.000 HD
ENDROOT
BRANCH   1  18
ATOM     17  O   UNL     1       1.903   8.317  19.177  0.00  0.00    +0.000 OA
ATOM     18  C   UNL     1       1.519   9.213  18.449  0.00  0.00    +0.000 C 
BRANCH  18  19
ATOM     19  OXT UNL     1       2.136   9.615  17.315  0.00  0.00    +0.000 OA
ATOM     20  HXT UNL     1       3.103   9.421  17.352  0.00  0.00    +0.000 HD
ENDBRANCH  18  19
ENDBRANCH   1  18
BRANCH   3  21
ATOM     21  C   UNL     1      -2.867  10.948  16.949  0.00  0.00    +0.000 C 
ATOM     22  O   UNL     1      -3.973  10.459  17.085  0.00  0.00    +0.000 OA
BRANCH  21  23
ATOM     23  O   UNL     1      -2.493  11.606  15.834  0.00  0.00    +0.000 OA
ATOM     24  H   UNL     1      -2.588  12.577  15.809  0.00  0.00    +0.000 HD
ENDBRANCH  21  23
ENDBRANCH   3  21
BRANCH  13  25
ATOM     25  C   UNL     1      -6.421  13.840  19.461  0.00  0.00    +0.000 C 
ATOM     26  O   UNL     1      -7.489  13.505  19.946  0.00  0.00    +0.000 OA
BRANCH  25  27
ATOM     27  OXT UNL     1      -6.339  14.697  18.417  0.00  0.00    +0.000 OA
ATOM     28  HXT UNL     1      -7.194  15.016  18.085  0.00  0.00    +0.000 HD
ENDBRANCH  25  27
ENDBRANCH  13  25
TORSDOF 6
ENDMDL
MODEL 6
REMARK VINA RESULT:      -6.2      6.815     10.676
REMARK  Name = 
REMARK  6 active torsions:
REMARK  status: ('A' for Active; 'I' for Inactive)
REMARK    1  A    between atoms: C_2  and  OXT_3
REMARK    2  A    between atoms: C_2  and  CA_4
REMARK    3  A    between atoms: C_6  and  C_7
REMARK    4  A    between atoms: C_7  and  O_9
REMARK    5  A    between atoms: CA_19  and  C_20
REMARK    6  A    between atoms: C_20  and  OXT_22
REMARK                            x       y       z     vdW  Elec       q    Type
REMARK                         _______ _______ _______ _____ _____    ______ ____
ROOT
ATOM      1  CA  UNL     1      -5.636  12.011  18.976  0.00  0.00    +0.000 A 
ATOM      2  C   UNL     1      -5.030  11.443  17.871  0.00  0.00    +0.000 A 
ATOM      3  C   UNL     1      -3.631  11.315  17.866  0.00  0.00    +0.000 A 
ATOM      4  C   UNL     1      -2.864  11.798  18.950  0.00  0.00    +0.000 A 
ATOM      5  C   UNL     1      -3.600  12.365  20.013  0.00  0.00    +0.000 A 
ATOM      6  N   UNL     1      -4.958  12.465  20.049  0.00  0.00    +0.000 NA
ATOM      7  C   UNL     1      -2.932  12.928  21.231  0.00  0.00    +0.000 C 
ATOM      8  O   UNL     1      -3.584  13.362  22.174  0.00  0.00    +0.000 OA
ATOM      9  C   UNL     1      -1.407  12.949  21.273  0.00  0.00    +0.000 C 
ATOM     10  O   UNL     1      -0.814  13.472  22.206  0.00  0.00    +0.000 OA
ATOM     11  C   UNL     1      -0.712  12.331  20.165  0.00  0.00    +0.000 A 
ATOM     12  C   UNL     1       0.676  12.187  19.936  0.00  0.00    +0.000 A 
ATOM     13  CA  UNL     1       0.838  11.545  18.720  0.00  0.00    +0.000 A 
ATOM     14  N   UNL     1      -0.437  11.299  18.234  0.00  0.00    +0.000 N 
ATOM     15  C   UNL     1      -1.398  11.784  19.095  0.00  0.00    +0.000 A 
ATOM     16  H   UNL     1      -0.604  10.884  17.318  0.00  0.00    +0.000 HD
ENDROOT
BRANCH   1  18
ATOM     17  O   UNL     1      -7.720  13.127  18.636  0.00  0.00    +0.000 OA
ATOM     18  C   UNL     1      -7.118  12.151  19.044  0.00  0.00    +0.000 C 
BRANCH  18  19
ATOM     19  OXT UNL     1      -7.689  11.059  19.599  0.00  0.00    +0.000 OA
ATOM     20  HXT UNL     1      -8.599  10.917  19.243  0.00  0.00    +0.000 HD
ENDBRANCH  18  19
ENDBRANCH   1  18
BRANCH   3  21
ATOM     21  C   UNL     1      -3.027  10.739  16.642  0.00  0.00    +0.000 C 
ATOM     22  O   UNL     1      -3.109   9.557  16.363  0.00  0.00    +0.000 OA
BRANCH  21  23
ATOM     23  O   UNL     1      -2.404  11.633  15.851  0.00  0.00    +0.000 OA
ATOM     24  H   UNL     1      -2.572  12.584  15.995  0.00  0.00    +0.000 HD
ENDBRANCH  21  23
ENDBRANCH   3  21
BRANCH  13  25
ATOM     25  C   UNL     1       2.011  11.148  17.971  0.00  0.00    +0.000 C 
ATOM     26  O   UNL     1       2.298   9.993  17.702  0.00  0.00    +0.000 OA
BRANCH  25  27
ATOM     27  OXT UNL     1       2.778  12.193  17.584  0.00  0.00    +0.000 OA
ATOM     28  HXT UNL     1       2.281  12.984  17.318  0.00  0.00    +0.000 HD
ENDBRANCH  25  27
ENDBRANCH  13  25
TORSDOF 6
ENDMDL
MODEL 7
REMARK VINA RESULT:      -6.2      5.833     10.717
REMARK  Name = 
REMARK  6 active torsions:
REMARK  status: ('A' for Active; 'I' for Inactive)
REMARK    1  A    between atoms: C_2  and  OXT_3
REMARK    2  A    between atoms: C_2  and  CA_4
REMARK    3  A    between atoms: C_6  and  C_7
REMARK    4  A    between atoms: C_7  and  O_9
REMARK    5  A    between atoms: CA_19  and  C_20
REMARK    6  A    between atoms: C_20  and  OXT_22
REMARK                            x       y       z     vdW  Elec       q    Type
REMARK                         _______ _______ _______ _____ _____    ______ ____
ROOT
ATOM      1  CA  UNL     1      -5.514  12.549  18.453  0.00  0.00    +0.000 A 
ATOM      2  C   UNL     1      -4.989  11.888  17.360  0.00  0.00    +0.000 A 
ATOM      3  C   UNL     1      -3.683  11.376  17.449  0.00  0.00    +0.000 A 
ATOM      4  C   UNL     1      -2.915  11.576  18.617  0.00  0.00    +0.000 A 
ATOM      5  C   UNL     1      -3.561  12.274  19.660  0.00  0.00    +0.000 A 
ATOM      6  N   UNL     1      -4.837  12.745  19.603  0.00  0.00    +0.000 NA
ATOM      7  C   UNL     1      -2.877  12.572  20.961  0.00  0.00    +0.000 C 
ATOM      8  O   UNL     1      -3.469  13.125  21.880  0.00  0.00    +0.000 OA
ATOM      9  C   UNL     1      -1.414  12.167  21.116  0.00  0.00    +0.000 C 
ATOM     10  O   UNL     1      -0.788  12.460  22.124  0.00  0.00    +0.000 OA
ATOM     11  C   UNL     1      -0.818  11.433  20.021  0.00  0.00    +0.000 A 
ATOM     12  C   UNL     1       0.493  10.919  19.886  0.00  0.00    +0.000 A 
ATOM     13  CA  UNL     1       0.583  10.316  18.643  0.00  0.00    +0.000 A 
ATOM     14  N   UNL     1      -0.662  10.456  18.048  0.00  0.00    +0.000 N 
ATOM     15  C   UNL     1      -1.527  11.149  18.868  0.00  0.00    +0.000 A 
ATOM     16  H   UNL     1      -0.853  10.148  17.096  0.00  0.00    +0.000 HD
ENDROOT
BRANCH   1  18
ATOM     17  O   UNL     1      -7.849  12.546  18.954  0.00  0.00    +0.000 OA
ATOM     18  C   UNL     1      -6.901  13.092  18.422  0.00  0.00    +0.000 C 
BRANCH  18  19
ATOM     19  OXT UNL     1      -6.954  14.260  17.743  0.00  0.00    +0.000 OA
ATOM     20  HXT UNL     1      -7.481  14.932  18.238  0.00  0.00    +0.000 HD
ENDBRANCH  18  19
ENDBRANCH   1  18
BRANCH   3  21
ATOM     21  C   UNL     1      -3.152  10.713  16.235  0.00  0.00    +0.000 C 
ATOM     22  O   UNL     1      -3.472   9.585  15.910  0.00  0.00    +0.000 OA
BRANCH  21  23
ATOM     23  O   UNL     1      -2.308  11.471  15.507  0.00  0.00    +0.000 OA
ATOM     24  H   UNL     1      -2.631  12.318  15.147  0.00  0.00    +0.000 HD
ENDBRANCH  21  23
ENDBRANCH   3  21
BRANCH  13  25
ATOM     25  C   UNL     1       1.665   9.644  17.956  0.00  0.00    +0.000 C 
ATOM     26  O   UNL     1       1.817   8.435  17.927  0.00  0.00    +0.000 OA
BRANCH  25  27
ATOM     27  OXT UNL     1       2.513  10.495  17.333  0.00  0.00    +0.000 OA
ATOM     28  HXT UNL     1       3.390  10.126  17.141  0.00  0.00    +0.000 HD
ENDBRANCH  25  27
ENDBRANCH  13  25
TORSDOF 6
ENDMDL
MODEL 8
REMARK VINA RESULT:      -6.2      2.307      6.027
REMARK  Name = 
REMARK  6 active torsions:
REMARK  status: ('A' for Active; 'I' for Inactive)
REMARK    1  A    between atoms: C_2  and  OXT_3
REMARK    2  A    between atoms: C_2  and  CA_4
REMARK    3  A    between atoms: C_6  and  C_7
REMARK    4  A    between atoms: C_7  and  O_9
REMARK    5  A    between atoms: CA_19  and  C_20
REMARK    6  A    between atoms: C_20  and  OXT_22
REMARK                            x       y       z     vdW  Elec       q    Type
REMARK                         _______ _______ _______ _____ _____    ______ ____
ROOT
ATOM      1  CA  UNL     1       1.273   7.729  20.926  0.00  0.00    +0.000 A 
ATOM      2  C   UNL     1       1.806   8.331  19.802  0.00  0.00    +0.000 A 
ATOM      3  C   UNL     1       2.484   7.528  18.870  0.00  0.00    +0.000 A 
ATOM      4  C   UNL     1       2.651   6.145  19.104  0.00  0.00    +0.000 A 
ATOM      5  C   UNL     1       2.068   5.652  20.292  0.00  0.00    +0.000 A 
ATOM      6  N   UNL     1       1.378   6.411  21.188  0.00  0.00    +0.000 NA
ATOM      7  C   UNL     1       2.164   4.209  20.686  0.00  0.00    +0.000 C 
ATOM      8  O   UNL     1       1.602   3.783  21.688  0.00  0.00    +0.000 OA
ATOM      9  C   UNL     1       2.984   3.273  19.803  0.00  0.00    +0.000 C 
ATOM     10  O   UNL     1       3.162   2.107  20.124  0.00  0.00    +0.000 OA
ATOM     11  C   UNL     1       3.534   3.833  18.588  0.00  0.00    +0.000 A 
ATOM     12  C   UNL     1       4.312   3.216  17.580  0.00  0.00    +0.000 A 
ATOM     13  CA  UNL     1       4.614   4.179  16.633  0.00  0.00    +0.000 A 
ATOM     14  N   UNL     1       4.014   5.354  17.062  0.00  0.00    +0.000 N 
ATOM     15  C   UNL     1       3.362   5.167  18.262  0.00  0.00    +0.000 A 
ATOM     16  H   UNL     1       4.129   6.240  16.572  0.00  0.00    +0.000 HD
ENDROOT
BRANCH   1  18
ATOM     17  O   UNL     1       1.051   9.348  22.667  0.00  0.00    +0.000 OA
ATOM     18  C   UNL     1       0.526   8.529  21.937  0.00  0.00    +0.000 C 
BRANCH  18  19
ATOM     19  OXT UNL     1      -0.793   8.232  21.920  0.00  0.00    +0.000 OA
ATOM     20  HXT UNL     1      -1.318   8.928  22.384  0.00  0.00    +0.000 HD
ENDBRANCH  18  19
ENDBRANCH   1  18
BRANCH   3  21
ATOM     21  C   UNL     1       3.072   8.227  17.704  0.00  0.00    +0.000 C 
ATOM     22  O   UNL     1       2.423   8.960  16.980  0.00  0.00    +0.000 OA
BRANCH  21  23
ATOM     23  O   UNL     1       4.390   8.008  17.526  0.00  0.00    +0.000 OA
ATOM     24  H   UNL     1       4.838   8.437  16.772  0.00  0.00    +0.000 HD
ENDBRANCH  21  23
ENDBRANCH   3  21
BRANCH  13  25
ATOM     25  C   UNL     1       5.380   4.140  15.406  0.00  0.00    +0.000 C 
ATOM     26  O   UNL     1       5.211   4.895  14.463  0.00  0.00    +0.000 OA
BRANCH  25  27
ATOM     27  OXT UNL     1       6.325   3.171  15.396  0.00  0.00    +0.000 OA
ATOM     28  HXT UNL     1       6.179   2.456  16.037  0.00  0.00    +0.000 HD
ENDBRANCH  25  27
ENDBRANCH  13  25
TORSDOF 6
ENDMDL
MODEL 9
REMARK VINA RESULT:      -6.2      9.342     12.097
REMARK  Name = 
REMARK  6 active torsions:
REMARK  status: ('A' for Active; 'I' for Inactive)
REMARK    1  A    between atoms: C_2  and  OXT_3
REMARK    2  A    between atoms: C_2  and  CA_4
REMARK    3  A    between atoms: C_6  and  C_7
REMARK    4  A    between atoms: C_7  and  O_9
REMARK    5  A    between atoms: CA_19  and  C_20
REMARK    6  A    between atoms: C_20  and  OXT_22
REMARK                            x       y       z     vdW  Elec       q    Type
REMARK                         _______ _______ _______ _____ _____    ______ ____
ROOT
ATOM      1  CA  UNL     1      -6.620  13.265  22.522  0.00  0.00    +0.000 A 
ATOM      2  C   UNL     1      -7.235  12.672  21.436  0.00  0.00    +0.000 A 
ATOM      3  C   UNL     1      -6.433  12.211  20.379  0.00  0.00    +0.000 A 
ATOM      4  C   UNL     1      -5.033  12.393  20.412  0.00  0.00    +0.000 A 
ATOM      5  C   UNL     1      -4.526  13.020  21.571  0.00  0.00    +0.000 A 
ATOM      6  N   UNL     1      -5.286  13.441  22.619  0.00  0.00    +0.000 NA
ATOM      7  C   UNL     1      -3.063  13.291  21.753  0.00  0.00    +0.000 C 
ATOM      8  O   UNL     1      -2.629  13.781  22.789  0.00  0.00    +0.000 OA
ATOM      9  C   UNL     1      -2.116  12.940  20.609  0.00  0.00    +0.000 C 
ATOM     10  O   UNL     1      -0.927  13.216  20.675  0.00  0.00    +0.000 OA
ATOM     11  C   UNL     1      -2.693  12.277  19.461  0.00  0.00    +0.000 A 
ATOM     12  C   UNL     1      -2.073  11.824  18.273  0.00  0.00    +0.000 A 
ATOM     13  CA  UNL     1      -3.057  11.277  17.467  0.00  0.00    +0.000 A 
ATOM     14  N   UNL     1      -4.248  11.391  18.168  0.00  0.00    +0.000 N 
ATOM     15  C   UNL     1      -4.049  12.013  19.383  0.00  0.00    +0.000 A 
ATOM     16  H   UNL     1      -5.146  11.115  17.774  0.00  0.00    +0.000 HD
ENDROOT
BRANCH   1  18
ATOM     17  O   UNL     1      -7.916  13.015  24.512  0.00  0.00    +0.000 OA
ATOM     18  C   UNL     1      -7.420  13.752  23.680  0.00  0.00    +0.000 C 
BRANCH  18  19
ATOM     19  OXT UNL     1      -7.506  15.101  23.683  0.00  0.00    +0.000 OA
ATOM     20  HXT UNL     1      -7.976  15.423  24.490  0.00  0.00    +0.000 HD
ENDBRANCH  18  19
ENDBRANCH   1  18
BRANCH   3  21
ATOM     21  C   UNL     1      -7.145  11.621  19.221  0.00  0.00    +0.000 C 
ATOM     22  O   UNL     1      -7.344  12.236  18.189  0.00  0.00    +0.000 OA
BRANCH  21  23
ATOM     23  O   UNL     1      -7.531  10.342  19.393  0.00  0.00    +0.000 OA
ATOM     24  H   UNL     1      -6.982   9.632  19.009  0.00  0.00    +0.000 HD
ENDBRANCH  21  23
ENDBRANCH   3  21
BRANCH  13  25
ATOM     25  C   UNL     1      -3.023  10.679  16.149  0.00  0.00    +0.000 C 
ATOM     26  O   UNL     1      -2.867   9.488  15.937  0.00  0.00    +0.000 OA
BRANCH  25  27
ATOM     27  OXT UNL     1      -3.187  11.577  15.151  0.00  0.00    +0.000 OA
ATOM     28  HXT UNL     1      -4.101  11.877  15.021  0.00  0.00    +0.000 HD
ENDBRANCH  25  27
ENDBRANCH  13  25
TORSDOF 6
ENDMDL
