MODEL 1
REMARK VINA RESULT:      -6.1      0.000      0.000
REMARK  Name = 
REMARK  8 active torsions:
REMARK  status: ('A' for Active; 'I' for Inactive)
REMARK    1  A    between atoms: C_1  and  C_2
REMARK    2  A    between atoms: C_2  and  C_4
REMARK    3  A    between atoms: C_7  and  O_8
REMARK    4  A    between atoms: O_8  and  C_9
REMARK    5  A    between atoms: C_9  and  C_10
REMARK    6  A    between atoms: C_10  and  O_11
REMARK    7  A    between atoms: C_10  and  C_12
REMARK    8  A    between atoms: C_12  and  O_13
REMARK                            x       y       z     vdW  Elec       q    Type
REMARK                         _______ _______ _______ _____ _____    ______ ____
ROOT
ATOM      1  C   UNL     1       2.198   3.867  18.505  0.00  0.00    +0.000 A 
ATOM      2  C   UNL     1       3.002   3.101  17.660  0.00  0.00    +0.000 A 
ATOM      3  C   UNL     1       4.032   3.699  16.936  0.00  0.00    +0.000 A 
ATOM      4  C   UNL     1       4.263   5.072  17.034  0.00  0.00    +0.000 A 
ATOM      5  C   UNL     1       3.442   5.846  17.859  0.00  0.00    +0.000 A 
ATOM      6  C   UNL     1       2.413   5.248  18.599  0.00  0.00    +0.000 A 
ENDROOT
BRANCH   1   8
ATOM      7  C   UNL     1       1.161   3.283  20.780  0.00  0.00    +0.000 C 
ATOM      8  C   UNL     1       1.150   3.160  19.281  0.00  0.00    +0.000 C 
ATOM      9  O   UNL     1       0.324   2.458  18.697  0.00  0.00    +0.000 OA
ENDBRANCH   1   8
BRANCH   4  10
ATOM     10  O   UNL     1       5.259   5.750  16.370  0.00  0.00    +0.000 OA
BRANCH  10  11
ATOM     11  C   UNL     1       6.518   5.077  16.324  0.00  0.00    +0.000 C 
BRANCH  11  12
ATOM     12  C   UNL     1       7.176   5.008  17.702  0.00  0.00    +0.000 C 
BRANCH  12  13
ATOM     13  O   UNL     1       8.268   4.079  17.640  0.00  0.00    +0.000 OA
ATOM     14  H   UNL     1       8.953   4.381  18.263  0.00  0.00    +0.000 HD
ENDBRANCH  12  13
BRANCH  12  15
ATOM     15  C   UNL     1       7.669   6.385  18.169  0.00  0.00    +0.000 C 
BRANCH  15  16
ATOM     16  O   UNL     1       7.506   7.363  17.145  0.00  0.00    +0.000 OA
ATOM     17  H   UNL     1       6.906   8.052  17.482  0.00  0.00    +0.000 HD
ENDBRANCH  15  16
ENDBRANCH  12  15
ENDBRANCH  11  12
ENDBRANCH  10  11
ENDBRANCH   4  10
TORSDOF 7
ENDMDL
MODEL 2
REMARK VINA RESULT:      -5.9      2.123      5.945
REMARK  Name = 
REMARK  8 active torsions:
REMARK  status: ('A' for Active; 'I' for Inactive)
REMARK    1  A    between atoms: C_1  and  C_2
REMARK    2  A    between atoms: C_2  and  C_4
REMARK    3  A    between atoms: C_7  and  O_8
REMARK    4  A    between atoms: O_8  and  C_9
REMARK    5  A    between atoms: C_9  and  C_10
REMARK    6  A    between atoms: C_10  and  O_11
REMARK    7  A    between atoms: C_10  and  C_12
REMARK    8  A    between atoms: C_12  and  O_13
REMARK                            x       y       z     vdW  Elec       q    Type
REMARK                         _______ _______ _______ _____ _____    ______ ____
ROOT
ATOM      1  C   UNL     1       5.605   4.912  15.567  0.00  0.00    +0.000 A 
ATOM      2  C   UNL     1       5.225   6.182  16.002  0.00  0.00    +0.000 A 
ATOM      3  C   UNL     1       4.260   6.326  16.996  0.00  0.00    +0.000 A 
ATOM      4  C   UNL     1       3.649   5.204  17.559  0.00  0.00    +0.000 A 
ATOM      5  C   UNL     1       4.007   3.931  17.106  0.00  0.00    +0.000 A 
ATOM      6  C   UNL     1       4.987   3.781  16.115  0.00  0.00    +0.000 A 
ENDROOT
BRANCH   1   8
ATOM      7  C   UNL     1       6.437   3.965  13.330  0.00  0.00    +0.000 C 
ATOM      8  C   UNL     1       6.671   4.829  14.539  0.00  0.00    +0.000 C 
ATOM      9  O   UNL     1       7.734   5.427  14.708  0.00  0.00    +0.000 OA
ENDBRANCH   1   8
BRANCH   4  10
ATOM     10  O   UNL     1       2.696   5.244  18.551  0.00  0.00    +0.000 OA
BRANCH  10  11
ATOM     11  C   UNL     1       1.851   4.095  18.620  0.00  0.00    +0.000 C 
BRANCH  11  12
ATOM     12  C   UNL     1       1.070   4.043  19.932  0.00  0.00    +0.000 C 
BRANCH  12  13
ATOM     13  O   UNL     1       0.318   2.821  19.967  0.00  0.00    +0.000 OA
ATOM     14  H   UNL     1       0.526   2.366  20.803  0.00  0.00    +0.000 HD
ENDBRANCH  12  13
BRANCH  12  15
ATOM     15  C   UNL     1       1.996   4.138  21.153  0.00  0.00    +0.000 C 
BRANCH  15  16
ATOM     16  O   UNL     1       2.494   5.464  21.317  0.00  0.00    +0.000 OA
ATOM     17  H   UNL     1       2.890   5.525  22.205  0.00  0.00    +0.000 HD
ENDBRANCH  15  16
ENDBRANCH  12  15
ENDBRANCH  11  12
ENDBRANCH  10  11
ENDBRANCH   4  10
TORSDOF 7
ENDMDL
MODEL 3
REMARK VINA RESULT:      -5.9      1.009      1.677
REMARK  Name = 
REMARK  8 active torsions:
REMARK  status: ('A' for Active; 'I' for Inactive)
REMARK    1  A    between atoms: C_1  and  C_2
REMARK    2  A    between atoms: C_2  and  C_4
REMARK    3  A    between atoms: C_7  and  O_8
REMARK    4  A    between atoms: O_8  and  C_9
REMARK    5  A    between atoms: C_9  and  C_10
REMARK    6  A    between atoms: C_10  and  O_11
REMARK    7  A    between atoms: C_10  and  C_12
REMARK    8  A    between atoms: C_12  and  O_13
REMARK                            x       y       z     vdW  Elec       q    Type
REMARK                         _______ _______ _______ _____ _____    ______ ____
ROOT
ATOM      1  C   UNL     1       2.296   3.502  18.356  0.00  0.00    +0.000 A 
ATOM      2  C   UNL     1       2.499   4.882  18.311  0.00  0.00    +0.000 A 
ATOM      3  C   UNL     1       3.570   5.413  17.594  0.00  0.00    +0.000 A 
ATOM      4  C   UNL     1       4.462   4.572  16.927  0.00  0.00    +0.000 A 
ATOM      5  C   UNL     1       4.278   3.188  16.993  0.00  0.00    +0.000 A 
ATOM      6  C   UNL     1       3.194   2.650  17.702  0.00  0.00    +0.000 A 
ENDROOT
BRANCH   1   8
ATOM      7  C   UNL     1       1.033   3.260  20.578  0.00  0.00    +0.000 C 
ATOM      8  C   UNL     1       1.111   3.007  19.098  0.00  0.00    +0.000 C 
ATOM      9  O   UNL     1       0.240   2.368  18.506  0.00  0.00    +0.000 OA
ENDBRANCH   1   8
BRANCH   4  10
ATOM     10  O   UNL     1       5.539   5.000  16.186  0.00  0.00    +0.000 OA
BRANCH  10  11
ATOM     11  C   UNL     1       6.529   5.720  16.922  0.00  0.00    +0.000 C 
BRANCH  11  12
ATOM     12  C   UNL     1       7.076   4.901  18.090  0.00  0.00    +0.000 C 
BRANCH  12  13
ATOM     13  O   UNL     1       8.186   4.122  17.620  0.00  0.00    +0.000 OA
ATOM     14  H   UNL     1       8.891   4.173  18.290  0.00  0.00    +0.000 HD
ENDBRANCH  12  13
BRANCH  12  15
ATOM     15  C   UNL     1       7.505   5.793  19.263  0.00  0.00    +0.000 C 
BRANCH  15  16
ATOM     16  O   UNL     1       8.523   5.166  20.039  0.00  0.00    +0.000 OA
ATOM     17  H   UNL     1       8.647   4.264  19.695  0.00  0.00    +0.000 HD
ENDBRANCH  15  16
ENDBRANCH  12  15
ENDBRANCH  11  12
ENDBRANCH  10  11
ENDBRANCH   4  10
TORSDOF 7
ENDMDL
MODEL 4
REMARK VINA RESULT:      -5.9      1.961      5.818
REMARK  Name = 
REMARK  8 active torsions:
REMARK  status: ('A' for Active; 'I' for Inactive)
REMARK    1  A    between atoms: C_1  and  C_2
REMARK    2  A    between atoms: C_2  and  C_4
REMARK    3  A    between atoms: C_7  and  O_8
REMARK    4  A    between atoms: O_8  and  C_9
REMARK    5  A    between atoms: C_9  and  C_10
REMARK    6  A    between atoms: C_10  and  O_11
REMARK    7  A    between atoms: C_10  and  C_12
REMARK    8  A    between atoms: C_12  and  O_13
REMARK                            x       y       z     vdW  Elec       q    Type
REMARK                         _______ _______ _______ _____ _____    ______ ____
ROOT
ATOM      1  C   UNL     1       5.497   4.858  15.871  0.00  0.00    +0.000 A 
ATOM      2  C   UNL     1       5.032   3.622  16.323  0.00  0.00    +0.000 A 
ATOM      3  C   UNL     1       4.037   3.557  17.297  0.00  0.00    +0.000 A 
ATOM      4  C   UNL     1       3.504   4.725  17.845  0.00  0.00    +0.000 A 
ATOM      5  C   UNL     1       3.988   5.964  17.415  0.00  0.00    +0.000 A 
ATOM      6  C   UNL     1       4.979   6.035  16.426  0.00  0.00    +0.000 A 
ENDROOT
BRANCH   1   8
ATOM      7  C   UNL     1       6.306   3.976  13.600  0.00  0.00    +0.000 C 
ATOM      8  C   UNL     1       6.523   4.855  14.801  0.00  0.00    +0.000 C 
ATOM      9  O   UNL     1       7.545   5.531  14.930  0.00  0.00    +0.000 OA
ENDBRANCH   1   8
BRANCH   4  10
ATOM     10  O   UNL     1       2.515   4.764  18.799  0.00  0.00    +0.000 OA
BRANCH  10  11
ATOM     11  C   UNL     1       2.955   4.511  20.134  0.00  0.00    +0.000 C 
BRANCH  11  12
ATOM     12  C   UNL     1       2.436   3.174  20.659  0.00  0.00    +0.000 C 
BRANCH  12  13
ATOM     13  O   UNL     1       2.201   3.298  22.070  0.00  0.00    +0.000 OA
ATOM     14  H   UNL     1       2.050   2.404  22.427  0.00  0.00    +0.000 HD
ENDBRANCH  12  13
BRANCH  12  15
ATOM     15  C   UNL     1       1.154   2.735  19.938  0.00  0.00    +0.000 C 
BRANCH  15  16
ATOM     16  O   UNL     1       1.447   1.828  18.877  0.00  0.00    +0.000 OA
ATOM     17  H   UNL     1       0.991   2.147  18.078  0.00  0.00    +0.000 HD
ENDBRANCH  15  16
ENDBRANCH  12  15
ENDBRANCH  11  12
ENDBRANCH  10  11
ENDBRANCH   4  10
TORSDOF 7
ENDMDL
MODEL 5
REMARK VINA RESULT:      -5.9      0.966      1.087
REMARK  Name = 
REMARK  8 active torsions:
REMARK  status: ('A' for Active; 'I' for Inactive)
REMARK    1  A    between atoms: C_1  and  C_2
REMARK    2  A    between atoms: C_2  and  C_4
REMARK    3  A    between atoms: C_7  and  O_8
REMARK    4  A    between atoms: O_8  and  C_9
REMARK    5  A    between atoms: C_9  and  C_10
REMARK    6  A    between atoms: C_10  and  O_11
REMARK    7  A    between atoms: C_10  and  C_12
REMARK    8  A    between atoms: C_12  and  O_13
REMARK                            x       y       z     vdW  Elec       q    Type
REMARK                         _______ _______ _______ _____ _____    ______ ____
ROOT
ATOM      1  C   UNL     1       2.063   3.686  18.525  0.00  0.00    +0.000 A 
ATOM      2  C   UNL     1       2.836   2.922  17.649  0.00  0.00    +0.000 A 
ATOM      3  C   UNL     1       3.851   3.518  16.904  0.00  0.00    +0.000 A 
ATOM      4  C   UNL     1       4.098   4.888  17.011  0.00  0.00    +0.000 A 
ATOM      5  C   UNL     1       3.308   5.660  17.866  0.00  0.00    +0.000 A 
ATOM      6  C   UNL     1       2.294   5.063  18.628  0.00  0.00    +0.000 A 
ENDROOT
BRANCH   1   8
ATOM      7  C   UNL     1       1.071   3.102  20.819  0.00  0.00    +0.000 C 
ATOM      8  C   UNL     1       1.030   2.980  19.321  0.00  0.00    +0.000 C 
ATOM      9  O   UNL     1       0.191   2.279  18.754  0.00  0.00    +0.000 OA
ENDBRANCH   1   8
BRANCH   4  10
ATOM     10  O   UNL     1       5.083   5.564  16.327  0.00  0.00    +0.000 OA
BRANCH  10  11
ATOM     11  C   UNL     1       6.111   6.121  17.147  0.00  0.00    +0.000 C 
BRANCH  11  12
ATOM     12  C   UNL     1       7.042   5.045  17.701  0.00  0.00    +0.000 C 
BRANCH  12  13
ATOM     13  O   UNL     1       7.869   4.563  16.631  0.00  0.00    +0.000 OA
ATOM     14  H   UNL     1       8.799   4.714  16.882  0.00  0.00    +0.000 HD
ENDBRANCH  12  13
BRANCH  12  15
ATOM     15  C   UNL     1       7.908   5.575  18.852  0.00  0.00    +0.000 C 
BRANCH  15  16
ATOM     16  O   UNL     1       7.250   5.413  20.106  0.00  0.00    +0.000 OA
ATOM     17  H   UNL     1       6.977   4.482  20.181  0.00  0.00    +0.000 HD
ENDBRANCH  15  16
ENDBRANCH  12  15
ENDBRANCH  11  12
ENDBRANCH  10  11
ENDBRANCH   4  10
TORSDOF 7
ENDMDL
MODEL 6
REMARK VINA RESULT:      -5.8      2.042      5.991
REMARK  Name = 
REMARK  8 active torsions:
REMARK  status: ('A' for Active; 'I' for Inactive)
REMARK    1  A    between atoms: C_1  and  C_2
REMARK    2  A    between atoms: C_2  and  C_4
REMARK    3  A    between atoms: C_7  and  O_8
REMARK    4  A    between atoms: O_8  and  C_9
REMARK    5  A    between atoms: C_9  and  C_10
REMARK    6  A    between atoms: C_10  and  O_11
REMARK    7  A    between atoms: C_10  and  C_12
REMARK    8  A    between atoms: C_12  and  O_13
REMARK                            x       y       z     vdW  Elec       q    Type
REMARK                         _______ _______ _______ _____ _____    ______ ____
ROOT
ATOM      1  C   UNL     1       5.933   4.488  16.205  0.00  0.00    +0.000 A 
ATOM      2  C   UNL     1       6.561   4.583  17.448  0.00  0.00    +0.000 A 
ATOM      3  C   UNL     1       5.852   4.310  18.617  0.00  0.00    +0.000 A 
ATOM      4  C   UNL     1       4.503   3.956  18.562  0.00  0.00    +0.000 A 
ATOM      5  C   UNL     1       3.864   3.887  17.320  0.00  0.00    +0.000 A 
ATOM      6  C   UNL     1       4.576   4.148  16.141  0.00  0.00    +0.000 A 
ENDROOT
BRANCH   1   8
ATOM      7  C   UNL     1       6.408   4.030  13.724  0.00  0.00    +0.000 C 
ATOM      8  C   UNL     1       6.757   4.747  15.000  0.00  0.00    +0.000 C 
ATOM      9  O   UNL     1       7.727   5.502  15.071  0.00  0.00    +0.000 OA
ENDBRANCH   1   8
BRANCH   4  10
ATOM     10  O   UNL     1       3.724   3.658  19.656  0.00  0.00    +0.000 OA
BRANCH  10  11
ATOM     11  C   UNL     1       2.352   4.033  19.539  0.00  0.00    +0.000 C 
BRANCH  11  12
ATOM     12  C   UNL     1       1.415   2.886  19.915  0.00  0.00    +0.000 C 
BRANCH  12  13
ATOM     13  O   UNL     1       1.845   1.702  19.226  0.00  0.00    +0.000 OA
ATOM     14  H   UNL     1       2.517   1.966  18.571  0.00  0.00    +0.000 HD
ENDBRANCH  12  13
BRANCH  12  15
ATOM     15  C   UNL     1       1.386   2.645  21.430  0.00  0.00    +0.000 C 
BRANCH  15  16
ATOM     16  O   UNL     1       2.681   2.811  22.002  0.00  0.00    +0.000 OA
ATOM     17  H   UNL     1       2.843   3.766  22.102  0.00  0.00    +0.000 HD
ENDBRANCH  15  16
ENDBRANCH  12  15
ENDBRANCH  11  12
ENDBRANCH  10  11
ENDBRANCH   4  10
TORSDOF 7
ENDMDL
MODEL 7
REMARK VINA RESULT:      -5.8      1.806      6.077
REMARK  Name = 
REMARK  8 active torsions:
REMARK  status: ('A' for Active; 'I' for Inactive)
REMARK    1  A    between atoms: C_1  and  C_2
REMARK    2  A    between atoms: C_2  and  C_4
REMARK    3  A    between atoms: C_7  and  O_8
REMARK    4  A    between atoms: O_8  and  C_9
REMARK    5  A    between atoms: C_9  and  C_10
REMARK    6  A    between atoms: C_10  and  O_11
REMARK    7  A    between atoms: C_10  and  C_12
REMARK    8  A    between atoms: C_12  and  O_13
REMARK                            x       y       z     vdW  Elec       q    Type
REMARK                         _______ _______ _______ _____ _____    ______ ____
ROOT
ATOM      1  C   UNL     1       6.077   5.552  17.497  0.00  0.00    +0.000 A 
ATOM      2  C   UNL     1       5.161   4.947  16.636  0.00  0.00    +0.000 A 
ATOM      3  C   UNL     1       4.090   4.217  17.149  0.00  0.00    +0.000 A 
ATOM      4  C   UNL     1       3.929   4.068  18.527  0.00  0.00    +0.000 A 
ATOM      5  C   UNL     1       4.861   4.650  19.391  0.00  0.00    +0.000 A 
ATOM      6  C   UNL     1       5.933   5.396  18.881  0.00  0.00    +0.000 A 
ENDROOT
BRANCH   1   8
ATOM      7  C   UNL     1       7.653   7.576  17.611  0.00  0.00    +0.000 C 
ATOM      8  C   UNL     1       7.167   6.352  16.885  0.00  0.00    +0.000 C 
ATOM      9  O   UNL     1       7.621   6.031  15.787  0.00  0.00    +0.000 OA
ENDBRANCH   1   8
BRANCH   4  10
ATOM     10  O   UNL     1       2.901   3.379  19.128  0.00  0.00    +0.000 OA
BRANCH  10  11
ATOM     11  C   UNL     1       1.750   4.164  19.440  0.00  0.00    +0.000 C 
BRANCH  11  12
ATOM     12  C   UNL     1       0.728   3.375  20.257  0.00  0.00    +0.000 C 
BRANCH  12  13
ATOM     13  O   UNL     1       0.064   2.449  19.383  0.00  0.00    +0.000 OA
ATOM     14  H   UNL     1       0.672   1.706  19.219  0.00  0.00    +0.000 HD
ENDBRANCH  12  13
BRANCH  12  15
ATOM     15  C   UNL     1       1.384   2.631  21.428  0.00  0.00    +0.000 C 
BRANCH  15  16
ATOM     16  O   UNL     1       2.315   3.468  22.111  0.00  0.00    +0.000 OA
ATOM     17  H   UNL     1       2.723   4.058  21.453  0.00  0.00    +0.000 HD
ENDBRANCH  15  16
ENDBRANCH  12  15
ENDBRANCH  11  12
ENDBRANCH  10  11
ENDBRANCH   4  10
TORSDOF 7
ENDMDL
MODEL 8
REMARK VINA RESULT:      -5.8      1.620      5.902
REMARK  Name = 
REMARK  8 active torsions:
REMARK  status: ('A' for Active; 'I' for Inactive)
REMARK    1  A    between atoms: C_1  and  C_2
REMARK    2  A    between atoms: C_2  and  C_4
REMARK    3  A    between atoms: C_7  and  O_8
REMARK    4  A    between atoms: O_8  and  C_9
REMARK    5  A    between atoms: C_9  and  C_10
REMARK    6  A    between atoms: C_10  and  O_11
REMARK    7  A    between atoms: C_10  and  C_12
REMARK    8  A    between atoms: C_12  and  O_13
REMARK                            x       y       z     vdW  Elec       q    Type
REMARK                         _______ _______ _______ _____ _____    ______ ____
ROOT
ATOM      1  C   UNL     1       5.437   5.208  16.354  0.00  0.00    +0.000 A 
ATOM      2  C   UNL     1       4.921   6.319  17.021  0.00  0.00    +0.000 A 
ATOM      3  C   UNL     1       3.793   6.193  17.831  0.00  0.00    +0.000 A 
ATOM      4  C   UNL     1       3.157   4.959  17.972  0.00  0.00    +0.000 A 
ATOM      5  C   UNL     1       3.655   3.849  17.283  0.00  0.00    +0.000 A 
ATOM      6  C   UNL     1       4.796   3.968  16.477  0.00  0.00    +0.000 A 
ENDROOT
BRANCH   1   8
ATOM      7  C   UNL     1       6.791   4.664  14.241  0.00  0.00    +0.000 C 
ATOM      8  C   UNL     1       6.665   5.403  15.545  0.00  0.00    +0.000 C 
ATOM      9  O   UNL     1       7.570   6.123  15.969  0.00  0.00    +0.000 OA
ENDBRANCH   1   8
BRANCH   4  10
ATOM     10  O   UNL     1       2.049   4.732  18.756  0.00  0.00    +0.000 OA
BRANCH  10  11
ATOM     11  C   UNL     1       1.166   3.719  18.272  0.00  0.00    +0.000 C 
BRANCH  11  12
ATOM     12  C   UNL     1       0.913   2.638  19.322  0.00  0.00    +0.000 C 
BRANCH  12  13
ATOM     13  O   UNL     1       1.655   1.466  18.957  0.00  0.00    +0.000 OA
ATOM     14  H   UNL     1       2.492   1.475  19.458  0.00  0.00    +0.000 HD
ENDBRANCH  12  13
BRANCH  12  15
ATOM     15  C   UNL     1       1.305   3.106  20.730  0.00  0.00    +0.000 C 
BRANCH  15  16
ATOM     16  O   UNL     1       2.693   2.892  20.974  0.00  0.00    +0.000 OA
ATOM     17  H   UNL     1       3.150   2.889  20.114  0.00  0.00    +0.000 HD
ENDBRANCH  15  16
ENDBRANCH  12  15
ENDBRANCH  11  12
ENDBRANCH  10  11
ENDBRANCH   4  10
TORSDOF 7
ENDMDL
MODEL 9
REMARK VINA RESULT:      -5.8      0.678      1.300
REMARK  Name = 
REMARK  8 active torsions:
REMARK  status: ('A' for Active; 'I' for Inactive)
REMARK    1  A    between atoms: C_1  and  C_2
REMARK    2  A    between atoms: C_2  and  C_4
REMARK    3  A    between atoms: C_7  and  O_8
REMARK    4  A    between atoms: O_8  and  C_9
REMARK    5  A    between atoms: C_9  and  C_10
REMARK    6  A    between atoms: C_10  and  O_11
REMARK    7  A    between atoms: C_10  and  C_12
REMARK    8  A    between atoms: C_12  and  O_13
REMARK                            x       y       z     vdW  Elec       q    Type
REMARK                         _______ _______ _______ _____ _____    ______ ____
ROOT
ATOM      1  C   UNL     1       2.099   3.685  19.059  0.00  0.00    +0.000 A 
ATOM      2  C   UNL     1       2.737   4.745  19.705  0.00  0.00    +0.000 A 
ATOM      3  C   UNL     1       3.690   5.508  19.033  0.00  0.00    +0.000 A 
ATOM      4  C   UNL     1       4.031   5.213  17.712  0.00  0.00    +0.000 A 
ATOM      5  C   UNL     1       3.415   4.134  17.071  0.00  0.00    +0.000 A 
ATOM      6  C   UNL     1       2.446   3.372  17.739  0.00  0.00    +0.000 A 
ENDROOT
BRANCH   1   8
ATOM      7  C   UNL     1       1.149   2.922  21.319  0.00  0.00    +0.000 C 
ATOM      8  C   UNL     1       1.063   2.943  19.818  0.00  0.00    +0.000 C 
ATOM      9  O   UNL     1       0.183   2.329  19.213  0.00  0.00    +0.000 OA
ENDBRANCH   1   8
BRANCH   4  10
ATOM     10  O   UNL     1       4.948   5.913  16.963  0.00  0.00    +0.000 OA
BRANCH  10  11
ATOM     11  C   UNL     1       6.119   5.179  16.604  0.00  0.00    +0.000 C 
BRANCH  11  12
ATOM     12  C   UNL     1       7.091   5.051  17.776  0.00  0.00    +0.000 C 
BRANCH  12  13
ATOM     13  O   UNL     1       8.133   4.137  17.406  0.00  0.00    +0.000 OA
ATOM     14  H   UNL     1       8.979   4.505  17.721  0.00  0.00    +0.000 HD
ENDBRANCH  12  13
BRANCH  12  15
ATOM     15  C   UNL     1       7.685   6.409  18.176  0.00  0.00    +0.000 C 
BRANCH  15  16
ATOM     16  O   UNL     1       7.606   7.341  17.100  0.00  0.00    +0.000 OA
ATOM     17  H   UNL     1       8.503   7.460  16.742  0.00  0.00    +0.000 HD
ENDBRANCH  15  16
ENDBRANCH  12  15
ENDBRANCH  11  12
ENDBRANCH  10  11
ENDBRANCH   4  10
TORSDOF 7
ENDMDL
