MODEL 1
REMARK VINA RESULT:      -6.8      0.000      0.000
REMARK  Name = 
REMARK  7 active torsions:
REMARK  status: ('A' for Active; 'I' for Inactive)
REMARK    1  A    between atoms: C_1  and  C_2
REMARK    2  A    between atoms: C_5  and  S_6
REMARK    3  A    between atoms: S_6  and  N_9
REMARK    4  A    between atoms: N_12  and  C_13
REMARK    5  A    between atoms: C_19  and  C_20
REMARK    6  A    between atoms: C_21  and  C_22
REMARK    7  A    between atoms: C_26  and  C_27
REMARK                            x       y       z     vdW  Elec       q    Type
REMARK                         _______ _______ _______ _____ _____    ______ ____
ROOT
ATOM      1  N   UNL     1       0.155   9.730  20.212  0.00  0.00    +0.000 NA
ATOM      2  C   UNL     1       0.386   8.948  18.970  0.00  0.00    +0.000 C 
ATOM      3  C   UNL     1       1.840   8.462  18.921  0.00  0.00    +0.000 C 
ATOM      4  N   UNL     1       2.145   7.605  20.072  0.00  0.00    +0.000 N 
ATOM      5  C   UNL     1       1.736   8.112  21.390  0.00  0.00    +0.000 C 
ATOM      6  C   UNL     1       0.451   8.958  21.438  0.00  0.00    +0.000 C 
ENDROOT
BRANCH   4   7
ATOM      7  C   UNL     1       2.136   6.237  19.827  0.00  0.00    +0.000 A 
ATOM      8  N   UNL     1       1.238   5.478  20.511  0.00  0.00    +0.000 NA
ATOM      9  C   UNL     1       1.081   4.186  20.194  0.00  0.00    +0.000 A 
ATOM     10  N   UNL     1       1.721   3.506  19.250  0.00  0.00    +0.000 NA
ATOM     11  C   UNL     1       2.606   4.265  18.583  0.00  0.00    +0.000 A 
ATOM     12  S   UNL     1       3.487   3.581  17.301  0.00  0.00    +0.000 S 
ATOM     13  C   UNL     1       4.286   5.046  16.974  0.00  0.00    +0.000 A 
ATOM     14  C   UNL     1       5.274   5.120  15.854  0.00  0.00    +0.000 C 
ATOM     15  C   UNL     1       3.896   6.066  17.832  0.00  0.00    +0.000 A 
ATOM     16  C   UNL     1       4.449   7.452  17.733  0.00  0.00    +0.000 C 
ATOM     17  C   UNL     1       2.896   5.608  18.800  0.00  0.00    +0.000 A 
ENDBRANCH   4   7
BRANCH   1  18
ATOM     18  S   UNL     1       0.495  11.382  20.170  0.00  0.00    +0.000 S 
ATOM     19  O   UNL     1       0.687  11.762  18.783  0.00  0.00    +0.000 OA
ATOM     20  O   UNL     1       1.483  11.712  21.172  0.00  0.00    +0.000 OA
BRANCH  18  25
ATOM     21  C   UNL     1      -4.648  14.028  22.063  0.00  0.00    +0.000 C 
ATOM     22  C   UNL     1      -3.407  13.313  21.624  0.00  0.00    +0.000 A 
ATOM     23  C   UNL     1      -2.322  13.145  22.485  0.00  0.00    +0.000 A 
ATOM     24  C   UNL     1      -1.163  12.511  22.039  0.00  0.00    +0.000 A 
ATOM     25  C   UNL     1      -1.074  12.042  20.720  0.00  0.00    +0.000 A 
ATOM     26  C   UNL     1      -2.163  12.174  19.837  0.00  0.00    +0.000 A 
ATOM     27  C   UNL     1      -2.187  11.708  18.412  0.00  0.00    +0.000 C 
ATOM     28  C   UNL     1      -3.321  12.817  20.315  0.00  0.00    +0.000 A 
ENDBRANCH  18  25
ENDBRANCH   1  18
TORSDOF 3
ENDMDL
MODEL 2
REMARK VINA RESULT:      -6.8      1.118      1.238
REMARK  Name = 
REMARK  7 active torsions:
REMARK  status: ('A' for Active; 'I' for Inactive)
REMARK    1  A    between atoms: C_1  and  C_2
REMARK    2  A    between atoms: C_5  and  S_6
REMARK    3  A    between atoms: S_6  and  N_9
REMARK    4  A    between atoms: N_12  and  C_13
REMARK    5  A    between atoms: C_19  and  C_20
REMARK    6  A    between atoms: C_21  and  C_22
REMARK    7  A    between atoms: C_26  and  C_27
REMARK                            x       y       z     vdW  Elec       q    Type
REMARK                         _______ _______ _______ _____ _____    ______ ____
ROOT
ATOM      1  N   UNL     1       0.563   9.431  19.543  0.00  0.00    +0.000 NA
ATOM      2  C   UNL     1       0.869   8.933  18.176  0.00  0.00    +0.000 C 
ATOM      3  C   UNL     1       2.333   8.484  18.098  0.00  0.00    +0.000 C 
ATOM      4  N   UNL     1       2.601   7.404  19.055  0.00  0.00    +0.000 N 
ATOM      5  C   UNL     1       2.120   7.613  20.428  0.00  0.00    +0.000 C 
ATOM      6  C   UNL     1       0.817   8.417  20.590  0.00  0.00    +0.000 C 
ENDROOT
BRANCH   4   7
ATOM      7  C   UNL     1       2.631   6.119  18.525  0.00  0.00    +0.000 A 
ATOM      8  N   UNL     1       1.498   5.372  18.613  0.00  0.00    +0.000 NA
ATOM      9  C   UNL     1       1.427   4.194  17.978  0.00  0.00    +0.000 A 
ATOM     10  N   UNL     1       2.366   3.625  17.232  0.00  0.00    +0.000 NA
ATOM     11  C   UNL     1       3.480   4.371  17.152  0.00  0.00    +0.000 A 
ATOM     12  S   UNL     1       4.777   3.829  16.198  0.00  0.00    +0.000 S 
ATOM     13  C   UNL     1       5.705   5.210  16.548  0.00  0.00    +0.000 A 
ATOM     14  C   UNL     1       7.067   5.361  15.950  0.00  0.00    +0.000 C 
ATOM     15  C   UNL     1       5.044   6.093  17.391  0.00  0.00    +0.000 A 
ATOM     16  C   UNL     1       5.651   7.387  17.830  0.00  0.00    +0.000 C 
ATOM     17  C   UNL     1       3.716   5.599  17.762  0.00  0.00    +0.000 A 
ENDBRANCH   4   7
BRANCH   1  18
ATOM     18  S   UNL     1       0.873  11.057  19.870  0.00  0.00    +0.000 S 
ATOM     19  O   UNL     1       1.196  11.710  18.615  0.00  0.00    +0.000 OA
ATOM     20  O   UNL     1       1.746  11.177  21.015  0.00  0.00    +0.000 OA
BRANCH  18  25
ATOM     21  C   UNL     1      -4.492  13.268  21.706  0.00  0.00    +0.000 C 
ATOM     22  C   UNL     1      -3.197  12.656  21.266  0.00  0.00    +0.000 A 
ATOM     23  C   UNL     1      -2.196  12.336  22.184  0.00  0.00    +0.000 A 
ATOM     24  C   UNL     1      -0.985  11.804  21.744  0.00  0.00    +0.000 A 
ATOM     25  C   UNL     1      -0.758  11.592  20.376  0.00  0.00    +0.000 A 
ATOM     26  C   UNL     1      -1.760  11.882  19.430  0.00  0.00    +0.000 A 
ATOM     27  C   UNL     1      -1.636  11.692  17.947  0.00  0.00    +0.000 C 
ATOM     28  C   UNL     1      -2.974  12.417  19.902  0.00  0.00    +0.000 A 
ENDBRANCH  18  25
ENDBRANCH   1  18
TORSDOF 3
ENDMDL
MODEL 3
REMARK VINA RESULT:      -6.8      1.337      1.982
REMARK  Name = 
REMARK  7 active torsions:
REMARK  status: ('A' for Active; 'I' for Inactive)
REMARK    1  A    between atoms: C_1  and  C_2
REMARK    2  A    between atoms: C_5  and  S_6
REMARK    3  A    between atoms: S_6  and  N_9
REMARK    4  A    between atoms: N_12  and  C_13
REMARK    5  A    between atoms: C_19  and  C_20
REMARK    6  A    between atoms: C_21  and  C_22
REMARK    7  A    between atoms: C_26  and  C_27
REMARK                            x       y       z     vdW  Elec       q    Type
REMARK                         _______ _______ _______ _____ _____    ______ ____
ROOT
ATOM      1  N   UNL     1       0.669   9.327  19.403  0.00  0.00    +0.000 NA
ATOM      2  C   UNL     1       1.001   8.827  18.043  0.00  0.00    +0.000 C 
ATOM      3  C   UNL     1       2.464   8.370  17.996  0.00  0.00    +0.000 C 
ATOM      4  N   UNL     1       2.706   7.289  18.959  0.00  0.00    +0.000 N 
ATOM      5  C   UNL     1       2.198   7.503  20.321  0.00  0.00    +0.000 C 
ATOM      6  C   UNL     1       0.896   8.314  20.456  0.00  0.00    +0.000 C 
ENDROOT
BRANCH   4   7
ATOM      7  C   UNL     1       2.741   6.005  18.431  0.00  0.00    +0.000 A 
ATOM      8  N   UNL     1       1.610   5.255  18.516  0.00  0.00    +0.000 NA
ATOM      9  C   UNL     1       1.543   4.076  17.883  0.00  0.00    +0.000 A 
ATOM     10  N   UNL     1       2.486   3.508  17.140  0.00  0.00    +0.000 NA
ATOM     11  C   UNL     1       3.598   4.256  17.064  0.00  0.00    +0.000 A 
ATOM     12  S   UNL     1       4.900   3.715  16.114  0.00  0.00    +0.000 S 
ATOM     13  C   UNL     1       5.824   5.099  16.466  0.00  0.00    +0.000 A 
ATOM     14  C   UNL     1       7.187   5.252  15.872  0.00  0.00    +0.000 C 
ATOM     15  C   UNL     1       5.158   5.982  17.306  0.00  0.00    +0.000 A 
ATOM     16  C   UNL     1       5.761   7.278  17.745  0.00  0.00    +0.000 C 
ATOM     17  C   UNL     1       3.830   5.486  17.672  0.00  0.00    +0.000 A 
ENDBRANCH   4   7
BRANCH   1  18
ATOM     18  S   UNL     1       0.979  10.952  19.735  0.00  0.00    +0.000 S 
ATOM     19  O   UNL     1       1.693  11.509  18.601  0.00  0.00    +0.000 OA
ATOM     20  O   UNL     1       1.493  11.096  21.078  0.00  0.00    +0.000 OA
BRANCH  18  25
ATOM     21  C   UNL     1      -4.837  12.742  19.758  0.00  0.00    +0.000 C 
ATOM     22  C   UNL     1      -3.389  12.361  19.712  0.00  0.00    +0.000 A 
ATOM     23  C   UNL     1      -2.867  11.616  18.654  0.00  0.00    +0.000 A 
ATOM     24  C   UNL     1      -1.525  11.240  18.655  0.00  0.00    +0.000 A 
ATOM     25  C   UNL     1      -0.688  11.600  19.722  0.00  0.00    +0.000 A 
ATOM     26  C   UNL     1      -1.181  12.374  20.790  0.00  0.00    +0.000 A 
ATOM     27  C   UNL     1      -0.383  12.824  21.978  0.00  0.00    +0.000 C 
ATOM     28  C   UNL     1      -2.540  12.741  20.762  0.00  0.00    +0.000 A 
ENDBRANCH  18  25
ENDBRANCH   1  18
TORSDOF 3
ENDMDL
MODEL 4
REMARK VINA RESULT:      -6.7      3.086      8.953
REMARK  Name = 
REMARK  7 active torsions:
REMARK  status: ('A' for Active; 'I' for Inactive)
REMARK    1  A    between atoms: C_1  and  C_2
REMARK    2  A    between atoms: C_5  and  S_6
REMARK    3  A    between atoms: S_6  and  N_9
REMARK    4  A    between atoms: N_12  and  C_13
REMARK    5  A    between atoms: C_19  and  C_20
REMARK    6  A    between atoms: C_21  and  C_22
REMARK    7  A    between atoms: C_26  and  C_27
REMARK                            x       y       z     vdW  Elec       q    Type
REMARK                         _______ _______ _______ _____ _____    ______ ____
ROOT
ATOM      1  N   UNL     1      -0.192  11.422  18.566  0.00  0.00    +0.000 NA
ATOM      2  C   UNL     1      -1.245  10.479  19.027  0.00  0.00    +0.000 C 
ATOM      3  C   UNL     1      -1.980  11.067  20.238  0.00  0.00    +0.000 C 
ATOM      4  N   UNL     1      -2.618  12.343  19.895  0.00  0.00    +0.000 N 
ATOM      5  C   UNL     1      -1.783  13.319  19.179  0.00  0.00    +0.000 C 
ATOM      6  C   UNL     1      -0.731  12.752  18.209  0.00  0.00    +0.000 C 
ENDROOT
BRANCH   4   7
ATOM      7  C   UNL     1      -3.983  12.288  19.641  0.00  0.00    +0.000 A 
ATOM      8  N   UNL     1      -4.380  11.879  18.406  0.00  0.00    +0.000 NA
ATOM      9  C   UNL     1      -5.679  11.656  18.165  0.00  0.00    +0.000 A 
ATOM     10  N   UNL     1      -6.689  11.789  19.017  0.00  0.00    +0.000 NA
ATOM     11  C   UNL     1      -6.285  12.193  20.232  0.00  0.00    +0.000 A 
ATOM     12  S   UNL     1      -7.433  12.371  21.473  0.00  0.00    +0.000 S 
ATOM     13  C   UNL     1      -6.246  12.829  22.601  0.00  0.00    +0.000 A 
ATOM     14  C   UNL     1      -6.641  13.139  24.009  0.00  0.00    +0.000 C 
ATOM     15  C   UNL     1      -4.972  12.855  22.050  0.00  0.00    +0.000 A 
ATOM     16  C   UNL     1      -3.761  13.215  22.850  0.00  0.00    +0.000 C 
ATOM     17  C   UNL     1      -4.985  12.481  20.635  0.00  0.00    +0.000 A 
ENDBRANCH   4   7
BRANCH   1  18
ATOM     18  S   UNL     1       1.328  11.311  19.291  0.00  0.00    +0.000 S 
ATOM     19  O   UNL     1       1.165  11.575  20.709  0.00  0.00    +0.000 OA
ATOM     20  O   UNL     1       2.306  12.033  18.510  0.00  0.00    +0.000 OA
BRANCH  18  25
ATOM     21  C   UNL     1       2.860   5.470  18.530  0.00  0.00    +0.000 C 
ATOM     22  C   UNL     1       2.415   6.892  18.693  0.00  0.00    +0.000 A 
ATOM     23  C   UNL     1       2.479   7.798  17.634  0.00  0.00    +0.000 A 
ATOM     24  C   UNL     1       2.096   9.126  17.823  0.00  0.00    +0.000 A 
ATOM     25  C   UNL     1       1.651   9.564  19.079  0.00  0.00    +0.000 A 
ATOM     26  C   UNL     1       1.552   8.665  20.159  0.00  0.00    +0.000 A 
ATOM     27  C   UNL     1       1.085   9.014  21.540  0.00  0.00    +0.000 C 
ATOM     28  C   UNL     1       1.943   7.330  19.939  0.00  0.00    +0.000 A 
ENDBRANCH  18  25
ENDBRANCH   1  18
TORSDOF 3
ENDMDL
MODEL 5
REMARK VINA RESULT:      -6.7      3.151      9.795
REMARK  Name = 
REMARK  7 active torsions:
REMARK  status: ('A' for Active; 'I' for Inactive)
REMARK    1  A    between atoms: C_1  and  C_2
REMARK    2  A    between atoms: C_5  and  S_6
REMARK    3  A    between atoms: S_6  and  N_9
REMARK    4  A    between atoms: N_12  and  C_13
REMARK    5  A    between atoms: C_19  and  C_20
REMARK    6  A    between atoms: C_21  and  C_22
REMARK    7  A    between atoms: C_26  and  C_27
REMARK                            x       y       z     vdW  Elec       q    Type
REMARK                         _______ _______ _______ _____ _____    ______ ____
ROOT
ATOM      1  N   UNL     1      -0.726  11.401  20.764  0.00  0.00    +0.000 NA
ATOM      2  C   UNL     1      -0.980  11.891  22.145  0.00  0.00    +0.000 C 
ATOM      3  C   UNL     1      -1.443  13.352  22.104  0.00  0.00    +0.000 C 
ATOM      4  N   UNL     1      -2.682  13.488  21.329  0.00  0.00    +0.000 N 
ATOM      5  C   UNL     1      -2.707  12.824  20.018  0.00  0.00    +0.000 C 
ATOM      6  C   UNL     1      -1.915  11.510  19.891  0.00  0.00    +0.000 C 
ENDROOT
BRANCH   4   7
ATOM      7  C   UNL     1      -3.852  13.592  22.071  0.00  0.00    +0.000 A 
ATOM      8  N   UNL     1      -4.255  12.499  22.772  0.00  0.00    +0.000 NA
ATOM      9  C   UNL     1      -5.283  12.598  23.626  0.00  0.00    +0.000 A 
ATOM     10  N   UNL     1      -6.003  13.680  23.895  0.00  0.00    +0.000 NA
ATOM     11  C   UNL     1      -5.596  14.753  23.197  0.00  0.00    +0.000 A 
ATOM     12  S   UNL     1      -6.368  16.247  23.445  0.00  0.00    +0.000 S 
ATOM     13  C   UNL     1      -5.354  17.036  22.331  0.00  0.00    +0.000 A 
ATOM     14  C   UNL     1      -5.525  18.499  22.079  0.00  0.00    +0.000 C 
ATOM     15  C   UNL     1      -4.425  16.177  21.759  0.00  0.00    +0.000 A 
ATOM     16  C   UNL     1      -3.414  16.642  20.760  0.00  0.00    +0.000 C 
ATOM     17  C   UNL     1      -4.564  14.810  22.266  0.00  0.00    +0.000 A 
ENDBRANCH   4   7
BRANCH   1  18
ATOM     18  S   UNL     1       0.808  11.661  20.113  0.00  0.00    +0.000 S 
ATOM     19  O   UNL     1       1.693  12.043  21.198  0.00  0.00    +0.000 OA
ATOM     20  O   UNL     1       0.712  12.465  18.917  0.00  0.00    +0.000 OA
BRANCH  18  25
ATOM     21  C   UNL     1       2.632   6.141  18.312  0.00  0.00    +0.000 C 
ATOM     22  C   UNL     1       2.114   7.480  18.740  0.00  0.00    +0.000 A 
ATOM     23  C   UNL     1       1.924   8.513  17.821  0.00  0.00    +0.000 A 
ATOM     24  C   UNL     1       1.478   9.761  18.252  0.00  0.00    +0.000 A 
ATOM     25  C   UNL     1       1.224   9.994  19.611  0.00  0.00    +0.000 A 
ATOM     26  C   UNL     1       1.383   8.963  20.558  0.00  0.00    +0.000 A 
ATOM     27  C   UNL     1       1.136   9.090  22.031  0.00  0.00    +0.000 C 
ATOM     28  C   UNL     1       1.832   7.711  20.095  0.00  0.00    +0.000 A 
ENDBRANCH  18  25
ENDBRANCH   1  18
TORSDOF 3
ENDMDL
MODEL 6
REMARK VINA RESULT:      -6.7      3.012      9.577
REMARK  Name = 
REMARK  7 active torsions:
REMARK  status: ('A' for Active; 'I' for Inactive)
REMARK    1  A    between atoms: C_1  and  C_2
REMARK    2  A    between atoms: C_5  and  S_6
REMARK    3  A    between atoms: S_6  and  N_9
REMARK    4  A    between atoms: N_12  and  C_13
REMARK    5  A    between atoms: C_19  and  C_20
REMARK    6  A    between atoms: C_21  and  C_22
REMARK    7  A    between atoms: C_26  and  C_27
REMARK                            x       y       z     vdW  Elec       q    Type
REMARK                         _______ _______ _______ _____ _____    ______ ____
ROOT
ATOM      1  N   UNL     1      -0.656  11.290  19.891  0.00  0.00    +0.000 NA
ATOM      2  C   UNL     1      -1.407  11.110  21.162  0.00  0.00    +0.000 C 
ATOM      3  C   UNL     1      -1.698  12.477  21.795  0.00  0.00    +0.000 C 
ATOM      4  N   UNL     1      -2.503  13.310  20.895  0.00  0.00    +0.000 N 
ATOM      5  C   UNL     1      -2.049  13.390  19.499  0.00  0.00    +0.000 C 
ATOM      6  C   UNL     1      -1.378  12.134  18.915  0.00  0.00    +0.000 C 
ENDROOT
BRANCH   4   7
ATOM      7  C   UNL     1      -3.861  13.374  21.182  0.00  0.00    +0.000 A 
ATOM      8  N   UNL     1      -4.673  12.448  20.604  0.00  0.00    +0.000 NA
ATOM      9  C   UNL     1      -5.958  12.368  20.973  0.00  0.00    +0.000 A 
ATOM     10  N   UNL     1      -6.583  13.113  21.878  0.00  0.00    +0.000 NA
ATOM     11  C   UNL     1      -5.772  14.023  22.441  0.00  0.00    +0.000 A 
ATOM     12  S   UNL     1      -6.381  15.037  23.661  0.00  0.00    +0.000 S 
ATOM     13  C   UNL     1      -4.879  15.806  23.870  0.00  0.00    +0.000 A 
ATOM     14  C   UNL     1      -4.733  16.884  24.896  0.00  0.00    +0.000 C 
ATOM     15  C   UNL     1      -3.904  15.305  23.019  0.00  0.00    +0.000 A 
ATOM     16  C   UNL     1      -2.497  15.812  23.026  0.00  0.00    +0.000 C 
ATOM     17  C   UNL     1      -4.428  14.243  22.158  0.00  0.00    +0.000 A 
ENDBRANCH   4   7
BRANCH   1  18
ATOM     18  S   UNL     1       1.026  11.382  19.984  0.00  0.00    +0.000 S 
ATOM     19  O   UNL     1       1.389  11.506  21.384  0.00  0.00    +0.000 OA
ATOM     20  O   UNL     1       1.528  12.316  19.002  0.00  0.00    +0.000 OA
BRANCH  18  25
ATOM     21  C   UNL     1       2.931   5.929  18.068  0.00  0.00    +0.000 C 
ATOM     22  C   UNL     1       2.394   7.253  18.518  0.00  0.00    +0.000 A 
ATOM     23  C   UNL     1       2.303   8.335  17.641  0.00  0.00    +0.000 A 
ATOM     24  C   UNL     1       1.837   9.568  18.094  0.00  0.00    +0.000 A 
ATOM     25  C   UNL     1       1.463   9.736  19.435  0.00  0.00    +0.000 A 
ATOM     26  C   UNL     1       1.520   8.655  20.337  0.00  0.00    +0.000 A 
ATOM     27  C   UNL     1       1.142   8.712  21.787  0.00  0.00    +0.000 C 
ATOM     28  C   UNL     1       1.993   7.420  19.851  0.00  0.00    +0.000 A 
ENDBRANCH  18  25
ENDBRANCH   1  18
TORSDOF 3
ENDMDL
MODEL 7
REMARK VINA RESULT:      -6.7      0.534      1.373
REMARK  Name = 
REMARK  7 active torsions:
REMARK  status: ('A' for Active; 'I' for Inactive)
REMARK    1  A    between atoms: C_1  and  C_2
REMARK    2  A    between atoms: C_5  and  S_6
REMARK    3  A    between atoms: S_6  and  N_9
REMARK    4  A    between atoms: N_12  and  C_13
REMARK    5  A    between atoms: C_19  and  C_20
REMARK    6  A    between atoms: C_21  and  C_22
REMARK    7  A    between atoms: C_26  and  C_27
REMARK                            x       y       z     vdW  Elec       q    Type
REMARK                         _______ _______ _______ _____ _____    ______ ____
ROOT
ATOM      1  N   UNL     1       0.028   9.702  20.166  0.00  0.00    +0.000 NA
ATOM      2  C   UNL     1       0.281   8.902  18.939  0.00  0.00    +0.000 C 
ATOM      3  C   UNL     1       1.750   8.467  18.891  0.00  0.00    +0.000 C 
ATOM      4  N   UNL     1       2.091   7.645  20.058  0.00  0.00    +0.000 N 
ATOM      5  C   UNL     1       1.671   8.164  21.367  0.00  0.00    +0.000 C 
ATOM      6  C   UNL     1       0.358   8.966  21.406  0.00  0.00    +0.000 C 
ENDROOT
BRANCH   4   7
ATOM      7  C   UNL     1       2.129   6.273  19.841  0.00  0.00    +0.000 A 
ATOM      8  N   UNL     1       1.263   5.497  20.547  0.00  0.00    +0.000 NA
ATOM      9  C   UNL     1       1.150   4.194  20.258  0.00  0.00    +0.000 A 
ATOM     10  N   UNL     1       1.807   3.517  19.323  0.00  0.00    +0.000 NA
ATOM     11  C   UNL     1       2.659   4.293  18.634  0.00  0.00    +0.000 A 
ATOM     12  S   UNL     1       3.555   3.613  17.359  0.00  0.00    +0.000 S 
ATOM     13  C   UNL     1       4.299   5.099  16.996  0.00  0.00    +0.000 A 
ATOM     14  C   UNL     1       5.275   5.184  15.867  0.00  0.00    +0.000 C 
ATOM     15  C   UNL     1       3.879   6.121  17.836  0.00  0.00    +0.000 A 
ATOM     16  C   UNL     1       4.382   7.524  17.704  0.00  0.00    +0.000 C 
ATOM     17  C   UNL     1       2.903   5.649  18.821  0.00  0.00    +0.000 A 
ENDBRANCH   4   7
BRANCH   1  18
ATOM     18  S   UNL     1       0.311  11.363  20.088  0.00  0.00    +0.000 S 
ATOM     19  O   UNL     1       0.683  11.688  18.723  0.00  0.00    +0.000 OA
ATOM     20  O   UNL     1       1.134  11.781  21.200  0.00  0.00    +0.000 OA
BRANCH  18  25
ATOM     21  C   UNL     1      -5.469  13.054  20.965  0.00  0.00    +0.000 C 
ATOM     22  C   UNL     1      -4.029  12.708  20.739  0.00  0.00    +0.000 A 
ATOM     23  C   UNL     1      -3.530  12.484  19.455  0.00  0.00    +0.000 A 
ATOM     24  C   UNL     1      -2.195  12.125  19.275  0.00  0.00    +0.000 A 
ATOM     25  C   UNL     1      -1.344  11.979  20.380  0.00  0.00    +0.000 A 
ATOM     26  C   UNL     1      -1.815  12.223  21.685  0.00  0.00    +0.000 A 
ATOM     27  C   UNL     1      -1.000  12.106  22.938  0.00  0.00    +0.000 C 
ATOM     28  C   UNL     1      -3.166  12.586  21.837  0.00  0.00    +0.000 A 
ENDBRANCH  18  25
ENDBRANCH   1  18
TORSDOF 3
ENDMDL
MODEL 8
REMARK VINA RESULT:      -6.6      3.386      9.243
REMARK  Name = 
REMARK  7 active torsions:
REMARK  status: ('A' for Active; 'I' for Inactive)
REMARK    1  A    between atoms: C_1  and  C_2
REMARK    2  A    between atoms: C_5  and  S_6
REMARK    3  A    between atoms: S_6  and  N_9
REMARK    4  A    between atoms: N_12  and  C_13
REMARK    5  A    between atoms: C_19  and  C_20
REMARK    6  A    between atoms: C_21  and  C_22
REMARK    7  A    between atoms: C_26  and  C_27
REMARK                            x       y       z     vdW  Elec       q    Type
REMARK                         _______ _______ _______ _____ _____    ______ ____
ROOT
ATOM      1  N   UNL     1       4.263   5.832  18.428  0.00  0.00    +0.000 NA
ATOM      2  C   UNL     1       4.104   6.949  17.459  0.00  0.00    +0.000 C 
ATOM      3  C   UNL     1       2.620   7.301  17.306  0.00  0.00    +0.000 C 
ATOM      4  N   UNL     1       2.045   7.716  18.591  0.00  0.00    +0.000 N 
ATOM      5  C   UNL     1       2.331   6.851  19.745  0.00  0.00    +0.000 C 
ATOM      6  C   UNL     1       3.698   6.145  19.758  0.00  0.00    +0.000 C 
ENDROOT
BRANCH   4   7
ATOM      7  C   UNL     1       1.904   9.086  18.776  0.00  0.00    +0.000 A 
ATOM      8  N   UNL     1       2.325   9.906  17.776  0.00  0.00    +0.000 NA
ATOM      9  C   UNL     1       2.065  11.219  17.838  0.00  0.00    +0.000 A 
ATOM     10  N   UNL     1       1.415  11.866  18.798  0.00  0.00    +0.000 NA
ATOM     11  C   UNL     1       1.005  11.047  19.780  0.00  0.00    +0.000 A 
ATOM     12  S   UNL     1       0.110  11.686  21.076  0.00  0.00    +0.000 S 
ATOM     13  C   UNL     1      -0.052  10.161  21.809  0.00  0.00    +0.000 A 
ATOM     14  C   UNL     1      -0.812  10.030  23.090  0.00  0.00    +0.000 C 
ATOM     15  C   UNL     1       0.570   9.154  21.083  0.00  0.00    +0.000 A 
ATOM     16  C   UNL     1       0.552   7.724  21.519  0.00  0.00    +0.000 C 
ATOM     17  C   UNL     1       1.209   9.674  19.872  0.00  0.00    +0.000 A 
ENDBRANCH   4   7
BRANCH   1  18
ATOM     18  S   UNL     1       4.157   4.258  17.830  0.00  0.00    +0.000 S 
ATOM     19  O   UNL     1       2.815   4.070  17.309  0.00  0.00    +0.000 OA
ATOM     20  O   UNL     1       4.721   3.326  18.779  0.00  0.00    +0.000 OA
BRANCH  18  25
ATOM     21  C   UNL     1       7.786   5.011  13.003  0.00  0.00    +0.000 C 
ATOM     22  C   UNL     1       6.908   4.753  14.189  0.00  0.00    +0.000 A 
ATOM     23  C   UNL     1       5.570   4.388  14.036  0.00  0.00    +0.000 A 
ATOM     24  C   UNL     1       4.763   4.194  15.157  0.00  0.00    +0.000 A 
ATOM     25  C   UNL     1       5.285   4.369  16.446  0.00  0.00    +0.000 A 
ATOM     26  C   UNL     1       6.639   4.712  16.631  0.00  0.00    +0.000 A 
ATOM     27  C   UNL     1       7.310   4.919  17.957  0.00  0.00    +0.000 C 
ATOM     28  C   UNL     1       7.431   4.901  15.482  0.00  0.00    +0.000 A 
ENDBRANCH  18  25
ENDBRANCH   1  18
TORSDOF 3
ENDMDL
MODEL 9
REMARK VINA RESULT:      -6.6      2.964      9.547
REMARK  Name = 
REMARK  7 active torsions:
REMARK  status: ('A' for Active; 'I' for Inactive)
REMARK    1  A    between atoms: C_1  and  C_2
REMARK    2  A    between atoms: C_5  and  S_6
REMARK    3  A    between atoms: S_6  and  N_9
REMARK    4  A    between atoms: N_12  and  C_13
REMARK    5  A    between atoms: C_19  and  C_20
REMARK    6  A    between atoms: C_21  and  C_22
REMARK    7  A    between atoms: C_26  and  C_27
REMARK                            x       y       z     vdW  Elec       q    Type
REMARK                         _______ _______ _______ _____ _____    ______ ____
ROOT
ATOM      1  N   UNL     1      -0.723  10.961  20.123  0.00  0.00    +0.000 NA
ATOM      2  C   UNL     1      -1.293  11.519  21.378  0.00  0.00    +0.000 C 
ATOM      3  C   UNL     1      -1.687  12.986  21.166  0.00  0.00    +0.000 C 
ATOM      4  N   UNL     1      -2.693  13.110  20.104  0.00  0.00    +0.000 N 
ATOM      5  C   UNL     1      -2.416  12.387  18.855  0.00  0.00    +0.000 C 
ATOM      6  C   UNL     1      -1.656  11.054  18.980  0.00  0.00    +0.000 C 
ENDROOT
BRANCH   4   7
ATOM      7  C   UNL     1      -4.005  13.271  20.530  0.00  0.00    +0.000 A 
ATOM      8  N   UNL     1      -4.786  12.159  20.608  0.00  0.00    +0.000 NA
ATOM      9  C   UNL     1      -6.002  12.238  21.163  0.00  0.00    +0.000 A 
ATOM     10  N   UNL     1      -6.584  13.316  21.676  0.00  0.00    +0.000 NA
ATOM     11  C   UNL     1      -5.805  14.407  21.593  0.00  0.00    +0.000 A 
ATOM     12  S   UNL     1      -6.360  15.876  22.244  0.00  0.00    +0.000 S 
ATOM     13  C   UNL     1      -4.928  16.687  21.818  0.00  0.00    +0.000 A 
ATOM     14  C   UNL     1      -4.767  18.135  22.154  0.00  0.00    +0.000 C 
ATOM     15  C   UNL     1      -4.018  15.857  21.178  0.00  0.00    +0.000 A 
ATOM     16  C   UNL     1      -2.678  16.339  20.721  0.00  0.00    +0.000 C 
ATOM     17  C   UNL     1      -4.534  14.494  21.035  0.00  0.00    +0.000 A 
ENDBRANCH   4   7
BRANCH   1  18
ATOM     18  S   UNL     1       0.932  11.160  19.861  0.00  0.00    +0.000 S 
ATOM     19  O   UNL     1       1.542  11.528  21.126  0.00  0.00    +0.000 OA
ATOM     20  O   UNL     1       1.156  11.951  18.672  0.00  0.00    +0.000 OA
BRANCH  18  25
ATOM     21  C   UNL     1       2.930   5.572  18.516  0.00  0.00    +0.000 C 
ATOM     22  C   UNL     1       2.371   6.926  18.826  0.00  0.00    +0.000 A 
ATOM     23  C   UNL     1       2.266   7.912  17.844  0.00  0.00    +0.000 A 
ATOM     24  C   UNL     1       1.780   9.177  18.168  0.00  0.00    +0.000 A 
ATOM     25  C   UNL     1       1.397   9.475  19.484  0.00  0.00    +0.000 A 
ATOM     26  C   UNL     1       1.467   8.491  20.491  0.00  0.00    +0.000 A 
ATOM     27  C   UNL     1       1.081   8.689  21.926  0.00  0.00    +0.000 C 
ATOM     28  C   UNL     1       1.961   7.222  20.135  0.00  0.00    +0.000 A 
ENDBRANCH  18  25
ENDBRANCH   1  18
TORSDOF 3
ENDMDL
