MODEL 1
REMARK VINA RESULT:      -8.5      0.000      0.000
REMARK  Name = 
REMARK  6 active torsions:
REMARK  status: ('A' for Active; 'I' for Inactive)
REMARK    1  A    between atoms: C_1  and  C_2
REMARK    2  A    between atoms: C_6  and  C_7
REMARK    3  A    between atoms: N_9  and  C_10
REMARK    4  A    between atoms: C_14  and  C_15
REMARK    5  A    between atoms: C_19  and  C_20
REMARK    6  A    between atoms: C_20  and  C_21
REMARK                            x       y       z     vdW  Elec       q    Type
REMARK                         _______ _______ _______ _____ _____    ______ ____
ROOT
ATOM      1  C   UNL     1       1.565   4.262  18.870  0.00  0.00    +0.000 C 
ATOM      2  C   UNL     1       2.800   4.545  18.060  0.00  0.00    +0.000 A 
ATOM      3  C   UNL     1       3.543   3.487  17.526  0.00  0.00    +0.000 A 
ATOM      4  F   UNL     1       3.159   2.222  17.753  0.00  0.00    +0.000 F 
ATOM      5  C   UNL     1       4.677   3.706  16.751  0.00  0.00    +0.000 A 
ATOM      6  C   UNL     1       5.098   5.012  16.480  0.00  0.00    +0.000 A 
ATOM      7  C   UNL     1       4.394   6.085  17.032  0.00  0.00    +0.000 A 
ATOM      8  C   UNL     1       3.248   5.857  17.812  0.00  0.00    +0.000 A 
ENDROOT
BRANCH   8   9
ATOM      9  C   UNL     1       2.560   7.031  18.378  0.00  0.00    +0.000 A 
ATOM     10  C   UNL     1       2.144   8.159  17.548  0.00  0.00    +0.000 A 
ATOM     11  C   UNL     1       1.555   9.222  18.123  0.00  0.00    +0.000 A 
ATOM     12  N   UNL     1       1.337   9.226  19.500  0.00  0.00    +0.000 N 
ATOM     13  C   UNL     1       0.800  10.156  20.372  0.00  0.00    +0.000 A 
ATOM     14  N   UNL     1       0.786   9.642  21.591  0.00  0.00    +0.000 NA
ATOM     15  N   UNL     1       1.336   8.388  21.552  0.00  0.00    +0.000 NA
ATOM     16  C   UNL     1       1.681   8.151  20.310  0.00  0.00    +0.000 A 
ATOM     17  C   UNL     1       2.317   7.032  19.709  0.00  0.00    +0.000 A 
BRANCH  13  18
ATOM     18  C   UNL     1       0.265  11.585  20.136  0.00  0.00    +0.000 C 
ATOM     19  C   UNL     1      -1.013  11.651  19.332  0.00  0.00    +0.000 C 
ATOM     20  C   UNL     1       0.460  12.669  21.184  0.00  0.00    +0.000 C 
ATOM     21  C   UNL     1       1.292  12.693  19.945  0.00  0.00    +0.000 C 
ENDBRANCH  13  18
ENDBRANCH   8   9
BRANCH   6  22
ATOM     22  C   UNL     1       6.305   5.211  15.632  0.00  0.00    +0.000 C 
ATOM     23  O   UNL     1       7.251   5.860  16.074  0.00  0.00    +0.000 OA
ATOM     24  N   UNL     1       6.297   4.614  14.381  0.00  0.00    +0.000 N 
ATOM     25  H   UNL     1       5.543   3.991  14.121  0.00  0.00    +0.000 HD
BRANCH  24  26
ATOM     26  C   UNL     1       7.438   4.676  13.519  0.00  0.00    +0.000 C 
ATOM     27  C   UNL     1       7.356   4.096  12.133  0.00  0.00    +0.000 C 
ATOM     28  C   UNL     1       7.486   5.579  12.316  0.00  0.00    +0.000 C 
ENDBRANCH  24  26
ENDBRANCH   6  22
TORSDOF 4
ENDMDL
MODEL 2
REMARK VINA RESULT:      -8.4      1.220      1.400
REMARK  Name = 
REMARK  6 active torsions:
REMARK  status: ('A' for Active; 'I' for Inactive)
REMARK    1  A    between atoms: C_1  and  C_2
REMARK    2  A    between atoms: C_6  and  C_7
REMARK    3  A    between atoms: N_9  and  C_10
REMARK    4  A    between atoms: C_14  and  C_15
REMARK    5  A    between atoms: C_19  and  C_20
REMARK    6  A    between atoms: C_20  and  C_21
REMARK                            x       y       z     vdW  Elec       q    Type
REMARK                         _______ _______ _______ _____ _____    ______ ____
ROOT
ATOM      1  C   UNL     1       1.154   4.807  20.451  0.00  0.00    +0.000 C 
ATOM      2  C   UNL     1       2.360   4.730  19.555  0.00  0.00    +0.000 A 
ATOM      3  C   UNL     1       3.032   3.515  19.391  0.00  0.00    +0.000 A 
ATOM      4  F   UNL     1       2.608   2.425  20.048  0.00  0.00    +0.000 F 
ATOM      5  C   UNL     1       4.136   3.395  18.553  0.00  0.00    +0.000 A 
ATOM      6  C   UNL     1       4.597   4.507  17.840  0.00  0.00    +0.000 A 
ATOM      7  C   UNL     1       3.965   5.741  18.015  0.00  0.00    +0.000 A 
ATOM      8  C   UNL     1       2.849   5.854  18.861  0.00  0.00    +0.000 A 
ENDROOT
BRANCH   8   9
ATOM      9  C   UNL     1       2.237   7.186  19.013  0.00  0.00    +0.000 A 
ATOM     10  C   UNL     1       1.993   8.062  17.870  0.00  0.00    +0.000 A 
ATOM     11  C   UNL     1       1.468   9.282  18.071  0.00  0.00    +0.000 A 
ATOM     12  N   UNL     1       1.152   9.691  19.366  0.00  0.00    +0.000 N 
ATOM     13  C   UNL     1       0.646  10.864  19.894  0.00  0.00    +0.000 A 
ATOM     14  N   UNL     1       0.495  10.717  21.199  0.00  0.00    +0.000 NA
ATOM     15  N   UNL     1       0.924   9.468  21.560  0.00  0.00    +0.000 NA
ATOM     16  C   UNL     1       1.333   8.866  20.469  0.00  0.00    +0.000 A 
ATOM     17  C   UNL     1       1.901   7.580  20.263  0.00  0.00    +0.000 A 
BRANCH  13  18
ATOM     18  C   UNL     1       0.269  12.204  19.224  0.00  0.00    +0.000 C 
ATOM     19  C   UNL     1      -1.081  12.206  18.545  0.00  0.00    +0.000 C 
ATOM     20  C   UNL     1       0.727  13.525  19.819  0.00  0.00    +0.000 C 
ATOM     21  C   UNL     1       1.393  13.008  18.588  0.00  0.00    +0.000 C 
ENDBRANCH  13  18
ENDBRANCH   8   9
BRANCH   6  22
ATOM     22  C   UNL     1       5.769   4.341  16.938  0.00  0.00    +0.000 C 
ATOM     23  O   UNL     1       6.903   4.368  17.413  0.00  0.00    +0.000 OA
ATOM     24  N   UNL     1       5.500   4.131  15.595  0.00  0.00    +0.000 N 
ATOM     25  H   UNL     1       4.547   3.995  15.283  0.00  0.00    +0.000 HD
BRANCH  24  26
ATOM     26  C   UNL     1       6.551   3.880  14.655  0.00  0.00    +0.000 C 
ATOM     27  C   UNL     1       6.223   3.725  13.195  0.00  0.00    +0.000 C 
ATOM     28  C   UNL     1       7.005   4.916  13.663  0.00  0.00    +0.000 C 
ENDBRANCH  24  26
ENDBRANCH   6  22
TORSDOF 4
ENDMDL
MODEL 3
REMARK VINA RESULT:      -8.3      1.048      1.447
REMARK  Name = 
REMARK  6 active torsions:
REMARK  status: ('A' for Active; 'I' for Inactive)
REMARK    1  A    between atoms: C_1  and  C_2
REMARK    2  A    between atoms: C_6  and  C_7
REMARK    3  A    between atoms: N_9  and  C_10
REMARK    4  A    between atoms: C_14  and  C_15
REMARK    5  A    between atoms: C_19  and  C_20
REMARK    6  A    between atoms: C_20  and  C_21
REMARK                            x       y       z     vdW  Elec       q    Type
REMARK                         _______ _______ _______ _____ _____    ______ ____
ROOT
ATOM      1  C   UNL     1       1.043   4.430  20.186  0.00  0.00    +0.000 C 
ATOM      2  C   UNL     1       2.264   4.435  19.306  0.00  0.00    +0.000 A 
ATOM      3  C   UNL     1       2.888   3.230  18.972  0.00  0.00    +0.000 A 
ATOM      4  F   UNL     1       2.406   2.074  19.452  0.00  0.00    +0.000 F 
ATOM      5  C   UNL     1       4.004   3.187  18.142  0.00  0.00    +0.000 A 
ATOM      6  C   UNL     1       4.525   4.371  17.610  0.00  0.00    +0.000 A 
ATOM      7  C   UNL     1       3.941   5.592  17.959  0.00  0.00    +0.000 A 
ATOM      8  C   UNL     1       2.813   5.627  18.796  0.00  0.00    +0.000 A 
ENDROOT
BRANCH   8   9
ATOM      9  C   UNL     1       2.254   6.947  19.137  0.00  0.00    +0.000 A 
ATOM     10  C   UNL     1       2.004   7.968  18.123  0.00  0.00    +0.000 A 
ATOM     11  C   UNL     1       1.529   9.169  18.495  0.00  0.00    +0.000 A 
ATOM     12  N   UNL     1       1.270   9.419  19.842  0.00  0.00    +0.000 N 
ATOM     13  C   UNL     1       0.822  10.531  20.532  0.00  0.00    +0.000 A 
ATOM     14  N   UNL     1       0.708  10.224  21.813  0.00  0.00    +0.000 NA
ATOM     15  N   UNL     1       1.104   8.926  21.997  0.00  0.00    +0.000 NA
ATOM     16  C   UNL     1       1.456   8.455  20.825  0.00  0.00    +0.000 A 
ATOM     17  C   UNL     1       1.972   7.189  20.438  0.00  0.00    +0.000 A 
BRANCH  13  18
ATOM     18  C   UNL     1       0.471  11.955  20.050  0.00  0.00    +0.000 C 
ATOM     19  C   UNL     1       1.511  13.002  20.376  0.00  0.00    +0.000 C 
ATOM     20  C   UNL     1      -0.322  12.168  18.771  0.00  0.00    +0.000 C 
ATOM     21  C   UNL     1      -0.995  12.365  20.088  0.00  0.00    +0.000 C 
ENDBRANCH  13  18
ENDBRANCH   8   9
BRANCH   6  22
ATOM     22  C   UNL     1       5.708   4.290  16.711  0.00  0.00    +0.000 C 
ATOM     23  O   UNL     1       6.836   4.390  17.189  0.00  0.00    +0.000 OA
ATOM     24  N   UNL     1       5.457   4.072  15.366  0.00  0.00    +0.000 N 
ATOM     25  H   UNL     1       4.516   3.875  15.050  0.00  0.00    +0.000 HD
BRANCH  24  26
ATOM     26  C   UNL     1       6.525   3.898  14.428  0.00  0.00    +0.000 C 
ATOM     27  C   UNL     1       6.209   3.672  12.974  0.00  0.00    +0.000 C 
ATOM     28  C   UNL     1       6.874   4.945  13.405  0.00  0.00    +0.000 C 
ENDBRANCH  24  26
ENDBRANCH   6  22
TORSDOF 4
ENDMDL
MODEL 4
REMARK VINA RESULT:      -8.1      3.698      8.329
REMARK  Name = 
REMARK  6 active torsions:
REMARK  status: ('A' for Active; 'I' for Inactive)
REMARK    1  A    between atoms: C_1  and  C_2
REMARK    2  A    between atoms: C_6  and  C_7
REMARK    3  A    between atoms: N_9  and  C_10
REMARK    4  A    between atoms: C_14  and  C_15
REMARK    5  A    between atoms: C_19  and  C_20
REMARK    6  A    between atoms: C_20  and  C_21
REMARK                            x       y       z     vdW  Elec       q    Type
REMARK                         _______ _______ _______ _____ _____    ______ ____
ROOT
ATOM      1  C   UNL     1       1.971   7.781  21.367  0.00  0.00    +0.000 C 
ATOM      2  C   UNL     1       1.138   8.563  20.387  0.00  0.00    +0.000 A 
ATOM      3  C   UNL     1       0.141   9.426  20.851  0.00  0.00    +0.000 A 
ATOM      4  F   UNL     1      -0.081   9.541  22.169  0.00  0.00    +0.000 F 
ATOM      5  C   UNL     1      -0.635  10.185  19.981  0.00  0.00    +0.000 A 
ATOM      6  C   UNL     1      -0.422  10.103  18.601  0.00  0.00    +0.000 A 
ATOM      7  C   UNL     1       0.544   9.220  18.111  0.00  0.00    +0.000 A 
ATOM      8  C   UNL     1       1.325   8.458  18.995  0.00  0.00    +0.000 A 
ENDROOT
BRANCH   8   9
ATOM      9  C   UNL     1       2.316   7.535  18.414  0.00  0.00    +0.000 A 
ATOM     10  C   UNL     1       3.573   8.009  17.840  0.00  0.00    +0.000 A 
ATOM     11  C   UNL     1       4.423   7.127  17.287  0.00  0.00    +0.000 A 
ATOM     12  N   UNL     1       4.099   5.770  17.281  0.00  0.00    +0.000 N 
ATOM     13  C   UNL     1       4.727   4.648  16.775  0.00  0.00    +0.000 A 
ATOM     14  N   UNL     1       4.006   3.581  17.076  0.00  0.00    +0.000 NA
ATOM     15  N   UNL     1       2.884   3.978  17.753  0.00  0.00    +0.000 NA
ATOM     16  C   UNL     1       2.932   5.283  17.857  0.00  0.00    +0.000 A 
ATOM     17  C   UNL     1       2.024   6.214  18.429  0.00  0.00    +0.000 A 
BRANCH  13  18
ATOM     18  C   UNL     1       6.039   4.487  15.975  0.00  0.00    +0.000 C 
ATOM     19  C   UNL     1       7.292   4.493  16.819  0.00  0.00    +0.000 C 
ATOM     20  C   UNL     1       6.079   3.641  14.714  0.00  0.00    +0.000 C 
ATOM     21  C   UNL     1       6.099   5.128  14.596  0.00  0.00    +0.000 C 
ENDBRANCH  13  18
ENDBRANCH   8   9
BRANCH   6  22
ATOM     22  C   UNL     1      -1.256  10.941  17.698  0.00  0.00    +0.000 C 
ATOM     23  O   UNL     1      -1.293  12.158  17.870  0.00  0.00    +0.000 OA
ATOM     24  N   UNL     1      -1.930  10.285  16.680  0.00  0.00    +0.000 N 
ATOM     25  H   UNL     1      -1.764   9.301  16.514  0.00  0.00    +0.000 HD
BRANCH  24  26
ATOM     26  C   UNL     1      -2.695  11.006  15.708  0.00  0.00    +0.000 C 
ATOM     27  C   UNL     1      -3.337  10.265  14.567  0.00  0.00    +0.000 C 
ATOM     28  C   UNL     1      -4.194  10.895  15.624  0.00  0.00    +0.000 C 
ENDBRANCH  24  26
ENDBRANCH   6  22
TORSDOF 4
ENDMDL
MODEL 5
REMARK VINA RESULT:      -8.1      1.384      2.034
REMARK  Name = 
REMARK  6 active torsions:
REMARK  status: ('A' for Active; 'I' for Inactive)
REMARK    1  A    between atoms: C_1  and  C_2
REMARK    2  A    between atoms: C_6  and  C_7
REMARK    3  A    between atoms: N_9  and  C_10
REMARK    4  A    between atoms: C_14  and  C_15
REMARK    5  A    between atoms: C_19  and  C_20
REMARK    6  A    between atoms: C_20  and  C_21
REMARK                            x       y       z     vdW  Elec       q    Type
REMARK                         _______ _______ _______ _____ _____    ______ ____
ROOT
ATOM      1  C   UNL     1       1.105   4.423  20.586  0.00  0.00    +0.000 C 
ATOM      2  C   UNL     1       2.331   4.453  19.714  0.00  0.00    +0.000 A 
ATOM      3  C   UNL     1       3.020   3.268  19.439  0.00  0.00    +0.000 A 
ATOM      4  F   UNL     1       2.596   2.111  19.967  0.00  0.00    +0.000 F 
ATOM      5  C   UNL     1       4.144   3.248  18.619  0.00  0.00    +0.000 A 
ATOM      6  C   UNL     1       4.607   4.434  18.038  0.00  0.00    +0.000 A 
ATOM      7  C   UNL     1       3.957   5.636  18.327  0.00  0.00    +0.000 A 
ATOM      8  C   UNL     1       2.822   5.648  19.155  0.00  0.00    +0.000 A 
ENDROOT
BRANCH   8   9
ATOM      9  C   UNL     1       2.191   6.951  19.433  0.00  0.00    +0.000 A 
ATOM     10  C   UNL     1       1.562   7.250  20.717  0.00  0.00    +0.000 A 
ATOM     11  C   UNL     1       0.967   8.440  20.902  0.00  0.00    +0.000 A 
ATOM     12  N   UNL     1       0.969   9.379  19.870  0.00  0.00    +0.000 N 
ATOM     13  C   UNL     1       0.429  10.645  19.738  0.00  0.00    +0.000 A 
ATOM     14  N   UNL     1       0.758  11.129  18.553  0.00  0.00    +0.000 NA
ATOM     15  N   UNL     1       1.488  10.190  17.874  0.00  0.00    +0.000 NA
ATOM     16  C   UNL     1       1.596   9.142  18.653  0.00  0.00    +0.000 A 
ATOM     17  C   UNL     1       2.213   7.878  18.448  0.00  0.00    +0.000 A 
BRANCH  13  18
ATOM     18  C   UNL     1      -0.430  11.491  20.702  0.00  0.00    +0.000 C 
ATOM     19  C   UNL     1      -1.767  11.917  20.140  0.00  0.00    +0.000 C 
ATOM     20  C   UNL     1      -0.372  11.256  22.202  0.00  0.00    +0.000 C 
ATOM     21  C   UNL     1       0.300  12.457  21.625  0.00  0.00    +0.000 C 
ENDBRANCH  13  18
ENDBRANCH   8   9
BRANCH   6  22
ATOM     22  C   UNL     1       5.800   4.375  17.151  0.00  0.00    +0.000 C 
ATOM     23  O   UNL     1       6.922   4.495  17.640  0.00  0.00    +0.000 OA
ATOM     24  N   UNL     1       5.567   4.154  15.802  0.00  0.00    +0.000 N 
ATOM     25  H   UNL     1       4.634   3.940  15.477  0.00  0.00    +0.000 HD
BRANCH  24  26
ATOM     26  C   UNL     1       6.647   4.000  14.875  0.00  0.00    +0.000 C 
ATOM     27  C   UNL     1       6.351   3.793  13.414  0.00  0.00    +0.000 C 
ATOM     28  C   UNL     1       7.001   5.065  13.872  0.00  0.00    +0.000 C 
ENDBRANCH  24  26
ENDBRANCH   6  22
TORSDOF 4
ENDMDL
MODEL 6
REMARK VINA RESULT:      -8.1      2.117      2.885
REMARK  Name = 
REMARK  6 active torsions:
REMARK  status: ('A' for Active; 'I' for Inactive)
REMARK    1  A    between atoms: C_1  and  C_2
REMARK    2  A    between atoms: C_6  and  C_7
REMARK    3  A    between atoms: N_9  and  C_10
REMARK    4  A    between atoms: C_14  and  C_15
REMARK    5  A    between atoms: C_19  and  C_20
REMARK    6  A    between atoms: C_20  and  C_21
REMARK                            x       y       z     vdW  Elec       q    Type
REMARK                         _______ _______ _______ _____ _____    ______ ____
ROOT
ATOM      1  C   UNL     1       6.590   5.544  19.216  0.00  0.00    +0.000 C 
ATOM      2  C   UNL     1       6.300   5.175  17.786  0.00  0.00    +0.000 A 
ATOM      3  C   UNL     1       7.239   4.449  17.048  0.00  0.00    +0.000 A 
ATOM      4  F   UNL     1       8.403   4.097  17.613  0.00  0.00    +0.000 F 
ATOM      5  C   UNL     1       7.001   4.067  15.731  0.00  0.00    +0.000 A 
ATOM      6  C   UNL     1       5.791   4.402  15.114  0.00  0.00    +0.000 A 
ATOM      7  C   UNL     1       4.852   5.160  15.819  0.00  0.00    +0.000 A 
ATOM      8  C   UNL     1       5.098   5.540  17.148  0.00  0.00    +0.000 A 
ENDROOT
BRANCH   8   9
ATOM      9  C   UNL     1       4.073   6.350  17.830  0.00  0.00    +0.000 A 
ATOM     10  C   UNL     1       3.683   7.673  17.349  0.00  0.00    +0.000 A 
ATOM     11  C   UNL     1       2.771   8.384  18.032  0.00  0.00    +0.000 A 
ATOM     12  N   UNL     1       2.200   7.845  19.185  0.00  0.00    +0.000 N 
ATOM     13  C   UNL     1       1.285   8.324  20.104  0.00  0.00    +0.000 A 
ATOM     14  N   UNL     1       1.048   7.384  21.003  0.00  0.00    +0.000 NA
ATOM     15  N   UNL     1       1.819   6.289  20.717  0.00  0.00    +0.000 NA
ATOM     16  C   UNL     1       2.518   6.573  19.645  0.00  0.00    +0.000 A 
ATOM     17  C   UNL     1       3.492   5.823  18.933  0.00  0.00    +0.000 A 
BRANCH  13  18
ATOM     18  C   UNL     1       0.568   9.688  20.211  0.00  0.00    +0.000 C 
ATOM     19  C   UNL     1       0.091  10.037  21.602  0.00  0.00    +0.000 C 
ATOM     20  C   UNL     1       0.980  10.853  19.327  0.00  0.00    +0.000 C 
ATOM     21  C   UNL     1      -0.287  10.123  19.029  0.00  0.00    +0.000 C 
ENDBRANCH  13  18
ENDBRANCH   8   9
BRANCH   6  22
ATOM     22  C   UNL     1       5.560   3.963  13.712  0.00  0.00    +0.000 C 
ATOM     23  O   UNL     1       4.519   4.287  13.143  0.00  0.00    +0.000 OA
ATOM     24  N   UNL     1       6.569   3.226  13.112  0.00  0.00    +0.000 N 
ATOM     25  H   UNL     1       7.453   3.095  13.587  0.00  0.00    +0.000 HD
BRANCH  24  26
ATOM     26  C   UNL     1       6.483   2.822  11.741  0.00  0.00    +0.000 C 
ATOM     27  C   UNL     1       7.493   1.856  11.185  0.00  0.00    +0.000 C 
ATOM     28  C   UNL     1       6.062   1.434  11.338  0.00  0.00    +0.000 C 
ENDBRANCH  24  26
ENDBRANCH   6  22
TORSDOF 4
ENDMDL
MODEL 7
REMARK VINA RESULT:      -8.1      2.074      2.743
REMARK  Name = 
REMARK  6 active torsions:
REMARK  status: ('A' for Active; 'I' for Inactive)
REMARK    1  A    between atoms: C_1  and  C_2
REMARK    2  A    between atoms: C_6  and  C_7
REMARK    3  A    between atoms: N_9  and  C_10
REMARK    4  A    between atoms: C_14  and  C_15
REMARK    5  A    between atoms: C_19  and  C_20
REMARK    6  A    between atoms: C_20  and  C_21
REMARK                            x       y       z     vdW  Elec       q    Type
REMARK                         _______ _______ _______ _____ _____    ______ ____
ROOT
ATOM      1  C   UNL     1       6.368   5.419  19.575  0.00  0.00    +0.000 C 
ATOM      2  C   UNL     1       6.342   5.258  18.079  0.00  0.00    +0.000 A 
ATOM      3  C   UNL     1       7.381   4.585  17.431  0.00  0.00    +0.000 A 
ATOM      4  F   UNL     1       8.408   4.099  18.145  0.00  0.00    +0.000 F 
ATOM      5  C   UNL     1       7.384   4.394  16.053  0.00  0.00    +0.000 A 
ATOM      6  C   UNL     1       6.322   4.873  15.278  0.00  0.00    +0.000 A 
ATOM      7  C   UNL     1       5.289   5.581  15.899  0.00  0.00    +0.000 A 
ATOM      8  C   UNL     1       5.293   5.769  17.291  0.00  0.00    +0.000 A 
ENDROOT
BRANCH   8   9
ATOM      9  C   UNL     1       4.181   6.537  17.881  0.00  0.00    +0.000 A 
ATOM     10  C   UNL     1       3.717   7.795  17.303  0.00  0.00    +0.000 A 
ATOM     11  C   UNL     1       2.726   8.474  17.906  0.00  0.00    +0.000 A 
ATOM     12  N   UNL     1       2.145   7.961  19.066  0.00  0.00    +0.000 N 
ATOM     13  C   UNL     1       1.158   8.422  19.916  0.00  0.00    +0.000 A 
ATOM     14  N   UNL     1       0.952   7.520  20.862  0.00  0.00    +0.000 NA
ATOM     15  N   UNL     1       1.813   6.472  20.674  0.00  0.00    +0.000 NA
ATOM     16  C   UNL     1       2.535   6.746  19.615  0.00  0.00    +0.000 A 
ATOM     17  C   UNL     1       3.593   6.032  18.990  0.00  0.00    +0.000 A 
BRANCH  13  18
ATOM     18  C   UNL     1       0.338   9.730  19.912  0.00  0.00    +0.000 C 
ATOM     19  C   UNL     1      -0.366  10.025  18.607  0.00  0.00    +0.000 C 
ATOM     20  C   UNL     1      -0.352  10.217  21.175  0.00  0.00    +0.000 C 
ATOM     21  C   UNL     1       0.889  10.903  20.710  0.00  0.00    +0.000 C 
ENDBRANCH  13  18
ENDBRANCH   8   9
BRANCH   6  22
ATOM     22  C   UNL     1       6.346   4.635  13.810  0.00  0.00    +0.000 C 
ATOM     23  O   UNL     1       7.330   4.981  13.159  0.00  0.00    +0.000 OA
ATOM     24  N   UNL     1       5.244   3.998  13.261  0.00  0.00    +0.000 N 
ATOM     25  H   UNL     1       4.520   3.627  13.863  0.00  0.00    +0.000 HD
BRANCH  24  26
ATOM     26  C   UNL     1       5.200   3.649  11.873  0.00  0.00    +0.000 C 
ATOM     27  C   UNL     1       5.333   2.208  11.462  0.00  0.00    +0.000 C 
ATOM     28  C   UNL     1       4.030   2.924  11.265  0.00  0.00    +0.000 C 
ENDBRANCH  24  26
ENDBRANCH   6  22
TORSDOF 4
ENDMDL
MODEL 8
REMARK VINA RESULT:      -8.0      0.955      1.744
REMARK  Name = 
REMARK  6 active torsions:
REMARK  status: ('A' for Active; 'I' for Inactive)
REMARK    1  A    between atoms: C_1  and  C_2
REMARK    2  A    between atoms: C_6  and  C_7
REMARK    3  A    between atoms: N_9  and  C_10
REMARK    4  A    between atoms: C_14  and  C_15
REMARK    5  A    between atoms: C_19  and  C_20
REMARK    6  A    between atoms: C_20  and  C_21
REMARK                            x       y       z     vdW  Elec       q    Type
REMARK                         _______ _______ _______ _____ _____    ______ ____
ROOT
ATOM      1  C   UNL     1       1.345   3.879  19.120  0.00  0.00    +0.000 C 
ATOM      2  C   UNL     1       2.600   4.035  18.304  0.00  0.00    +0.000 A 
ATOM      3  C   UNL     1       3.231   2.907  17.772  0.00  0.00    +0.000 A 
ATOM      4  F   UNL     1       2.725   1.688  18.005  0.00  0.00    +0.000 F 
ATOM      5  C   UNL     1       4.379   3.009  16.992  0.00  0.00    +0.000 A 
ATOM      6  C   UNL     1       4.927   4.266  16.715  0.00  0.00    +0.000 A 
ATOM      7  C   UNL     1       4.335   5.406  17.266  0.00  0.00    +0.000 A 
ATOM      8  C   UNL     1       3.176   5.295  18.051  0.00  0.00    +0.000 A 
ENDROOT
BRANCH   8   9
ATOM      9  C   UNL     1       2.609   6.534  18.614  0.00  0.00    +0.000 A 
ATOM     10  C   UNL     1       2.165   6.621  20.002  0.00  0.00    +0.000 A 
ATOM     11  C   UNL     1       1.619   7.764  20.453  0.00  0.00    +0.000 A 
ATOM     12  N   UNL     1       1.498   8.855  19.592  0.00  0.00    +0.000 N 
ATOM     13  C   UNL     1       0.967  10.123  19.736  0.00  0.00    +0.000 A 
ATOM     14  N   UNL     1       1.141  10.792  18.609  0.00  0.00    +0.000 NA
ATOM     15  N   UNL     1       1.757   9.976  17.697  0.00  0.00    +0.000 NA
ATOM     16  C   UNL     1       1.951   8.818  18.279  0.00  0.00    +0.000 A 
ATOM     17  C   UNL     1       2.514   7.607  17.794  0.00  0.00    +0.000 A 
BRANCH  13  18
ATOM     18  C   UNL     1       0.259  10.801  20.929  0.00  0.00    +0.000 C 
ATOM     19  C   UNL     1       0.274   9.996  22.208  0.00  0.00    +0.000 C 
ATOM     20  C   UNL     1       0.277  12.313  21.084  0.00  0.00    +0.000 C 
ATOM     21  C   UNL     1      -0.974  11.642  20.625  0.00  0.00    +0.000 C 
ENDBRANCH  13  18
ENDBRANCH   8   9
BRANCH   6  22
ATOM     22  C   UNL     1       6.144   4.342  15.862  0.00  0.00    +0.000 C 
ATOM     23  O   UNL     1       7.235   4.558  16.387  0.00  0.00    +0.000 OA
ATOM     24  N   UNL     1       5.971   4.129  14.504  0.00  0.00    +0.000 N 
ATOM     25  H   UNL     1       5.071   3.833  14.147  0.00  0.00    +0.000 HD
BRANCH  24  26
ATOM     26  C   UNL     1       7.086   4.100  13.606  0.00  0.00    +0.000 C 
ATOM     27  C   UNL     1       6.864   3.780  12.152  0.00  0.00    +0.000 C 
ATOM     28  C   UNL     1       7.299   5.158  12.557  0.00  0.00    +0.000 C 
ENDBRANCH  24  26
ENDBRANCH   6  22
TORSDOF 4
ENDMDL
MODEL 9
REMARK VINA RESULT:      -8.0      2.311      3.222
REMARK  Name = 
REMARK  6 active torsions:
REMARK  status: ('A' for Active; 'I' for Inactive)
REMARK    1  A    between atoms: C_1  and  C_2
REMARK    2  A    between atoms: C_6  and  C_7
REMARK    3  A    between atoms: N_9  and  C_10
REMARK    4  A    between atoms: C_14  and  C_15
REMARK    5  A    between atoms: C_19  and  C_20
REMARK    6  A    between atoms: C_20  and  C_21
REMARK                            x       y       z     vdW  Elec       q    Type
REMARK                         _______ _______ _______ _____ _____    ______ ____
ROOT
ATOM      1  C   UNL     1       6.599   5.573  19.267  0.00  0.00    +0.000 C 
ATOM      2  C   UNL     1       6.292   5.206  17.840  0.00  0.00    +0.000 A 
ATOM      3  C   UNL     1       7.204   4.445  17.103  0.00  0.00    +0.000 A 
ATOM      4  F   UNL     1       8.358   4.057  17.666  0.00  0.00    +0.000 F 
ATOM      5  C   UNL     1       6.949   4.064  15.789  0.00  0.00    +0.000 A 
ATOM      6  C   UNL     1       5.749   4.436  15.174  0.00  0.00    +0.000 A 
ATOM      7  C   UNL     1       4.838   5.228  15.877  0.00  0.00    +0.000 A 
ATOM      8  C   UNL     1       5.101   5.607  17.204  0.00  0.00    +0.000 A 
ENDROOT
BRANCH   8   9
ATOM      9  C   UNL     1       4.106   6.455  17.885  0.00  0.00    +0.000 A 
ATOM     10  C   UNL     1       3.524   6.085  19.172  0.00  0.00    +0.000 A 
ATOM     11  C   UNL     1       2.592   6.876  19.729  0.00  0.00    +0.000 A 
ATOM     12  N   UNL     1       2.202   8.045  19.077  0.00  0.00    +0.000 N 
ATOM     13  C   UNL     1       1.271   9.026  19.363  0.00  0.00    +0.000 A 
ATOM     14  N   UNL     1       1.324   9.955  18.424  0.00  0.00    +0.000 NA
ATOM     15  N   UNL     1       2.260   9.593  17.492  0.00  0.00    +0.000 NA
ATOM     16  C   UNL     1       2.768   8.447  17.873  0.00  0.00    +0.000 A 
ATOM     17  C   UNL     1       3.743   7.606  17.273  0.00  0.00    +0.000 A 
BRANCH  13  18
ATOM     18  C   UNL     1       0.266   9.168  20.527  0.00  0.00    +0.000 C 
ATOM     19  C   UNL     1      -0.803  10.214  20.308  0.00  0.00    +0.000 C 
ATOM     20  C   UNL     1      -0.132   7.961  21.360  0.00  0.00    +0.000 C 
ATOM     21  C   UNL     1       0.799   8.973  21.939  0.00  0.00    +0.000 C 
ENDBRANCH  13  18
ENDBRANCH   8   9
BRANCH   6  22
ATOM     22  C   UNL     1       5.498   3.997  13.775  0.00  0.00    +0.000 C 
ATOM     23  O   UNL     1       4.460   4.338  13.213  0.00  0.00    +0.000 OA
ATOM     24  N   UNL     1       6.489   3.238  13.170  0.00  0.00    +0.000 N 
ATOM     25  H   UNL     1       7.374   3.093  13.638  0.00  0.00    +0.000 HD
BRANCH  24  26
ATOM     26  C   UNL     1       6.384   2.832  11.801  0.00  0.00    +0.000 C 
ATOM     27  C   UNL     1       7.442   1.942  11.205  0.00  0.00    +0.000 C 
ATOM     28  C   UNL     1       6.050   1.419  11.406  0.00  0.00    +0.000 C 
ENDBRANCH  24  26
ENDBRANCH   6  22
TORSDOF 4
ENDMDL
