MODEL 1
REMARK VINA RESULT:      -7.0      0.000      0.000
REMARK  Name = 
REMARK  7 active torsions:
REMARK  status: ('A' for Active; 'I' for Inactive)
REMARK    1  A    between atoms: C_1  and  C_2
REMARK    2  A    between atoms: C_2  and  C_3
REMARK    3  A    between atoms: C_5  and  C_6
REMARK    4  A    between atoms: C_6  and  N_7
REMARK    5  A    between atoms: C_11  and  C_12
REMARK    6  A    between atoms: C_12  and  N_13
REMARK    7  A    between atoms: N_13  and  C_14
REMARK                            x       y       z     vdW  Elec       q    Type
REMARK                         _______ _______ _______ _____ _____    ______ ____
ROOT
ATOM      1  N   UNL     1       6.617   6.186  16.124  0.00  0.00    +0.000 NA
ATOM      2  C   UNL     1       7.337   6.554  17.352  0.00  0.00    +0.000 C 
ATOM      3  C   UNL     1       6.666   6.128  18.670  0.00  0.00    +0.000 C 
ATOM      4  O   UNL     1       5.305   5.712  18.659  0.00  0.00    +0.000 OA
ATOM      5  C   UNL     1       4.474   5.954  17.514  0.00  0.00    +0.000 C 
ATOM      6  C   UNL     1       5.223   6.620  16.342  0.00  0.00    +0.000 C 
ENDROOT
BRANCH   1   7
ATOM      7  C   UNL     1       6.810   4.754  15.818  0.00  0.00    +0.000 C 
BRANCH   7  10
ATOM      8  C   UNL     1       6.200   3.417  12.496  0.00  0.00    +0.000 A 
ATOM      9  N   UNL     1       6.217   3.367  13.806  0.00  0.00    +0.000 NA
ATOM     10  C   UNL     1       6.881   4.462  14.336  0.00  0.00    +0.000 A 
ATOM     11  C   UNL     1       7.573   5.194  13.386  0.00  0.00    +0.000 A 
ATOM     12  S   UNL     1       7.258   4.578  11.811  0.00  0.00    +0.000 S 
BRANCH   8  14
ATOM     13  C   UNL     1       3.998   3.396  11.267  0.00  0.00    +0.000 C 
ATOM     14  C   UNL     1       5.240   2.623  11.670  0.00  0.00    +0.000 C 
ENDBRANCH   8  14
ENDBRANCH   7  10
ENDBRANCH   1   7
BRANCH   5  15
ATOM     15  C   UNL     1       3.729   4.640  17.101  0.00  0.00    +0.000 C 
BRANCH  15  16
ATOM     16  N   UNL     1       3.802   3.595  18.147  0.00  0.00    +0.000 N 
ATOM     17  C   UNL     1       4.276   2.267  17.749  0.00  0.00    +0.000 C 
ATOM     18  C   UNL     1       2.921   3.517  19.231  0.00  0.00    +0.000 A 
ATOM     19  C   UNL     1       1.937   4.460  19.511  0.00  0.00    +0.000 A 
ATOM     20  C   UNL     1       1.106   4.314  20.624  0.00  0.00    +0.000 A 
ATOM     21  C   UNL     1       1.276   3.220  21.445  0.00  0.00    +0.000 A 
ATOM     22  N   UNL     1       2.219   2.308  21.191  0.00  0.00    +0.000 NA
ATOM     23  N   UNL     1       3.036   2.471  20.086  0.00  0.00    +0.000 NA
ENDBRANCH  15  16
ENDBRANCH   5  15
TORSDOF 5
ENDMDL
MODEL 2
REMARK VINA RESULT:      -6.8      3.370      5.467
REMARK  Name = 
REMARK  7 active torsions:
REMARK  status: ('A' for Active; 'I' for Inactive)
REMARK    1  A    between atoms: C_1  and  C_2
REMARK    2  A    between atoms: C_2  and  C_3
REMARK    3  A    between atoms: C_5  and  C_6
REMARK    4  A    between atoms: C_6  and  N_7
REMARK    5  A    between atoms: C_11  and  C_12
REMARK    6  A    between atoms: C_12  and  N_13
REMARK    7  A    between atoms: N_13  and  C_14
REMARK                            x       y       z     vdW  Elec       q    Type
REMARK                         _______ _______ _______ _____ _____    ______ ____
ROOT
ATOM      1  N   UNL     1       4.115   2.799  18.418  0.00  0.00    +0.000 NA
ATOM      2  C   UNL     1       3.141   1.739  18.714  0.00  0.00    +0.000 C 
ATOM      3  C   UNL     1       1.752   2.221  19.173  0.00  0.00    +0.000 C 
ATOM      4  O   UNL     1       1.582   3.574  19.580  0.00  0.00    +0.000 OA
ATOM      5  C   UNL     1       2.719   4.409  19.846  0.00  0.00    +0.000 C 
ATOM      6  C   UNL     1       4.068   3.711  19.578  0.00  0.00    +0.000 C 
ENDROOT
BRANCH   1   7
ATOM      7  C   UNL     1       3.837   3.409  17.102  0.00  0.00    +0.000 C 
BRANCH   7  10
ATOM      8  C   UNL     1       6.549   5.770  16.587  0.00  0.00    +0.000 A 
ATOM      9  N   UNL     1       5.380   5.393  17.047  0.00  0.00    +0.000 NA
ATOM     10  C   UNL     1       5.016   4.160  16.528  0.00  0.00    +0.000 A 
ATOM     11  C   UNL     1       5.823   3.749  15.481  0.00  0.00    +0.000 A 
ATOM     12  S   UNL     1       7.124   4.852  15.259  0.00  0.00    +0.000 S 
BRANCH   8  14
ATOM     13  C   UNL     1       7.825   6.457  18.651  0.00  0.00    +0.000 C 
ATOM     14  C   UNL     1       7.377   6.824  17.249  0.00  0.00    +0.000 C 
ENDBRANCH   8  14
ENDBRANCH   7  10
ENDBRANCH   1   7
BRANCH   5  15
ATOM     15  C   UNL     1       2.573   5.774  19.093  0.00  0.00    +0.000 C 
BRANCH  15  16
ATOM     16  N   UNL     1       2.080   6.857  19.975  0.00  0.00    +0.000 N 
ATOM     17  C   UNL     1       1.240   6.477  21.114  0.00  0.00    +0.000 C 
ATOM     18  C   UNL     1       1.777   8.146  19.527  0.00  0.00    +0.000 A 
ATOM     19  C   UNL     1       1.992   8.596  18.227  0.00  0.00    +0.000 A 
ATOM     20  C   UNL     1       1.674   9.907  17.865  0.00  0.00    +0.000 A 
ATOM     21  C   UNL     1       1.143  10.752  18.815  0.00  0.00    +0.000 A 
ATOM     22  N   UNL     1       0.934  10.336  20.068  0.00  0.00    +0.000 NA
ATOM     23  N   UNL     1       1.260   9.036  20.411  0.00  0.00    +0.000 NA
ENDBRANCH  15  16
ENDBRANCH   5  15
TORSDOF 5
ENDMDL
MODEL 3
REMARK VINA RESULT:      -6.8      1.489      1.956
REMARK  Name = 
REMARK  7 active torsions:
REMARK  status: ('A' for Active; 'I' for Inactive)
REMARK    1  A    between atoms: C_1  and  C_2
REMARK    2  A    between atoms: C_2  and  C_3
REMARK    3  A    between atoms: C_5  and  C_6
REMARK    4  A    between atoms: C_6  and  N_7
REMARK    5  A    between atoms: C_11  and  C_12
REMARK    6  A    between atoms: C_12  and  N_13
REMARK    7  A    between atoms: N_13  and  C_14
REMARK                            x       y       z     vdW  Elec       q    Type
REMARK                         _______ _______ _______ _____ _____    ______ ____
ROOT
ATOM      1  N   UNL     1       6.596   5.677  16.455  0.00  0.00    +0.000 NA
ATOM      2  C   UNL     1       7.233   4.947  17.560  0.00  0.00    +0.000 C 
ATOM      3  C   UNL     1       6.364   4.749  18.815  0.00  0.00    +0.000 C 
ATOM      4  O   UNL     1       5.175   5.514  18.969  0.00  0.00    +0.000 OA
ATOM      5  C   UNL     1       4.924   6.655  18.135  0.00  0.00    +0.000 C 
ATOM      6  C   UNL     1       6.012   6.887  17.068  0.00  0.00    +0.000 C 
ENDROOT
BRANCH   1   7
ATOM      7  C   UNL     1       5.656   4.801  15.727  0.00  0.00    +0.000 C 
BRANCH   7  10
ATOM      8  C   UNL     1       5.945   3.326  12.419  0.00  0.00    +0.000 A 
ATOM      9  N   UNL     1       5.540   3.364  13.666  0.00  0.00    +0.000 NA
ATOM     10  C   UNL     1       6.149   4.402  14.354  0.00  0.00    +0.000 A 
ATOM     11  C   UNL     1       7.202   4.973  13.660  0.00  0.00    +0.000 A 
ATOM     12  S   UNL     1       7.318   4.295  12.083  0.00  0.00    +0.000 S 
BRANCH   8  14
ATOM     13  C   UNL     1       3.825   3.192  11.061  0.00  0.00    +0.000 C 
ATOM     14  C   UNL     1       5.193   2.604  11.347  0.00  0.00    +0.000 C 
ENDBRANCH   8  14
ENDBRANCH   7  10
ENDBRANCH   1   7
BRANCH   5  15
ATOM     15  C   UNL     1       3.480   6.577  17.534  0.00  0.00    +0.000 C 
BRANCH  15  16
ATOM     16  N   UNL     1       2.489   6.060  18.506  0.00  0.00    +0.000 N 
ATOM     17  C   UNL     1       2.397   6.733  19.805  0.00  0.00    +0.000 C 
ATOM     18  C   UNL     1       2.124   4.714  18.603  0.00  0.00    +0.000 A 
ATOM     19  C   UNL     1       2.570   3.717  17.741  0.00  0.00    +0.000 A 
ATOM     20  C   UNL     1       2.145   2.395  17.899  0.00  0.00    +0.000 A 
ATOM     21  C   UNL     1       1.275   2.092  18.924  0.00  0.00    +0.000 A 
ATOM     22  N   UNL     1       0.834   3.040  19.757  0.00  0.00    +0.000 NA
ATOM     23  N   UNL     1       1.262   4.344  19.582  0.00  0.00    +0.000 NA
ENDBRANCH  15  16
ENDBRANCH   5  15
TORSDOF 5
ENDMDL
MODEL 4
REMARK VINA RESULT:      -6.8      3.749      7.230
REMARK  Name = 
REMARK  7 active torsions:
REMARK  status: ('A' for Active; 'I' for Inactive)
REMARK    1  A    between atoms: C_1  and  C_2
REMARK    2  A    between atoms: C_2  and  C_3
REMARK    3  A    between atoms: C_5  and  C_6
REMARK    4  A    between atoms: C_6  and  N_7
REMARK    5  A    between atoms: C_11  and  C_12
REMARK    6  A    between atoms: C_12  and  N_13
REMARK    7  A    between atoms: N_13  and  C_14
REMARK                            x       y       z     vdW  Elec       q    Type
REMARK                         _______ _______ _______ _____ _____    ______ ____
ROOT
ATOM      1  N   UNL     1       1.698   4.757  19.343  0.00  0.00    +0.000 NA
ATOM      2  C   UNL     1       0.997   3.991  20.383  0.00  0.00    +0.000 C 
ATOM      3  C   UNL     1       1.815   2.870  21.050  0.00  0.00    +0.000 C 
ATOM      4  O   UNL     1       3.027   2.435  20.444  0.00  0.00    +0.000 OA
ATOM      5  C   UNL     1       3.349   2.809  19.096  0.00  0.00    +0.000 C 
ATOM      6  C   UNL     1       2.307   3.747  18.454  0.00  0.00    +0.000 C 
ENDROOT
BRANCH   1   7
ATOM      7  C   UNL     1       2.629   5.729  19.951  0.00  0.00    +0.000 C 
BRANCH   7  10
ATOM      8  C   UNL     1       1.361   9.034  19.133  0.00  0.00    +0.000 A 
ATOM      9  N   UNL     1       2.102   7.970  18.938  0.00  0.00    +0.000 NA
ATOM     10  C   UNL     1       2.062   7.128  20.039  0.00  0.00    +0.000 A 
ATOM     11  C   UNL     1       1.477   7.711  21.151  0.00  0.00    +0.000 A 
ATOM     12  S   UNL     1       0.850   9.262  20.753  0.00  0.00    +0.000 S 
BRANCH   8  14
ATOM     13  C   UNL     1      -0.595  10.224  18.078  0.00  0.00    +0.000 C 
ATOM     14  C   UNL     1       0.886   9.904  18.015  0.00  0.00    +0.000 C 
ENDBRANCH   8  14
ENDBRANCH   7  10
ENDBRANCH   1   7
BRANCH   5  15
ATOM     15  C   UNL     1       4.808   3.373  19.028  0.00  0.00    +0.000 C 
BRANCH  15  16
ATOM     16  N   UNL     1       5.001   4.311  17.898  0.00  0.00    +0.000 N 
ATOM     17  C   UNL     1       4.694   3.824  16.550  0.00  0.00    +0.000 C 
ATOM     18  C   UNL     1       5.989   5.299  17.869  0.00  0.00    +0.000 A 
ATOM     19  C   UNL     1       6.843   5.586  18.930  0.00  0.00    +0.000 A 
ATOM     20  C   UNL     1       7.796   6.602  18.824  0.00  0.00    +0.000 A 
ATOM     21  C   UNL     1       7.878   7.320  17.650  0.00  0.00    +0.000 A 
ATOM     22  N   UNL     1       7.062   7.059  16.624  0.00  0.00    +0.000 NA
ATOM     23  N   UNL     1       6.121   6.052  16.749  0.00  0.00    +0.000 NA
ENDBRANCH  15  16
ENDBRANCH   5  15
TORSDOF 5
ENDMDL
MODEL 5
REMARK VINA RESULT:      -6.8      3.640      7.667
REMARK  Name = 
REMARK  7 active torsions:
REMARK  status: ('A' for Active; 'I' for Inactive)
REMARK    1  A    between atoms: C_1  and  C_2
REMARK    2  A    between atoms: C_2  and  C_3
REMARK    3  A    between atoms: C_5  and  C_6
REMARK    4  A    between atoms: C_6  and  N_7
REMARK    5  A    between atoms: C_11  and  C_12
REMARK    6  A    between atoms: C_12  and  N_13
REMARK    7  A    between atoms: N_13  and  C_14
REMARK                            x       y       z     vdW  Elec       q    Type
REMARK                         _______ _______ _______ _____ _____    ______ ____
ROOT
ATOM      1  N   UNL     1       1.705   4.734  19.302  0.00  0.00    +0.000 NA
ATOM      2  C   UNL     1       1.000   4.062  20.402  0.00  0.00    +0.000 C 
ATOM      3  C   UNL     1       1.817   3.009  21.172  0.00  0.00    +0.000 C 
ATOM      4  O   UNL     1       3.034   2.526  20.617  0.00  0.00    +0.000 OA
ATOM      5  C   UNL     1       3.364   2.778  19.242  0.00  0.00    +0.000 C 
ATOM      6  C   UNL     1       2.323   3.650  18.512  0.00  0.00    +0.000 C 
ENDROOT
BRANCH   1   7
ATOM      7  C   UNL     1       2.628   5.761  19.826  0.00  0.00    +0.000 C 
BRANCH   7  10
ATOM      8  C   UNL     1       1.130   8.803  21.129  0.00  0.00    +0.000 A 
ATOM      9  N   UNL     1       1.404   7.521  21.141  0.00  0.00    +0.000 NA
ATOM     10  C   UNL     1       1.996   7.129  19.950  0.00  0.00    +0.000 A 
ATOM     11  C   UNL     1       1.923   8.094  18.960  0.00  0.00    +0.000 A 
ATOM     12  S   UNL     1       1.242   9.544  19.587  0.00  0.00    +0.000 S 
BRANCH   8  14
ATOM     13  C   UNL     1      -0.580   9.570  22.816  0.00  0.00    +0.000 C 
ATOM     14  C   UNL     1       0.871   9.586  22.375  0.00  0.00    +0.000 C 
ENDBRANCH   8  14
ENDBRANCH   7  10
ENDBRANCH   1   7
BRANCH   5  15
ATOM     15  C   UNL     1       4.822   3.339  19.132  0.00  0.00    +0.000 C 
BRANCH  15  16
ATOM     16  N   UNL     1       5.001   4.225  17.960  0.00  0.00    +0.000 N 
ATOM     17  C   UNL     1       4.706   3.669  16.636  0.00  0.00    +0.000 C 
ATOM     18  C   UNL     1       5.972   5.229  17.885  0.00  0.00    +0.000 A 
ATOM     19  C   UNL     1       6.818   5.581  18.932  0.00  0.00    +0.000 A 
ATOM     20  C   UNL     1       7.753   6.607  18.779  0.00  0.00    +0.000 A 
ATOM     21  C   UNL     1       7.825   7.269  17.572  0.00  0.00    +0.000 A 
ATOM     22  N   UNL     1       7.017   6.945  16.559  0.00  0.00    +0.000 NA
ATOM     23  N   UNL     1       6.094   5.929  16.730  0.00  0.00    +0.000 NA
ENDBRANCH  15  16
ENDBRANCH   5  15
TORSDOF 5
ENDMDL
MODEL 6
REMARK VINA RESULT:      -6.6      3.733      7.662
REMARK  Name = 
REMARK  7 active torsions:
REMARK  status: ('A' for Active; 'I' for Inactive)
REMARK    1  A    between atoms: C_1  and  C_2
REMARK    2  A    between atoms: C_2  and  C_3
REMARK    3  A    between atoms: C_5  and  C_6
REMARK    4  A    between atoms: C_6  and  N_7
REMARK    5  A    between atoms: C_11  and  C_12
REMARK    6  A    between atoms: C_12  and  N_13
REMARK    7  A    between atoms: N_13  and  C_14
REMARK                            x       y       z     vdW  Elec       q    Type
REMARK                         _______ _______ _______ _____ _____    ______ ____
ROOT
ATOM      1  N   UNL     1       1.648   4.584  19.884  0.00  0.00    +0.000 NA
ATOM      2  C   UNL     1       1.587   3.295  20.588  0.00  0.00    +0.000 C 
ATOM      3  C   UNL     1       2.942   2.615  20.851  0.00  0.00    +0.000 C 
ATOM      4  O   UNL     1       4.099   3.071  20.159  0.00  0.00    +0.000 OA
ATOM      5  C   UNL     1       3.978   3.942  19.025  0.00  0.00    +0.000 C 
ATOM      6  C   UNL     1       2.524   4.352  18.718  0.00  0.00    +0.000 C 
ENDROOT
BRANCH   1   7
ATOM      7  C   UNL     1       2.066   5.660  20.805  0.00  0.00    +0.000 C 
BRANCH   7  10
ATOM      8  C   UNL     1       0.846   9.076  20.603  0.00  0.00    +0.000 A 
ATOM      9  N   UNL     1       0.852   7.848  21.063  0.00  0.00    +0.000 NA
ATOM     10  C   UNL     1       1.700   7.043  20.316  0.00  0.00    +0.000 A 
ATOM     11  C   UNL     1       2.127   7.641  19.143  0.00  0.00    +0.000 A 
ATOM     12  S   UNL     1       1.574   9.267  19.063  0.00  0.00    +0.000 S 
BRANCH   8  14
ATOM     13  C   UNL     1      -0.149  11.392  20.572  0.00  0.00    +0.000 C 
ATOM     14  C   UNL     1       0.365  10.238  21.411  0.00  0.00    +0.000 C 
ENDBRANCH   8  14
ENDBRANCH   7  10
ENDBRANCH   1   7
BRANCH   5  15
ATOM     15  C   UNL     1       4.943   5.166  19.181  0.00  0.00    +0.000 C 
BRANCH  15  16
ATOM     16  N   UNL     1       6.220   4.977  18.457  0.00  0.00    +0.000 N 
ATOM     17  C   UNL     1       7.429   5.560  19.045  0.00  0.00    +0.000 C 
ATOM     18  C   UNL     1       6.320   4.898  17.064  0.00  0.00    +0.000 A 
ATOM     19  C   UNL     1       5.230   4.890  16.199  0.00  0.00    +0.000 A 
ATOM     20  C   UNL     1       5.417   4.795  14.818  0.00  0.00    +0.000 A 
ATOM     21  C   UNL     1       6.700   4.707  14.322  0.00  0.00    +0.000 A 
ATOM     22  N   UNL     1       7.756   4.709  15.140  0.00  0.00    +0.000 NA
ATOM     23  N   UNL     1       7.552   4.800  16.506  0.00  0.00    +0.000 NA
ENDBRANCH  15  16
ENDBRANCH   5  15
TORSDOF 5
ENDMDL
MODEL 7
REMARK VINA RESULT:      -6.6      3.404      7.490
REMARK  Name = 
REMARK  7 active torsions:
REMARK  status: ('A' for Active; 'I' for Inactive)
REMARK    1  A    between atoms: C_1  and  C_2
REMARK    2  A    between atoms: C_2  and  C_3
REMARK    3  A    between atoms: C_5  and  C_6
REMARK    4  A    between atoms: C_6  and  N_7
REMARK    5  A    between atoms: C_11  and  C_12
REMARK    6  A    between atoms: C_12  and  N_13
REMARK    7  A    between atoms: N_13  and  C_14
REMARK                            x       y       z     vdW  Elec       q    Type
REMARK                         _______ _______ _______ _____ _____    ______ ____
ROOT
ATOM      1  N   UNL     1       2.458   4.200  19.400  0.00  0.00    +0.000 NA
ATOM      2  C   UNL     1       2.695   2.879  19.999  0.00  0.00    +0.000 C 
ATOM      3  C   UNL     1       4.171   2.457  20.119  0.00  0.00    +0.000 C 
ATOM      4  O   UNL     1       5.164   3.174  19.395  0.00  0.00    +0.000 OA
ATOM      5  C   UNL     1       4.794   4.082  18.346  0.00  0.00    +0.000 C 
ATOM      6  C   UNL     1       3.269   4.223  18.166  0.00  0.00    +0.000 C 
ENDROOT
BRANCH   1   7
ATOM      7  C   UNL     1       2.737   5.271  20.378  0.00  0.00    +0.000 C 
BRANCH   7  10
ATOM      8  C   UNL     1       1.214   8.569  20.404  0.00  0.00    +0.000 A 
ATOM      9  N   UNL     1       1.396   7.347  20.843  0.00  0.00    +0.000 NA
ATOM     10  C   UNL     1       2.184   6.617  19.967  0.00  0.00    +0.000 A 
ATOM     11  C   UNL     1       2.373   7.246  18.748  0.00  0.00    +0.000 A 
ATOM     12  S   UNL     1       1.678   8.819  18.772  0.00  0.00    +0.000 S 
BRANCH   8  14
ATOM     13  C   UNL     1       0.227  10.886  20.530  0.00  0.00    +0.000 C 
ATOM     14  C   UNL     1       0.767   9.688  21.288  0.00  0.00    +0.000 C 
ENDBRANCH   8  14
ENDBRANCH   7  10
ENDBRANCH   1   7
BRANCH   5  15
ATOM     15  C   UNL     1       5.520   5.455  18.541  0.00  0.00    +0.000 C 
BRANCH  15  16
ATOM     16  N   UNL     1       6.629   5.651  17.579  0.00  0.00    +0.000 N 
ATOM     17  C   UNL     1       7.488   6.824  17.762  0.00  0.00    +0.000 C 
ATOM     18  C   UNL     1       6.569   5.269  16.236  0.00  0.00    +0.000 A 
ATOM     19  C   UNL     1       5.507   4.574  15.664  0.00  0.00    +0.000 A 
ATOM     20  C   UNL     1       5.532   4.218  14.314  0.00  0.00    +0.000 A 
ATOM     21  C   UNL     1       6.628   4.563  13.553  0.00  0.00    +0.000 A 
ATOM     22  N   UNL     1       7.657   5.226  14.088  0.00  0.00    +0.000 NA
ATOM     23  N   UNL     1       7.617   5.567  15.429  0.00  0.00    +0.000 NA
ENDBRANCH  15  16
ENDBRANCH   5  15
TORSDOF 5
ENDMDL
MODEL 8
REMARK VINA RESULT:      -6.6      3.597      7.084
REMARK  Name = 
REMARK  7 active torsions:
REMARK  status: ('A' for Active; 'I' for Inactive)
REMARK    1  A    between atoms: C_1  and  C_2
REMARK    2  A    between atoms: C_2  and  C_3
REMARK    3  A    between atoms: C_5  and  C_6
REMARK    4  A    between atoms: C_6  and  N_7
REMARK    5  A    between atoms: C_11  and  C_12
REMARK    6  A    between atoms: C_12  and  N_13
REMARK    7  A    between atoms: N_13  and  C_14
REMARK                            x       y       z     vdW  Elec       q    Type
REMARK                         _______ _______ _______ _____ _____    ______ ____
ROOT
ATOM      1  N   UNL     1       1.979   4.580  18.273  0.00  0.00    +0.000 NA
ATOM      2  C   UNL     1       1.131   3.619  18.992  0.00  0.00    +0.000 C 
ATOM      3  C   UNL     1       1.828   2.321  19.438  0.00  0.00    +0.000 C 
ATOM      4  O   UNL     1       3.094   1.982  18.886  0.00  0.00    +0.000 OA
ATOM      5  C   UNL     1       3.595   2.665  17.726  0.00  0.00    +0.000 C 
ATOM      6  C   UNL     1       2.668   3.793  17.231  0.00  0.00    +0.000 C 
ENDROOT
BRANCH   1   7
ATOM      7  C   UNL     1       2.851   5.311  19.215  0.00  0.00    +0.000 C 
BRANCH   7  10
ATOM      8  C   UNL     1       1.756   8.772  19.058  0.00  0.00    +0.000 A 
ATOM      9  N   UNL     1       2.469   7.739  18.679  0.00  0.00    +0.000 NA
ATOM     10  C   UNL     1       2.330   6.686  19.570  0.00  0.00    +0.000 A 
ATOM     11  C   UNL     1       1.698   7.047  20.748  0.00  0.00    +0.000 A 
ATOM     12  S   UNL     1       1.154   8.676  20.660  0.00  0.00    +0.000 S 
BRANCH   8  14
ATOM     13  C   UNL     1       0.704  11.051  18.817  0.00  0.00    +0.000 C 
ATOM     14  C   UNL     1       1.383   9.882  18.128  0.00  0.00    +0.000 C 
ENDBRANCH   8  14
ENDBRANCH   7  10
ENDBRANCH   1   7
BRANCH   5  15
ATOM     15  C   UNL     1       5.066   3.141  17.974  0.00  0.00    +0.000 C 
BRANCH  15  16
ATOM     16  N   UNL     1       5.466   4.238  17.065  0.00  0.00    +0.000 N 
ATOM     17  C   UNL     1       5.549   3.939  15.632  0.00  0.00    +0.000 C 
ATOM     18  C   UNL     1       6.352   5.260  17.422  0.00  0.00    +0.000 A 
ATOM     19  C   UNL     1       6.885   5.425  18.697  0.00  0.00    +0.000 A 
ATOM     20  C   UNL     1       7.754   6.483  18.975  0.00  0.00    +0.000 A 
ATOM     21  C   UNL     1       8.076   7.365  17.966  0.00  0.00    +0.000 A 
ATOM     22  N   UNL     1       7.569   7.222  16.738  0.00  0.00    +0.000 NA
ATOM     23  N   UNL     1       6.706   6.171  16.482  0.00  0.00    +0.000 NA
ENDBRANCH  15  16
ENDBRANCH   5  15
TORSDOF 5
ENDMDL
MODEL 9
REMARK VINA RESULT:      -6.6      3.693      7.695
REMARK  Name = 
REMARK  7 active torsions:
REMARK  status: ('A' for Active; 'I' for Inactive)
REMARK    1  A    between atoms: C_1  and  C_2
REMARK    2  A    between atoms: C_2  and  C_3
REMARK    3  A    between atoms: C_5  and  C_6
REMARK    4  A    between atoms: C_6  and  N_7
REMARK    5  A    between atoms: C_11  and  C_12
REMARK    6  A    between atoms: C_12  and  N_13
REMARK    7  A    between atoms: N_13  and  C_14
REMARK                            x       y       z     vdW  Elec       q    Type
REMARK                         _______ _______ _______ _____ _____    ______ ____
ROOT
ATOM      1  N   UNL     1       1.501   4.617  20.768  0.00  0.00    +0.000 NA
ATOM      2  C   UNL     1       2.023   3.452  21.495  0.00  0.00    +0.000 C 
ATOM      3  C   UNL     1       3.108   2.641  20.762  0.00  0.00    +0.000 C 
ATOM      4  O   UNL     1       3.311   2.847  19.369  0.00  0.00    +0.000 OA
ATOM      5  C   UNL     1       2.350   3.569  18.586  0.00  0.00    +0.000 C 
ATOM      6  C   UNL     1       1.173   4.121  19.415  0.00  0.00    +0.000 C 
ENDROOT
BRANCH   1   7
ATOM      7  C   UNL     1       2.456   5.741  20.832  0.00  0.00    +0.000 C 
BRANCH   7  10
ATOM      8  C   UNL     1       0.736   8.941  20.812  0.00  0.00    +0.000 A 
ATOM      9  N   UNL     1       0.957   7.720  21.236  0.00  0.00    +0.000 NA
ATOM     10  C   UNL     1       1.856   7.063  20.409  0.00  0.00    +0.000 A 
ATOM     11  C   UNL     1       2.102   7.737  19.225  0.00  0.00    +0.000 A 
ATOM     12  S   UNL     1       1.311   9.264  19.230  0.00  0.00    +0.000 S 
BRANCH   8  14
ATOM     13  C   UNL     1      -0.702  11.009  20.931  0.00  0.00    +0.000 C 
ATOM     14  C   UNL     1       0.152  10.006  21.683  0.00  0.00    +0.000 C 
ENDBRANCH   8  14
ENDBRANCH   7  10
ENDBRANCH   1   7
BRANCH   5  15
ATOM     15  C   UNL     1       3.067   4.666  17.729  0.00  0.00    +0.000 C 
BRANCH  15  16
ATOM     16  N   UNL     1       4.541   4.604  17.849  0.00  0.00    +0.000 N 
ATOM     17  C   UNL     1       5.158   5.254  19.009  0.00  0.00    +0.000 C 
ATOM     18  C   UNL     1       5.410   4.590  16.753  0.00  0.00    +0.000 A 
ATOM     19  C   UNL     1       4.996   4.534  15.425  0.00  0.00    +0.000 A 
ATOM     20  C   UNL     1       5.931   4.510  14.388  0.00  0.00    +0.000 A 
ATOM     21  C   UNL     1       7.274   4.540  14.698  0.00  0.00    +0.000 A 
ATOM     22  N   UNL     1       7.687   4.590  15.968  0.00  0.00    +0.000 NA
ATOM     23  N   UNL     1       6.746   4.609  16.983  0.00  0.00    +0.000 NA
ENDBRANCH  15  16
ENDBRANCH   5  15
TORSDOF 5
ENDMDL
