MODEL 1
REMARK VINA RESULT:      -7.5      0.000      0.000
REMARK  Name = 
REMARK  6 active torsions:
REMARK  status: ('A' for Active; 'I' for Inactive)
REMARK    1  A    between atoms: C_1  and  C_2
REMARK    2  A    between atoms: C_5  and  C_6
REMARK    3  A    between atoms: C_6  and  C_7
REMARK    4  A    between atoms: C_6  and  N_8
REMARK    5  A    between atoms: C_9  and  C_11
REMARK    6  A    between atoms: C_16  and  C_17
REMARK                            x       y       z     vdW  Elec       q    Type
REMARK                         _______ _______ _______ _____ _____    ______ ____
ROOT
ATOM      1  C   UNL     1       5.629   5.321  17.915  0.00  0.00    +0.000 C 
ATOM      2  C   UNL     1       6.923   5.461  18.732  0.00  0.00    +0.000 C 
ENDROOT
BRANCH   1   7
ATOM      3  C   UNL     1       1.310   2.988  21.131  0.00  0.00    +0.000 C 
ATOM      4  C   UNL     1       2.392   3.547  20.254  0.00  0.00    +0.000 A 
ATOM      5  C   UNL     1       3.590   2.864  20.064  0.00  0.00    +0.000 A 
ATOM      6  C   UNL     1       4.608   3.425  19.286  0.00  0.00    +0.000 A 
ATOM      7  C   UNL     1       4.468   4.690  18.683  0.00  0.00    +0.000 A 
ATOM      8  C   UNL     1       3.224   5.350  18.817  0.00  0.00    +0.000 A 
ATOM      9  C   UNL     1       2.920   6.687  18.191  0.00  0.00    +0.000 C 
ATOM     10  C   UNL     1       2.216   4.780  19.620  0.00  0.00    +0.000 A 
ENDBRANCH   1   7
BRANCH   1  11
ATOM     11  N   UNL     1       5.891   4.572  16.694  0.00  0.00    +0.000 N 
ATOM     12  C   UNL     1       5.858   5.169  15.451  0.00  0.00    +0.000 C 
ATOM     13  O   UNL     1       5.542   6.342  15.277  0.00  0.00    +0.000 OA
ATOM     14  H   UNL     1       6.284   3.645  16.791  0.00  0.00    +0.000 HD
BRANCH  12  15
ATOM     15  C   UNL     1       6.323   4.257  14.325  0.00  0.00    +0.000 C 
ATOM     16  C   UNL     1       5.191   3.793  13.414  0.00  0.00    +0.000 C 
ATOM     17  C   UNL     1       5.918   3.245  12.194  0.00  0.00    +0.000 C 
ATOM     18  C   UNL     1       7.201   4.066  12.074  0.00  0.00    +0.000 C 
ATOM     19  C   UNL     1       7.272   4.930  13.332  0.00  0.00    +0.000 C 
ENDBRANCH  12  15
ENDBRANCH   1  11
TORSDOF 3
ENDMDL
MODEL 2
REMARK VINA RESULT:      -6.9      1.753      6.444
REMARK  Name = 
REMARK  6 active torsions:
REMARK  status: ('A' for Active; 'I' for Inactive)
REMARK    1  A    between atoms: C_1  and  C_2
REMARK    2  A    between atoms: C_5  and  C_6
REMARK    3  A    between atoms: C_6  and  C_7
REMARK    4  A    between atoms: C_6  and  N_8
REMARK    5  A    between atoms: C_9  and  C_11
REMARK    6  A    between atoms: C_16  and  C_17
REMARK                            x       y       z     vdW  Elec       q    Type
REMARK                         _______ _______ _______ _____ _____    ______ ____
ROOT
ATOM      1  C   UNL     1       4.613   5.906  17.836  0.00  0.00    +0.000 C 
ATOM      2  C   UNL     1       3.813   7.199  17.615  0.00  0.00    +0.000 C 
ENDROOT
BRANCH   1   7
ATOM      3  C   UNL     1       7.191   4.132  12.872  0.00  0.00    +0.000 C 
ATOM      4  C   UNL     1       6.551   4.525  14.171  0.00  0.00    +0.000 A 
ATOM      5  C   UNL     1       5.257   4.121  14.488  0.00  0.00    +0.000 A 
ATOM      6  C   UNL     1       4.657   4.540  15.680  0.00  0.00    +0.000 A 
ATOM      7  C   UNL     1       5.324   5.388  16.587  0.00  0.00    +0.000 A 
ATOM      8  C   UNL     1       6.663   5.738  16.299  0.00  0.00    +0.000 A 
ATOM      9  C   UNL     1       7.510   6.601  17.199  0.00  0.00    +0.000 C 
ATOM     10  C   UNL     1       7.247   5.322  15.084  0.00  0.00    +0.000 A 
ENDBRANCH   1   7
BRANCH   1  11
ATOM     11  N   UNL     1       3.747   4.874  18.388  0.00  0.00    +0.000 N 
ATOM     12  C   UNL     1       4.230   3.881  19.215  0.00  0.00    +0.000 C 
ATOM     13  O   UNL     1       5.421   3.754  19.487  0.00  0.00    +0.000 OA
ATOM     14  H   UNL     1       2.748   5.010  18.305  0.00  0.00    +0.000 HD
BRANCH  12  15
ATOM     15  C   UNL     1       3.142   3.005  19.817  0.00  0.00    +0.000 C 
ATOM     16  C   UNL     1       2.510   3.599  21.071  0.00  0.00    +0.000 C 
ATOM     17  C   UNL     1       1.242   2.776  21.256  0.00  0.00    +0.000 C 
ATOM     18  C   UNL     1       0.801   2.378  19.848  0.00  0.00    +0.000 C 
ATOM     19  C   UNL     1       1.924   2.816  18.910  0.00  0.00    +0.000 C 
ENDBRANCH  12  15
ENDBRANCH   1  11
TORSDOF 3
ENDMDL
MODEL 3
REMARK VINA RESULT:      -6.9      1.532      1.557
REMARK  Name = 
REMARK  6 active torsions:
REMARK  status: ('A' for Active; 'I' for Inactive)
REMARK    1  A    between atoms: C_1  and  C_2
REMARK    2  A    between atoms: C_5  and  C_6
REMARK    3  A    between atoms: C_6  and  C_7
REMARK    4  A    between atoms: C_6  and  N_8
REMARK    5  A    between atoms: C_9  and  C_11
REMARK    6  A    between atoms: C_16  and  C_17
REMARK                            x       y       z     vdW  Elec       q    Type
REMARK                         _______ _______ _______ _____ _____    ______ ____
ROOT
ATOM      1  C   UNL     1       4.995   6.034  16.809  0.00  0.00    +0.000 C 
ATOM      2  C   UNL     1       6.123   6.243  17.831  0.00  0.00    +0.000 C 
ENDROOT
BRANCH   1   7
ATOM      3  C   UNL     1       0.810   2.524  18.953  0.00  0.00    +0.000 C 
ATOM      4  C   UNL     1       1.845   3.423  18.343  0.00  0.00    +0.000 A 
ATOM      5  C   UNL     1       2.892   2.906  17.587  0.00  0.00    +0.000 A 
ATOM      6  C   UNL     1       3.878   3.753  17.071  0.00  0.00    +0.000 A 
ATOM      7  C   UNL     1       3.858   5.142  17.305  0.00  0.00    +0.000 A 
ATOM      8  C   UNL     1       2.755   5.675  18.011  0.00  0.00    +0.000 A 
ATOM      9  C   UNL     1       2.580   7.145  18.296  0.00  0.00    +0.000 C 
ATOM     10  C   UNL     1       1.780   4.805  18.541  0.00  0.00    +0.000 A 
ENDBRANCH   1   7
BRANCH   1  11
ATOM     11  N   UNL     1       5.543   5.507  15.566  0.00  0.00    +0.000 N 
ATOM     12  C   UNL     1       6.743   4.830  15.528  0.00  0.00    +0.000 C 
ATOM     13  O   UNL     1       7.464   4.683  16.511  0.00  0.00    +0.000 OA
ATOM     14  H   UNL     1       4.932   5.482  14.761  0.00  0.00    +0.000 HD
BRANCH  12  15
ATOM     15  C   UNL     1       7.055   4.217  14.170  0.00  0.00    +0.000 C 
ATOM     16  C   UNL     1       5.822   3.679  13.451  0.00  0.00    +0.000 C 
ATOM     17  C   UNL     1       6.301   3.485  12.019  0.00  0.00    +0.000 C 
ATOM     18  C   UNL     1       7.364   4.559  11.791  0.00  0.00    +0.000 C 
ATOM     19  C   UNL     1       7.605   5.215  13.149  0.00  0.00    +0.000 C 
ENDBRANCH  12  15
ENDBRANCH   1  11
TORSDOF 3
ENDMDL
MODEL 4
REMARK VINA RESULT:      -6.8      1.233      1.442
REMARK  Name = 
REMARK  6 active torsions:
REMARK  status: ('A' for Active; 'I' for Inactive)
REMARK    1  A    between atoms: C_1  and  C_2
REMARK    2  A    between atoms: C_5  and  C_6
REMARK    3  A    between atoms: C_6  and  C_7
REMARK    4  A    between atoms: C_6  and  N_8
REMARK    5  A    between atoms: C_9  and  C_11
REMARK    6  A    between atoms: C_16  and  C_17
REMARK                            x       y       z     vdW  Elec       q    Type
REMARK                         _______ _______ _______ _____ _____    ______ ____
ROOT
ATOM      1  C   UNL     1       5.936   6.632  17.103  0.00  0.00    +0.000 C 
ATOM      2  C   UNL     1       7.310   6.807  17.768  0.00  0.00    +0.000 C 
ENDROOT
BRANCH   1   7
ATOM      3  C   UNL     1       2.068   4.181  20.774  0.00  0.00    +0.000 C 
ATOM      4  C   UNL     1       3.033   4.765  19.784  0.00  0.00    +0.000 A 
ATOM      5  C   UNL     1       4.259   4.158  19.529  0.00  0.00    +0.000 A 
ATOM      6  C   UNL     1       5.169   4.745  18.643  0.00  0.00    +0.000 A 
ATOM      7  C   UNL     1       4.889   5.964  17.994  0.00  0.00    +0.000 A 
ATOM      8  C   UNL     1       3.614   6.542  18.198  0.00  0.00    +0.000 A 
ATOM      9  C   UNL     1       3.163   7.818  17.535  0.00  0.00    +0.000 C 
ATOM     10  C   UNL     1       2.717   5.947  19.108  0.00  0.00    +0.000 A 
ENDBRANCH   1   7
BRANCH   1  11
ATOM     11  N   UNL     1       6.078   5.895  15.855  0.00  0.00    +0.000 N 
ATOM     12  C   UNL     1       7.006   4.885  15.706  0.00  0.00    +0.000 C 
ATOM     13  O   UNL     1       7.816   4.583  16.578  0.00  0.00    +0.000 OA
ATOM     14  H   UNL     1       5.353   6.011  15.160  0.00  0.00    +0.000 HD
BRANCH  12  15
ATOM     15  C   UNL     1       6.881   4.132  14.390  0.00  0.00    +0.000 C 
ATOM     16  C   UNL     1       5.444   4.013  13.893  0.00  0.00    +0.000 C 
ATOM     17  C   UNL     1       5.603   3.591  12.439  0.00  0.00    +0.000 C 
ATOM     18  C   UNL     1       6.913   4.220  11.968  0.00  0.00    +0.000 C 
ATOM     19  C   UNL     1       7.567   4.823  13.210  0.00  0.00    +0.000 C 
ENDBRANCH  12  15
ENDBRANCH   1  11
TORSDOF 3
ENDMDL
MODEL 5
REMARK VINA RESULT:      -6.8      1.911      3.510
REMARK  Name = 
REMARK  6 active torsions:
REMARK  status: ('A' for Active; 'I' for Inactive)
REMARK    1  A    between atoms: C_1  and  C_2
REMARK    2  A    between atoms: C_5  and  C_6
REMARK    3  A    between atoms: C_6  and  C_7
REMARK    4  A    between atoms: C_6  and  N_8
REMARK    5  A    between atoms: C_9  and  C_11
REMARK    6  A    between atoms: C_16  and  C_17
REMARK                            x       y       z     vdW  Elec       q    Type
REMARK                         _______ _______ _______ _____ _____    ______ ____
ROOT
ATOM      1  C   UNL     1       3.099   3.981  18.416  0.00  0.00    +0.000 C 
ATOM      2  C   UNL     1       1.935   3.091  17.953  0.00  0.00    +0.000 C 
ENDROOT
BRANCH   1   7
ATOM      3  C   UNL     1       1.191   9.251  20.156  0.00  0.00    +0.000 C 
ATOM      4  C   UNL     1       1.745   7.923  19.729  0.00  0.00    +0.000 A 
ATOM      5  C   UNL     1       2.286   7.743  18.460  0.00  0.00    +0.000 A 
ATOM      6  C   UNL     1       2.749   6.485  18.060  0.00  0.00    +0.000 A 
ATOM      7  C   UNL     1       2.673   5.363  18.909  0.00  0.00    +0.000 A 
ATOM      8  C   UNL     1       2.189   5.563  20.223  0.00  0.00    +0.000 A 
ATOM      9  C   UNL     1       2.093   4.465  21.251  0.00  0.00    +0.000 C 
ATOM     10  C   UNL     1       1.710   6.833  20.604  0.00  0.00    +0.000 A 
ENDBRANCH   1   7
BRANCH   1  11
ATOM     11  N   UNL     1       4.082   4.108  17.350  0.00  0.00    +0.000 N 
ATOM     12  C   UNL     1       5.437   4.149  17.608  0.00  0.00    +0.000 C 
ATOM     13  O   UNL     1       5.905   4.152  18.743  0.00  0.00    +0.000 OA
ATOM     14  H   UNL     1       3.761   3.975  16.401  0.00  0.00    +0.000 HD
BRANCH  12  15
ATOM     15  C   UNL     1       6.298   4.115  16.353  0.00  0.00    +0.000 C 
ATOM     16  C   UNL     1       5.535   3.679  15.107  0.00  0.00    +0.000 C 
ATOM     17  C   UNL     1       6.458   4.084  13.965  0.00  0.00    +0.000 C 
ATOM     18  C   UNL     1       7.205   5.322  14.458  0.00  0.00    +0.000 C 
ATOM     19  C   UNL     1       6.837   5.483  15.932  0.00  0.00    +0.000 C 
ENDBRANCH  12  15
ENDBRANCH   1  11
TORSDOF 3
ENDMDL
MODEL 6
REMARK VINA RESULT:      -6.7      1.158      1.242
REMARK  Name = 
REMARK  6 active torsions:
REMARK  status: ('A' for Active; 'I' for Inactive)
REMARK    1  A    between atoms: C_1  and  C_2
REMARK    2  A    between atoms: C_5  and  C_6
REMARK    3  A    between atoms: C_6  and  C_7
REMARK    4  A    between atoms: C_6  and  N_8
REMARK    5  A    between atoms: C_9  and  C_11
REMARK    6  A    between atoms: C_16  and  C_17
REMARK                            x       y       z     vdW  Elec       q    Type
REMARK                         _______ _______ _______ _____ _____    ______ ____
ROOT
ATOM      1  C   UNL     1       5.258   5.110  16.786  0.00  0.00    +0.000 C 
ATOM      2  C   UNL     1       6.586   5.062  17.558  0.00  0.00    +0.000 C 
ENDROOT
BRANCH   1   7
ATOM      3  C   UNL     1       0.757   3.575  20.224  0.00  0.00    +0.000 C 
ATOM      4  C   UNL     1       1.866   3.957  19.289  0.00  0.00    +0.000 A 
ATOM      5  C   UNL     1       2.671   2.992  18.693  0.00  0.00    +0.000 A 
ATOM      6  C   UNL     1       3.734   3.369  17.866  0.00  0.00    +0.000 A 
ATOM      7  C   UNL     1       4.036   4.722  17.618  0.00  0.00    +0.000 A 
ATOM      8  C   UNL     1       3.174   5.701  18.165  0.00  0.00    +0.000 A 
ATOM      9  C   UNL     1       3.350   7.182  17.948  0.00  0.00    +0.000 C 
ATOM     10  C   UNL     1       2.118   5.304  19.012  0.00  0.00    +0.000 A 
ENDBRANCH   1   7
BRANCH   1  11
ATOM     11  N   UNL     1       5.343   4.274  15.597  0.00  0.00    +0.000 N 
ATOM     12  C   UNL     1       6.124   4.623  14.515  0.00  0.00    +0.000 C 
ATOM     13  O   UNL     1       6.741   5.682  14.445  0.00  0.00    +0.000 OA
ATOM     14  H   UNL     1       4.967   3.337  15.658  0.00  0.00    +0.000 HD
BRANCH  12  15
ATOM     15  C   UNL     1       6.208   3.539  13.450  0.00  0.00    +0.000 C 
ATOM     16  C   UNL     1       4.921   3.375  12.648  0.00  0.00    +0.000 C 
ATOM     17  C   UNL     1       5.354   2.553  11.443  0.00  0.00    +0.000 C 
ATOM     18  C   UNL     1       6.808   2.941  11.179  0.00  0.00    +0.000 C 
ATOM     19  C   UNL     1       7.231   3.828  12.349  0.00  0.00    +0.000 C 
ENDBRANCH  12  15
ENDBRANCH   1  11
TORSDOF 3
ENDMDL
MODEL 7
REMARK VINA RESULT:      -6.7      2.787      4.009
REMARK  Name = 
REMARK  6 active torsions:
REMARK  status: ('A' for Active; 'I' for Inactive)
REMARK    1  A    between atoms: C_1  and  C_2
REMARK    2  A    between atoms: C_5  and  C_6
REMARK    3  A    between atoms: C_6  and  C_7
REMARK    4  A    between atoms: C_6  and  N_8
REMARK    5  A    between atoms: C_9  and  C_11
REMARK    6  A    between atoms: C_16  and  C_17
REMARK                            x       y       z     vdW  Elec       q    Type
REMARK                         _______ _______ _______ _____ _____    ______ ____
ROOT
ATOM      1  C   UNL     1       3.038   6.132  17.845  0.00  0.00    +0.000 C 
ATOM      2  C   UNL     1       2.211   7.427  17.876  0.00  0.00    +0.000 C 
ENDROOT
BRANCH   1   7
ATOM      3  C   UNL     1       1.223   2.327  21.927  0.00  0.00    +0.000 C 
ATOM      4  C   UNL     1       1.754   3.285  20.902  0.00  0.00    +0.000 A 
ATOM      5  C   UNL     1       2.091   4.591  21.243  0.00  0.00    +0.000 A 
ATOM      6  C   UNL     1       2.534   5.486  20.263  0.00  0.00    +0.000 A 
ATOM      7  C   UNL     1       2.641   5.110  18.910  0.00  0.00    +0.000 A 
ATOM      8  C   UNL     1       2.367   3.763  18.577  0.00  0.00    +0.000 A 
ATOM      9  C   UNL     1       2.482   3.212  17.179  0.00  0.00    +0.000 C 
ATOM     10  C   UNL     1       1.904   2.879  19.573  0.00  0.00    +0.000 A 
ENDBRANCH   1   7
BRANCH   1  11
ATOM     11  N   UNL     1       4.456   6.445  17.952  0.00  0.00    +0.000 N 
ATOM     12  C   UNL     1       5.356   6.099  16.965  0.00  0.00    +0.000 C 
ATOM     13  O   UNL     1       5.045   5.450  15.971  0.00  0.00    +0.000 OA
ATOM     14  H   UNL     1       4.738   7.090  18.678  0.00  0.00    +0.000 HD
BRANCH  12  15
ATOM     15  C   UNL     1       6.752   6.662  17.188  0.00  0.00    +0.000 C 
ATOM     16  C   UNL     1       6.783   8.183  17.292  0.00  0.00    +0.000 C 
ATOM     17  C   UNL     1       8.157   8.473  17.881  0.00  0.00    +0.000 C 
ATOM     18  C   UNL     1       8.486   7.272  18.767  0.00  0.00    +0.000 C 
ATOM     19  C   UNL     1       7.386   6.242  18.515  0.00  0.00    +0.000 C 
ENDBRANCH  12  15
ENDBRANCH   1  11
TORSDOF 3
ENDMDL
MODEL 8
REMARK VINA RESULT:      -6.7      1.100      1.544
REMARK  Name = 
REMARK  6 active torsions:
REMARK  status: ('A' for Active; 'I' for Inactive)
REMARK    1  A    between atoms: C_1  and  C_2
REMARK    2  A    between atoms: C_5  and  C_6
REMARK    3  A    between atoms: C_6  and  C_7
REMARK    4  A    between atoms: C_6  and  N_8
REMARK    5  A    between atoms: C_9  and  C_11
REMARK    6  A    between atoms: C_16  and  C_17
REMARK                            x       y       z     vdW  Elec       q    Type
REMARK                         _______ _______ _______ _____ _____    ______ ____
ROOT
ATOM      1  C   UNL     1       5.904   6.625  17.557  0.00  0.00    +0.000 C 
ATOM      2  C   UNL     1       7.299   6.398  18.158  0.00  0.00    +0.000 C 
ENDROOT
BRANCH   1   7
ATOM      3  C   UNL     1       1.743   3.690  20.476  0.00  0.00    +0.000 C 
ATOM      4  C   UNL     1       2.791   4.403  19.672  0.00  0.00    +0.000 A 
ATOM      5  C   UNL     1       4.065   3.866  19.511  0.00  0.00    +0.000 A 
ATOM      6  C   UNL     1       5.045   4.569  18.803  0.00  0.00    +0.000 A 
ATOM      7  C   UNL     1       4.790   5.836  18.245  0.00  0.00    +0.000 A 
ATOM      8  C   UNL     1       3.475   6.348  18.346  0.00  0.00    +0.000 A 
ATOM      9  C   UNL     1       3.049   7.670  17.760  0.00  0.00    +0.000 C 
ATOM     10  C   UNL     1       2.504   5.636  19.079  0.00  0.00    +0.000 A 
ENDBRANCH   1   7
BRANCH   1  11
ATOM     11  N   UNL     1       5.922   6.329  16.131  0.00  0.00    +0.000 N 
ATOM     12  C   UNL     1       6.671   5.294  15.611  0.00  0.00    +0.000 C 
ATOM     13  O   UNL     1       7.422   4.599  16.291  0.00  0.00    +0.000 OA
ATOM     14  H   UNL     1       5.226   6.779  15.552  0.00  0.00    +0.000 HD
BRANCH  12  15
ATOM     15  C   UNL     1       6.424   5.047  14.130  0.00  0.00    +0.000 C 
ATOM     16  C   UNL     1       7.704   4.980  13.304  0.00  0.00    +0.000 C 
ATOM     17  C   UNL     1       7.248   4.360  11.990  0.00  0.00    +0.000 C 
ATOM     18  C   UNL     1       6.086   3.436  12.350  0.00  0.00    +0.000 C 
ATOM     19  C   UNL     1       5.780   3.693  13.825  0.00  0.00    +0.000 C 
ENDBRANCH  12  15
ENDBRANCH   1  11
TORSDOF 3
ENDMDL
MODEL 9
REMARK VINA RESULT:      -6.6      0.680      1.147
REMARK  Name = 
REMARK  6 active torsions:
REMARK  status: ('A' for Active; 'I' for Inactive)
REMARK    1  A    between atoms: C_1  and  C_2
REMARK    2  A    between atoms: C_5  and  C_6
REMARK    3  A    between atoms: C_6  and  C_7
REMARK    4  A    between atoms: C_6  and  N_8
REMARK    5  A    between atoms: C_9  and  C_11
REMARK    6  A    between atoms: C_16  and  C_17
REMARK                            x       y       z     vdW  Elec       q    Type
REMARK                         _______ _______ _______ _____ _____    ______ ____
ROOT
ATOM      1  C   UNL     1       5.604   5.314  17.885  0.00  0.00    +0.000 C 
ATOM      2  C   UNL     1       6.945   4.757  18.388  0.00  0.00    +0.000 C 
ENDROOT
BRANCH   1   7
ATOM      3  C   UNL     1       1.039   3.094  20.828  0.00  0.00    +0.000 C 
ATOM      4  C   UNL     1       2.182   3.630  20.018  0.00  0.00    +0.000 A 
ATOM      5  C   UNL     1       3.324   2.868  19.790  0.00  0.00    +0.000 A 
ATOM      6  C   UNL     1       4.401   3.404  19.077  0.00  0.00    +0.000 A 
ATOM      7  C   UNL     1       4.379   4.722  18.580  0.00  0.00    +0.000 A 
ATOM      8  C   UNL     1       3.191   5.470  18.749  0.00  0.00    +0.000 A 
ATOM      9  C   UNL     1       3.011   6.874  18.232  0.00  0.00    +0.000 C 
ATOM     10  C   UNL     1       2.121   4.922  19.486  0.00  0.00    +0.000 A 
ENDBRANCH   1   7
BRANCH   1  11
ATOM     11  N   UNL     1       5.501   5.135  16.444  0.00  0.00    +0.000 N 
ATOM     12  C   UNL     1       6.493   5.559  15.583  0.00  0.00    +0.000 C 
ATOM     13  O   UNL     1       7.489   6.172  15.956  0.00  0.00    +0.000 OA
ATOM     14  H   UNL     1       4.774   4.522  16.101  0.00  0.00    +0.000 HD
BRANCH  12  15
ATOM     15  C   UNL     1       6.273   5.129  14.140  0.00  0.00    +0.000 C 
ATOM     16  C   UNL     1       7.563   5.034  13.332  0.00  0.00    +0.000 C 
ATOM     17  C   UNL     1       7.153   4.244  12.097  0.00  0.00    +0.000 C 
ATOM     18  C   UNL     1       6.036   3.309  12.558  0.00  0.00    +0.000 C 
ATOM     19  C   UNL     1       5.702   3.718  13.992  0.00  0.00    +0.000 C 
ENDBRANCH  12  15
ENDBRANCH   1  11
TORSDOF 3
ENDMDL
