MODEL 1
REMARK VINA RESULT:      -6.1      0.000      0.000
REMARK  Name = 
REMARK  10 active torsions:
REMARK  status: ('A' for Active; 'I' for Inactive)
REMARK    1  A    between atoms: C_2  and  C_3
REMARK    2  A    between atoms: C_3  and  N_4
REMARK    3  A    between atoms: N_4  and  C_5
REMARK    4  A    between atoms: C_5  and  C_6
REMARK    5  A    between atoms: C_8  and  C_10
REMARK    6  A    between atoms: C_13  and  C_14
REMARK    7  A    between atoms: N_16  and  C_17
REMARK    8  A    between atoms: N_16  and  C_20
REMARK    9  A    between atoms: C_17  and  C_18
REMARK   10  A    between atoms: C_20  and  C_21
REMARK                            x       y       z     vdW  Elec       q    Type
REMARK                         _______ _______ _______ _____ _____    ______ ____
ROOT
ATOM      1  C   UNL     1       6.000   4.211  17.919  0.00  0.00    +0.000 C 
ATOM      2  C   UNL     1       5.402   3.401  16.764  0.00  0.00    +0.000 C 
ATOM      3  C   UNL     1       4.758   4.264  15.676  0.00  0.00    +0.000 C 
ATOM      4  C   UNL     1       5.646   5.404  15.163  0.00  0.00    +0.000 C 
ATOM      5  C   UNL     1       6.348   6.178  16.290  0.00  0.00    +0.000 C 
ATOM      6  C   UNL     1       6.943   5.300  17.394  0.00  0.00    +0.000 C 
ENDROOT
BRANCH   1   8
ATOM      7  N   UNL     1       3.976   3.980  19.441  0.00  0.00    +0.000 N 
ATOM      8  C   UNL     1       4.881   4.809  18.787  0.00  0.00    +0.000 C 
ATOM      9  O   UNL     1       4.751   6.037  18.846  0.00  0.00    +0.000 OA
BRANCH   7  10
ATOM     10  C   UNL     1       2.864   4.629  20.133  0.00  0.00    +0.000 C 
BRANCH  10  12
ATOM     11  C   UNL     1       1.281   3.096  21.373  0.00  0.00    +0.000 C 
ATOM     12  C   UNL     1       2.423   3.794  21.303  0.00  0.00    +0.000 C 
ENDBRANCH  10  12
ENDBRANCH   7  10
BRANCH   7  13
ATOM     13  C   UNL     1       4.136   2.546  19.657  0.00  0.00    +0.000 C 
BRANCH  13  14
ATOM     14  C   UNL     1       3.487   1.702  18.593  0.00  0.00    +0.000 C 
ATOM     15  C   UNL     1       2.317   1.874  17.963  0.00  0.00    +0.000 C 
ENDBRANCH  13  14
ENDBRANCH   7  13
ENDBRANCH   1   8
BRANCH   4  16
ATOM     16  C   UNL     1       6.692   4.923  14.150  0.00  0.00    +0.000 C 
ATOM     17  O   UNL     1       7.878   5.250  14.288  0.00  0.00    +0.000 OA
ATOM     18  N   UNL     1       6.288   4.148  13.073  0.00  0.00    +0.000 N 
BRANCH  18  19
ATOM     19  C   UNL     1       4.985   3.505  12.936  0.00  0.00    +0.000 C 
BRANCH  19  20
ATOM     20  C   UNL     1       4.312   3.800  11.620  0.00  0.00    +0.000 C 
ATOM     21  C   UNL     1       3.556   2.992  10.860  0.00  0.00    +0.000 C 
ENDBRANCH  19  20
ENDBRANCH  18  19
BRANCH  18  22
ATOM     22  C   UNL     1       7.238   3.967  11.980  0.00  0.00    +0.000 C 
BRANCH  22  23
ATOM     23  C   UNL     1       7.564   2.516  11.804  0.00  0.00    +0.000 C 
ATOM     24  C   UNL     1       7.150   1.769  10.773  0.00  0.00    +0.000 C 
ENDBRANCH  22  23
ENDBRANCH  18  22
ENDBRANCH   4  16
TORSDOF 10
ENDMDL
MODEL 2
REMARK VINA RESULT:      -6.0      3.635      5.516
REMARK  Name = 
REMARK  10 active torsions:
REMARK  status: ('A' for Active; 'I' for Inactive)
REMARK    1  A    between atoms: C_2  and  C_3
REMARK    2  A    between atoms: C_3  and  N_4
REMARK    3  A    between atoms: N_4  and  C_5
REMARK    4  A    between atoms: C_5  and  C_6
REMARK    5  A    between atoms: C_8  and  C_10
REMARK    6  A    between atoms: C_13  and  C_14
REMARK    7  A    between atoms: N_16  and  C_17
REMARK    8  A    between atoms: N_16  and  C_20
REMARK    9  A    between atoms: C_17  and  C_18
REMARK   10  A    between atoms: C_20  and  C_21
REMARK                            x       y       z     vdW  Elec       q    Type
REMARK                         _______ _______ _______ _____ _____    ______ ____
ROOT
ATOM      1  C   UNL     1       2.184   6.738  18.379  0.00  0.00    +0.000 C 
ATOM      2  C   UNL     1       3.622   7.184  18.094  0.00  0.00    +0.000 C 
ATOM      3  C   UNL     1       4.682   6.316  18.777  0.00  0.00    +0.000 C 
ATOM      4  C   UNL     1       4.506   4.809  18.556  0.00  0.00    +0.000 C 
ATOM      5  C   UNL     1       3.054   4.337  18.732  0.00  0.00    +0.000 C 
ATOM      6  C   UNL     1       2.005   5.244  18.083  0.00  0.00    +0.000 C 
ENDROOT
BRANCH   1   8
ATOM      7  N   UNL     1       1.567   8.389  20.211  0.00  0.00    +0.000 N 
ATOM      8  C   UNL     1       1.798   7.072  19.829  0.00  0.00    +0.000 C 
ATOM      9  O   UNL     1       1.761   6.167  20.670  0.00  0.00    +0.000 OA
BRANCH   7  10
ATOM     10  C   UNL     1       1.339   8.635  21.634  0.00  0.00    +0.000 C 
BRANCH  10  12
ATOM     11  C   UNL     1      -0.596   9.577  22.960  0.00  0.00    +0.000 C 
ATOM     12  C   UNL     1      -0.110   8.950  21.881  0.00  0.00    +0.000 C 
ENDBRANCH  10  12
ENDBRANCH   7  10
BRANCH   7  13
ATOM     13  C   UNL     1       1.344   9.512  19.308  0.00  0.00    +0.000 C 
BRANCH  13  14
ATOM     14  C   UNL     1       0.045   9.428  18.553  0.00  0.00    +0.000 C 
ATOM     15  C   UNL     1      -0.838  10.394  18.262  0.00  0.00    +0.000 C 
ENDBRANCH  13  14
ENDBRANCH   7  13
ENDBRANCH   1   8
BRANCH   4  16
ATOM     16  C   UNL     1       5.027   4.352  17.188  0.00  0.00    +0.000 C 
ATOM     17  O   UNL     1       4.259   3.797  16.391  0.00  0.00    +0.000 OA
ATOM     18  N   UNL     1       6.364   4.542  16.873  0.00  0.00    +0.000 N 
BRANCH  18  19
ATOM     19  C   UNL     1       7.296   5.385  17.614  0.00  0.00    +0.000 C 
BRANCH  19  20
ATOM     20  C   UNL     1       7.448   6.763  17.025  0.00  0.00    +0.000 C 
ATOM     21  C   UNL     1       7.799   7.907  17.634  0.00  0.00    +0.000 C 
ENDBRANCH  19  20
ENDBRANCH  18  19
BRANCH  18  22
ATOM     22  C   UNL     1       6.888   3.832  15.710  0.00  0.00    +0.000 C 
BRANCH  22  23
ATOM     23  C   UNL     1       6.471   4.519  14.445  0.00  0.00    +0.000 C 
ATOM     24  C   UNL     1       6.175   3.883  13.305  0.00  0.00    +0.000 C 
ENDBRANCH  22  23
ENDBRANCH  18  22
ENDBRANCH   4  16
TORSDOF 10
ENDMDL
MODEL 3
REMARK VINA RESULT:      -6.0      3.798      5.761
REMARK  Name = 
REMARK  10 active torsions:
REMARK  status: ('A' for Active; 'I' for Inactive)
REMARK    1  A    between atoms: C_2  and  C_3
REMARK    2  A    between atoms: C_3  and  N_4
REMARK    3  A    between atoms: N_4  and  C_5
REMARK    4  A    between atoms: C_5  and  C_6
REMARK    5  A    between atoms: C_8  and  C_10
REMARK    6  A    between atoms: C_13  and  C_14
REMARK    7  A    between atoms: N_16  and  C_17
REMARK    8  A    between atoms: N_16  and  C_20
REMARK    9  A    between atoms: C_17  and  C_18
REMARK   10  A    between atoms: C_20  and  C_21
REMARK                            x       y       z     vdW  Elec       q    Type
REMARK                         _______ _______ _______ _____ _____    ______ ____
ROOT
ATOM      1  C   UNL     1       1.939   6.825  18.330  0.00  0.00    +0.000 C 
ATOM      2  C   UNL     1       3.311   7.231  17.780  0.00  0.00    +0.000 C 
ATOM      3  C   UNL     1       4.478   6.473  18.417  0.00  0.00    +0.000 C 
ATOM      4  C   UNL     1       4.308   4.948  18.436  0.00  0.00    +0.000 C 
ATOM      5  C   UNL     1       2.909   4.501  18.884  0.00  0.00    +0.000 C 
ATOM      6  C   UNL     1       1.756   5.304  18.275  0.00  0.00    +0.000 C 
ENDROOT
BRANCH   1   8
ATOM      7  N   UNL     1       1.392   8.684  19.976  0.00  0.00    +0.000 N 
ATOM      8  C   UNL     1       1.757   7.359  19.759  0.00  0.00    +0.000 C 
ATOM      9  O   UNL     1       2.004   6.620  20.719  0.00  0.00    +0.000 OA
BRANCH   7  10
ATOM     10  C   UNL     1       1.373   9.147  21.362  0.00  0.00    +0.000 C 
BRANCH  10  12
ATOM     11  C   UNL     1      -0.516   9.871  22.878  0.00  0.00    +0.000 C 
ATOM     12  C   UNL     1      -0.025   9.086  21.910  0.00  0.00    +0.000 C 
ENDBRANCH  10  12
ENDBRANCH   7  10
BRANCH   7  13
ATOM     13  C   UNL     1       0.849   9.593  18.973  0.00  0.00    +0.000 C 
BRANCH  13  14
ATOM     14  C   UNL     1       1.284  11.022  19.158  0.00  0.00    +0.000 C 
ATOM     15  C   UNL     1       1.988  11.812  18.335  0.00  0.00    +0.000 C 
ENDBRANCH  13  14
ENDBRANCH   7  13
ENDBRANCH   1   8
BRANCH   4  16
ATOM     16  C   UNL     1       4.639   4.304  17.085  0.00  0.00    +0.000 C 
ATOM     17  O   UNL     1       3.800   3.590  16.522  0.00  0.00    +0.000 OA
ATOM     18  N   UNL     1       5.891   4.510  16.522  0.00  0.00    +0.000 N 
BRANCH  18  19
ATOM     19  C   UNL     1       6.860   5.508  16.960  0.00  0.00    +0.000 C 
BRANCH  19  20
ATOM     20  C   UNL     1       7.726   5.037  18.100  0.00  0.00    +0.000 C 
ATOM     21  C   UNL     1       7.973   5.637  19.275  0.00  0.00    +0.000 C 
ENDBRANCH  19  20
ENDBRANCH  18  19
BRANCH  18  22
ATOM     22  C   UNL     1       6.277   3.650  15.408  0.00  0.00    +0.000 C 
BRANCH  22  23
ATOM     23  C   UNL     1       6.057   4.353  14.103  0.00  0.00    +0.000 C 
ATOM     24  C   UNL     1       6.235   3.788  12.903  0.00  0.00    +0.000 C 
ENDBRANCH  22  23
ENDBRANCH  18  22
ENDBRANCH   4  16
TORSDOF 10
ENDMDL
MODEL 4
REMARK VINA RESULT:      -5.9      1.801      7.155
REMARK  Name = 
REMARK  10 active torsions:
REMARK  status: ('A' for Active; 'I' for Inactive)
REMARK    1  A    between atoms: C_2  and  C_3
REMARK    2  A    between atoms: C_3  and  N_4
REMARK    3  A    between atoms: N_4  and  C_5
REMARK    4  A    between atoms: C_5  and  C_6
REMARK    5  A    between atoms: C_8  and  C_10
REMARK    6  A    between atoms: C_13  and  C_14
REMARK    7  A    between atoms: N_16  and  C_17
REMARK    8  A    between atoms: N_16  and  C_20
REMARK    9  A    between atoms: C_17  and  C_18
REMARK   10  A    between atoms: C_20  and  C_21
REMARK                            x       y       z     vdW  Elec       q    Type
REMARK                         _______ _______ _______ _____ _____    ______ ____
ROOT
ATOM      1  C   UNL     1       6.494   3.930  15.840  0.00  0.00    +0.000 C 
ATOM      2  C   UNL     1       7.237   4.620  16.989  0.00  0.00    +0.000 C 
ATOM      3  C   UNL     1       6.828   6.080  17.198  0.00  0.00    +0.000 C 
ATOM      4  C   UNL     1       5.314   6.306  17.292  0.00  0.00    +0.000 C 
ATOM      5  C   UNL     1       4.521   5.546  16.217  0.00  0.00    +0.000 C 
ATOM      6  C   UNL     1       4.978   4.103  15.987  0.00  0.00    +0.000 C 
ENDROOT
BRANCH   1   8
ATOM      7  N   UNL     1       6.429   4.006  13.299  0.00  0.00    +0.000 N 
ATOM      8  C   UNL     1       6.990   4.464  14.486  0.00  0.00    +0.000 C 
ATOM      9  O   UNL     1       7.939   5.256  14.458  0.00  0.00    +0.000 OA
BRANCH   7  10
ATOM     10  C   UNL     1       7.048   4.460  12.055  0.00  0.00    +0.000 C 
BRANCH  10  12
ATOM     11  C   UNL     1       7.447   2.190  11.017  0.00  0.00    +0.000 C 
ATOM     12  C   UNL     1       7.898   3.368  11.469  0.00  0.00    +0.000 C 
ENDBRANCH  10  12
ENDBRANCH   7  10
BRANCH   7  13
ATOM     13  C   UNL     1       5.175   3.272  13.177  0.00  0.00    +0.000 C 
BRANCH  13  14
ATOM     14  C   UNL     1       4.328   3.716  12.014  0.00  0.00    +0.000 C 
ATOM     15  C   UNL     1       3.776   2.989  11.034  0.00  0.00    +0.000 C 
ENDBRANCH  13  14
ENDBRANCH   7  13
ENDBRANCH   1   8
BRANCH   4  16
ATOM     16  C   UNL     1       4.753   5.959  18.676  0.00  0.00    +0.000 C 
ATOM     17  O   UNL     1       5.505   5.509  19.549  0.00  0.00    +0.000 OA
ATOM     18  N   UNL     1       3.398   6.131  18.922  0.00  0.00    +0.000 N 
BRANCH  18  19
ATOM     19  C   UNL     1       2.471   6.868  18.071  0.00  0.00    +0.000 C 
BRANCH  19  20
ATOM     20  C   UNL     1       2.252   8.290  18.521  0.00  0.00    +0.000 C 
ATOM     21  C   UNL     1       1.690   9.309  17.853  0.00  0.00    +0.000 C 
ENDBRANCH  19  20
ENDBRANCH  18  19
BRANCH  18  22
ATOM     22  C   UNL     1       2.851   5.514  20.126  0.00  0.00    +0.000 C 
BRANCH  22  23
ATOM     23  C   UNL     1       1.873   4.439  19.766  0.00  0.00    +0.000 C 
ATOM     24  C   UNL     1       2.188   3.328  19.089  0.00  0.00    +0.000 C 
ENDBRANCH  22  23
ENDBRANCH  18  22
ENDBRANCH   4  16
TORSDOF 10
ENDMDL
MODEL 5
REMARK VINA RESULT:      -5.9      4.007      8.051
REMARK  Name = 
REMARK  10 active torsions:
REMARK  status: ('A' for Active; 'I' for Inactive)
REMARK    1  A    between atoms: C_2  and  C_3
REMARK    2  A    between atoms: C_3  and  N_4
REMARK    3  A    between atoms: N_4  and  C_5
REMARK    4  A    between atoms: C_5  and  C_6
REMARK    5  A    between atoms: C_8  and  C_10
REMARK    6  A    between atoms: C_13  and  C_14
REMARK    7  A    between atoms: N_16  and  C_17
REMARK    8  A    between atoms: N_16  and  C_20
REMARK    9  A    between atoms: C_17  and  C_18
REMARK   10  A    between atoms: C_20  and  C_21
REMARK                            x       y       z     vdW  Elec       q    Type
REMARK                         _______ _______ _______ _____ _____    ______ ____
ROOT
ATOM      1  C   UNL     1       4.286   4.847  18.844  0.00  0.00    +0.000 C 
ATOM      2  C   UNL     1       4.661   6.329  18.731  0.00  0.00    +0.000 C 
ATOM      3  C   UNL     1       3.708   7.139  17.848  0.00  0.00    +0.000 C 
ATOM      4  C   UNL     1       2.223   6.958  18.187  0.00  0.00    +0.000 C 
ATOM      5  C   UNL     1       1.828   5.491  18.410  0.00  0.00    +0.000 C 
ATOM      6  C   UNL     1       2.818   4.684  19.255  0.00  0.00    +0.000 C 
ENDROOT
BRANCH   1   8
ATOM      7  N   UNL     1       5.836   4.222  16.928  0.00  0.00    +0.000 N 
ATOM      8  C   UNL     1       4.583   4.119  17.524  0.00  0.00    +0.000 C 
ATOM      9  O   UNL     1       3.678   3.494  16.960  0.00  0.00    +0.000 OA
BRANCH   7  10
ATOM     10  C   UNL     1       5.993   3.612  15.609  0.00  0.00    +0.000 C 
BRANCH  10  12
ATOM     11  C   UNL     1       6.896   4.825  13.583  0.00  0.00    +0.000 C 
ATOM     12  C   UNL     1       5.973   4.670  14.542  0.00  0.00    +0.000 C 
ENDBRANCH  10  12
ENDBRANCH   7  10
BRANCH   7  13
ATOM     13  C   UNL     1       7.048   4.713  17.572  0.00  0.00    +0.000 C 
BRANCH  13  14
ATOM     14  C   UNL     1       7.510   6.046  17.047  0.00  0.00    +0.000 C 
ATOM     15  C   UNL     1       7.685   7.205  17.698  0.00  0.00    +0.000 C 
ENDBRANCH  13  14
ENDBRANCH   7  13
ENDBRANCH   1   8
BRANCH   4  16
ATOM     16  C   UNL     1       1.793   7.791  19.400  0.00  0.00    +0.000 C 
ATOM     17  O   UNL     1       1.904   7.322  20.539  0.00  0.00    +0.000 OA
ATOM     18  N   UNL     1       1.256   9.055  19.200  0.00  0.00    +0.000 N 
BRANCH  18  19
ATOM     19  C   UNL     1       1.298   9.803  17.948  0.00  0.00    +0.000 C 
BRANCH  19  20
ATOM     20  C   UNL     1       2.358  10.874  17.931  0.00  0.00    +0.000 C 
ATOM     21  C   UNL     1       2.265  12.159  18.307  0.00  0.00    +0.000 C 
ENDBRANCH  19  20
ENDBRANCH  18  19
BRANCH  18  22
ATOM     22  C   UNL     1       0.584   9.687  20.331  0.00  0.00    +0.000 C 
BRANCH  22  23
ATOM     23  C   UNL     1      -0.685  10.345  19.886  0.00  0.00    +0.000 C 
ATOM     24  C   UNL     1      -1.068  11.574  20.255  0.00  0.00    +0.000 C 
ENDBRANCH  22  23
ENDBRANCH  18  22
ENDBRANCH   4  16
TORSDOF 10
ENDMDL
MODEL 6
REMARK VINA RESULT:      -5.7      1.945      3.104
REMARK  Name = 
REMARK  10 active torsions:
REMARK  status: ('A' for Active; 'I' for Inactive)
REMARK    1  A    between atoms: C_2  and  C_3
REMARK    2  A    between atoms: C_3  and  N_4
REMARK    3  A    between atoms: N_4  and  C_5
REMARK    4  A    between atoms: C_5  and  C_6
REMARK    5  A    between atoms: C_8  and  C_10
REMARK    6  A    between atoms: C_13  and  C_14
REMARK    7  A    between atoms: N_16  and  C_17
REMARK    8  A    between atoms: N_16  and  C_20
REMARK    9  A    between atoms: C_17  and  C_18
REMARK   10  A    between atoms: C_20  and  C_21
REMARK                            x       y       z     vdW  Elec       q    Type
REMARK                         _______ _______ _______ _____ _____    ______ ____
ROOT
ATOM      1  C   UNL     1       4.947   5.981  18.888  0.00  0.00    +0.000 C 
ATOM      2  C   UNL     1       6.292   5.247  18.855  0.00  0.00    +0.000 C 
ATOM      3  C   UNL     1       6.324   4.065  17.883  0.00  0.00    +0.000 C 
ATOM      4  C   UNL     1       5.828   4.394  16.470  0.00  0.00    +0.000 C 
ATOM      5  C   UNL     1       4.532   5.220  16.461  0.00  0.00    +0.000 C 
ATOM      6  C   UNL     1       4.499   6.367  17.474  0.00  0.00    +0.000 C 
ENDROOT
BRANCH   1   8
ATOM      7  N   UNL     1       2.739   5.708  20.119  0.00  0.00    +0.000 N 
ATOM      8  C   UNL     1       3.888   5.122  19.597  0.00  0.00    +0.000 C 
ATOM      9  O   UNL     1       4.096   3.915  19.759  0.00  0.00    +0.000 OA
BRANCH   7  10
ATOM     10  C   UNL     1       1.849   4.845  20.894  0.00  0.00    +0.000 C 
BRANCH  10  12
ATOM     11  C   UNL     1       0.827   2.672  20.105  0.00  0.00    +0.000 C 
ATOM     12  C   UNL     1       1.025   3.990  19.973  0.00  0.00    +0.000 C 
ENDBRANCH  10  12
ENDBRANCH   7  10
BRANCH   7  13
ATOM     13  C   UNL     1       2.248   7.046  19.808  0.00  0.00    +0.000 C 
BRANCH  13  14
ATOM     14  C   UNL     1       1.439   7.662  20.918  0.00  0.00    +0.000 C 
ATOM     15  C   UNL     1       0.856   8.867  20.981  0.00  0.00    +0.000 C 
ENDBRANCH  13  14
ENDBRANCH   7  13
ENDBRANCH   1   8
BRANCH   4  16
ATOM     16  C   UNL     1       6.890   5.106  15.625  0.00  0.00    +0.000 C 
ATOM     17  O   UNL     1       7.585   5.996  16.131  0.00  0.00    +0.000 OA
ATOM     18  N   UNL     1       7.041   4.759  14.289  0.00  0.00    +0.000 N 
BRANCH  18  19
ATOM     19  C   UNL     1       6.463   3.581  13.652  0.00  0.00    +0.000 C 
BRANCH  19  20
ATOM     20  C   UNL     1       5.143   3.857  12.978  0.00  0.00    +0.000 C 
ATOM     21  C   UNL     1       4.643   3.324  11.852  0.00  0.00    +0.000 C 
ENDBRANCH  19  20
ENDBRANCH  18  19
BRANCH  18  22
ATOM     22  C   UNL     1       7.833   5.651  13.449  0.00  0.00    +0.000 C 
BRANCH  22  23
ATOM     23  C   UNL     1       7.814   5.184  12.026  0.00  0.00    +0.000 C 
ATOM     24  C   UNL     1       7.699   5.996  10.967  0.00  0.00    +0.000 C 
ENDBRANCH  22  23
ENDBRANCH  18  22
ENDBRANCH   4  16
TORSDOF 10
ENDMDL
MODEL 7
REMARK VINA RESULT:      -5.7      3.761      8.064
REMARK  Name = 
REMARK  10 active torsions:
REMARK  status: ('A' for Active; 'I' for Inactive)
REMARK    1  A    between atoms: C_2  and  C_3
REMARK    2  A    between atoms: C_3  and  N_4
REMARK    3  A    between atoms: N_4  and  C_5
REMARK    4  A    between atoms: C_5  and  C_6
REMARK    5  A    between atoms: C_8  and  C_10
REMARK    6  A    between atoms: C_13  and  C_14
REMARK    7  A    between atoms: N_16  and  C_17
REMARK    8  A    between atoms: N_16  and  C_20
REMARK    9  A    between atoms: C_17  and  C_18
REMARK   10  A    between atoms: C_20  and  C_21
REMARK                            x       y       z     vdW  Elec       q    Type
REMARK                         _______ _______ _______ _____ _____    ______ ____
ROOT
ATOM      1  C   UNL     1       4.656   5.121  18.494  0.00  0.00    +0.000 C 
ATOM      2  C   UNL     1       4.734   6.621  18.187  0.00  0.00    +0.000 C 
ATOM      3  C   UNL     1       3.448   7.194  17.587  0.00  0.00    +0.000 C 
ATOM      4  C   UNL     1       2.174   6.844  18.368  0.00  0.00    +0.000 C 
ATOM      5  C   UNL     1       2.107   5.367  18.784  0.00  0.00    +0.000 C 
ATOM      6  C   UNL     1       3.417   4.798  19.336  0.00  0.00    +0.000 C 
ENDROOT
BRANCH   1   8
ATOM      7  N   UNL     1       5.705   4.474  16.269  0.00  0.00    +0.000 N 
ATOM      8  C   UNL     1       4.675   4.308  17.189  0.00  0.00    +0.000 C 
ATOM      9  O   UNL     1       3.730   3.553  16.932  0.00  0.00    +0.000 OA
BRANCH   7  10
ATOM     10  C   UNL     1       5.577   3.765  14.998  0.00  0.00    +0.000 C 
BRANCH  10  12
ATOM     11  C   UNL     1       6.621   3.960  12.703  0.00  0.00    +0.000 C 
ATOM     12  C   UNL     1       6.515   4.353  13.980  0.00  0.00    +0.000 C 
ENDBRANCH  10  12
ENDBRANCH   7  10
BRANCH   7  13
ATOM     13  C   UNL     1       6.981   5.132  16.528  0.00  0.00    +0.000 C 
BRANCH  13  14
ATOM     14  C   UNL     1       7.724   4.560  17.706  0.00  0.00    +0.000 C 
ATOM     15  C   UNL     1       8.055   5.139  18.868  0.00  0.00    +0.000 C 
ENDBRANCH  13  14
ENDBRANCH   7  13
ENDBRANCH   1   8
BRANCH   4  16
ATOM     16  C   UNL     1       1.982   7.730  19.604  0.00  0.00    +0.000 C 
ATOM     17  O   UNL     1       2.231   7.279  20.729  0.00  0.00    +0.000 OA
ATOM     18  N   UNL     1       1.502   9.022  19.446  0.00  0.00    +0.000 N 
BRANCH  18  19
ATOM     19  C   UNL     1       1.405   9.738  18.178  0.00  0.00    +0.000 C 
BRANCH  19  20
ATOM     20  C   UNL     1       1.479  11.236  18.334  0.00  0.00    +0.000 C 
ATOM     21  C   UNL     1       2.485  12.067  18.021  0.00  0.00    +0.000 C 
ENDBRANCH  19  20
ENDBRANCH  18  19
BRANCH  18  22
ATOM     22  C   UNL     1       1.046   9.722  20.642  0.00  0.00    +0.000 C 
BRANCH  22  23
ATOM     23  C   UNL     1      -0.177   9.062  21.202  0.00  0.00    +0.000 C 
ATOM     24  C   UNL     1      -0.478   9.013  22.505  0.00  0.00    +0.000 C 
ENDBRANCH  22  23
ENDBRANCH  18  22
ENDBRANCH   4  16
TORSDOF 10
ENDMDL
MODEL 8
REMARK VINA RESULT:      -5.7      3.961      8.173
REMARK  Name = 
REMARK  10 active torsions:
REMARK  status: ('A' for Active; 'I' for Inactive)
REMARK    1  A    between atoms: C_2  and  C_3
REMARK    2  A    between atoms: C_3  and  N_4
REMARK    3  A    between atoms: N_4  and  C_5
REMARK    4  A    between atoms: C_5  and  C_6
REMARK    5  A    between atoms: C_8  and  C_10
REMARK    6  A    between atoms: C_13  and  C_14
REMARK    7  A    between atoms: N_16  and  C_17
REMARK    8  A    between atoms: N_16  and  C_20
REMARK    9  A    between atoms: C_17  and  C_18
REMARK   10  A    between atoms: C_20  and  C_21
REMARK                            x       y       z     vdW  Elec       q    Type
REMARK                         _______ _______ _______ _____ _____    ______ ____
ROOT
ATOM      1  C   UNL     1       4.423   5.430  18.939  0.00  0.00    +0.000 C 
ATOM      2  C   UNL     1       4.495   6.894  18.494  0.00  0.00    +0.000 C 
ATOM      3  C   UNL     1       3.209   7.402  17.838  0.00  0.00    +0.000 C 
ATOM      4  C   UNL     1       1.934   7.121  18.643  0.00  0.00    +0.000 C 
ATOM      5  C   UNL     1       1.871   5.689  19.195  0.00  0.00    +0.000 C 
ATOM      6  C   UNL     1       3.181   5.181  19.803  0.00  0.00    +0.000 C 
ENDROOT
BRANCH   1   8
ATOM      7  N   UNL     1       5.419   4.657  16.730  0.00  0.00    +0.000 N 
ATOM      8  C   UNL     1       4.451   4.498  17.717  0.00  0.00    +0.000 C 
ATOM      9  O   UNL     1       3.564   3.647  17.583  0.00  0.00    +0.000 OA
BRANCH   7  10
ATOM     10  C   UNL     1       5.293   3.820  15.539  0.00  0.00    +0.000 C 
BRANCH  10  12
ATOM     11  C   UNL     1       6.391   3.926  13.264  0.00  0.00    +0.000 C 
ATOM     12  C   UNL     1       5.876   4.525  14.346  0.00  0.00    +0.000 C 
ENDBRANCH  10  12
ENDBRANCH   7  10
BRANCH   7  13
ATOM     13  C   UNL     1       6.643   5.438  16.857  0.00  0.00    +0.000 C 
BRANCH  13  14
ATOM     14  C   UNL     1       7.610   4.882  17.868  0.00  0.00    +0.000 C 
ATOM     15  C   UNL     1       8.043   5.417  19.018  0.00  0.00    +0.000 C 
ENDBRANCH  13  14
ENDBRANCH   7  13
ENDBRANCH   1   8
BRANCH   4  16
ATOM     16  C   UNL     1       1.732   8.118  19.790  0.00  0.00    +0.000 C 
ATOM     17  O   UNL     1       2.131   7.837  20.927  0.00  0.00    +0.000 OA
ATOM     18  N   UNL     1       1.077   9.316  19.541  0.00  0.00    +0.000 N 
BRANCH  18  19
ATOM     19  C   UNL     1       0.782   9.859  18.220  0.00  0.00    +0.000 C 
BRANCH  19  20
ATOM     20  C   UNL     1      -0.683   9.805  17.869  0.00  0.00    +0.000 C 
ATOM     21  C   UNL     1      -1.556  10.816  17.738  0.00  0.00    +0.000 C 
ENDBRANCH  19  20
ENDBRANCH  18  19
BRANCH  18  22
ATOM     22  C   UNL     1       0.636  10.093  20.695  0.00  0.00    +0.000 C 
BRANCH  22  23
ATOM     23  C   UNL     1      -0.384   9.329  21.483  0.00  0.00    +0.000 C 
ATOM     24  C   UNL     1      -0.544   9.431  22.808  0.00  0.00    +0.000 C 
ENDBRANCH  22  23
ENDBRANCH  18  22
ENDBRANCH   4  16
TORSDOF 10
ENDMDL
MODEL 9
REMARK VINA RESULT:      -5.7      3.818      8.217
REMARK  Name = 
REMARK  10 active torsions:
REMARK  status: ('A' for Active; 'I' for Inactive)
REMARK    1  A    between atoms: C_2  and  C_3
REMARK    2  A    between atoms: C_3  and  N_4
REMARK    3  A    between atoms: N_4  and  C_5
REMARK    4  A    between atoms: C_5  and  C_6
REMARK    5  A    between atoms: C_8  and  C_10
REMARK    6  A    between atoms: C_13  and  C_14
REMARK    7  A    between atoms: N_16  and  C_17
REMARK    8  A    between atoms: N_16  and  C_20
REMARK    9  A    between atoms: C_17  and  C_18
REMARK   10  A    between atoms: C_20  and  C_21
REMARK                            x       y       z     vdW  Elec       q    Type
REMARK                         _______ _______ _______ _____ _____    ______ ____
ROOT
ATOM      1  C   UNL     1       3.508   4.150  18.771  0.00  0.00    +0.000 C 
ATOM      2  C   UNL     1       4.180   5.228  19.627  0.00  0.00    +0.000 C 
ATOM      3  C   UNL     1       3.916   6.655  19.139  0.00  0.00    +0.000 C 
ATOM      4  C   UNL     1       2.437   6.975  18.890  0.00  0.00    +0.000 C 
ATOM      5  C   UNL     1       1.700   5.868  18.121  0.00  0.00    +0.000 C 
ATOM      6  C   UNL     1       2.014   4.446  18.591  0.00  0.00    +0.000 C 
ENDROOT
BRANCH   1   8
ATOM      7  N   UNL     1       5.575   4.323  17.299  0.00  0.00    +0.000 N 
ATOM      8  C   UNL     1       4.221   4.024  17.415  0.00  0.00    +0.000 C 
ATOM      9  O   UNL     1       3.566   3.719  16.412  0.00  0.00    +0.000 OA
BRANCH   7  10
ATOM     10  C   UNL     1       6.143   4.308  15.953  0.00  0.00    +0.000 C 
BRANCH  10  12
ATOM     11  C   UNL     1       5.285   6.646  15.522  0.00  0.00    +0.000 C 
ATOM     12  C   UNL     1       5.523   5.392  15.116  0.00  0.00    +0.000 C 
ENDBRANCH  10  12
ENDBRANCH   7  10
BRANCH   7  13
ATOM     13  C   UNL     1       6.514   4.462  18.406  0.00  0.00    +0.000 C 
BRANCH  13  14
ATOM     14  C   UNL     1       7.647   5.409  18.117  0.00  0.00    +0.000 C 
ATOM     15  C   UNL     1       7.914   6.609  18.651  0.00  0.00    +0.000 C 
ENDBRANCH  13  14
ENDBRANCH   7  13
ENDBRANCH   1   8
BRANCH   4  16
ATOM     16  C   UNL     1       1.678   7.287  20.185  0.00  0.00    +0.000 C 
ATOM     17  O   UNL     1       1.598   6.429  21.074  0.00  0.00    +0.000 OA
ATOM     18  N   UNL     1       1.064   8.523  20.332  0.00  0.00    +0.000 N 
BRANCH  18  19
ATOM     19  C   UNL     1       1.286   9.684  19.478  0.00  0.00    +0.000 C 
BRANCH  19  20
ATOM     20  C   UNL     1       0.207   9.877  18.444  0.00  0.00    +0.000 C 
ATOM     21  C   UNL     1      -0.845  10.710  18.469  0.00  0.00    +0.000 C 
ENDBRANCH  19  20
ENDBRANCH  18  19
BRANCH  18  22
ATOM     22  C   UNL     1       0.108   8.673  21.425  0.00  0.00    +0.000 C 
BRANCH  22  23
ATOM     23  C   UNL     1       0.384   9.928  22.194  0.00  0.00    +0.000 C 
ATOM     24  C   UNL     1      -0.564  10.750  22.661  0.00  0.00    +0.000 C 
ENDBRANCH  22  23
ENDBRANCH  18  22
ENDBRANCH   4  16
TORSDOF 10
ENDMDL
