MODEL 1
REMARK VINA RESULT:      -8.3      0.000      0.000
REMARK  Name = 
REMARK  10 active torsions:
REMARK  status: ('A' for Active; 'I' for Inactive)
REMARK    1  A    between atoms: C_1  and  C_2
REMARK    2  A    between atoms: C_5  and  N_6
REMARK    3  A    between atoms: C_7  and  C_9
REMARK    4  A    between atoms: C_9  and  C_10
REMARK    5  A    between atoms: C_9  and  O_11
REMARK    6  A    between atoms: O_11  and  C_12
REMARK    7  A    between atoms: C_12  and  C_14
REMARK    8  A    between atoms: C_15  and  C_16
REMARK    9  A    between atoms: C_23  and  S_24
REMARK   10  A    between atoms: S_24  and  N_27
REMARK                            x       y       z     vdW  Elec       q    Type
REMARK                         _______ _______ _______ _____ _____    ______ ____
ROOT
ATOM      1  N   UNL     1       1.730   7.675  20.483  0.00  0.00    +0.000 N 
ATOM      2  C   UNL     1       1.476   8.690  19.556  0.00  0.00    +0.000 C 
ATOM      3  O   UNL     1       1.680   8.612  18.346  0.00  0.00    +0.000 OA
ATOM      4  H   UNL     1       1.753   7.934  21.464  0.00  0.00    +0.000 HD
ENDROOT
BRANCH   1   9
ATOM      5  C   UNL     1       2.883   2.097  19.840  0.00  0.00    +0.000 C 
ATOM      6  C   UNL     1       2.553   3.560  19.791  0.00  0.00    +0.000 A 
ATOM      7  C   UNL     1       1.358   3.966  20.393  0.00  0.00    +0.000 A 
ATOM      8  C   UNL     1       1.060   5.315  20.569  0.00  0.00    +0.000 A 
ATOM      9  C   UNL     1       1.954   6.309  20.167  0.00  0.00    +0.000 A 
ATOM     10  C   UNL     1       3.128   5.923  19.496  0.00  0.00    +0.000 A 
ATOM     11  C   UNL     1       3.416   4.551  19.286  0.00  0.00    +0.000 A 
BRANCH  11  12
ATOM     12  S   UNL     1       4.818   4.093  18.248  0.00  0.00    +0.000 S 
ATOM     13  O   UNL     1       5.924   3.827  19.139  0.00  0.00    +0.000 OA
ATOM     14  O   UNL     1       4.364   3.091  17.306  0.00  0.00    +0.000 OA
BRANCH  12  15
ATOM     15  N   UNL     1       5.141   5.503  17.371  0.00  0.00    +0.000 NA
ATOM     16  C   UNL     1       5.286   5.381  15.898  0.00  0.00    +0.000 C 
ATOM     17  C   UNL     1       6.757   5.179  15.525  0.00  0.00    +0.000 C 
ATOM     18  O   UNL     1       7.540   6.297  15.967  0.00  0.00    +0.000 OA
ATOM     19  C   UNL     1       7.497   6.417  17.396  0.00  0.00    +0.000 C 
ATOM     20  C   UNL     1       6.067   6.528  17.941  0.00  0.00    +0.000 C 
ENDBRANCH  12  15
ENDBRANCH  11  12
ENDBRANCH   1   9
BRANCH   2  21
ATOM     21  C   UNL     1       0.910   9.978  20.174  0.00  0.00    +0.000 C 
ATOM     22  C   UNL     1       0.212  10.845  19.132  0.00  0.00    +0.000 C 
BRANCH  21  23
ATOM     23  O   UNL     1      -0.089   9.608  21.139  0.00  0.00    +0.000 OA
BRANCH  23  24
ATOM     24  C   UNL     1       0.199   9.902  22.425  0.00  0.00    +0.000 C 
ATOM     25  O   UNL     1       1.202   9.563  23.032  0.00  0.00    +0.000 OA
BRANCH  24  26
ATOM     26  C   UNL     1      -0.939  10.638  22.997  0.00  0.00    +0.000 C 
ATOM     27  C   UNL     1      -1.387  11.730  22.357  0.00  0.00    +0.000 C 
BRANCH  27  28
ATOM     28  C   UNL     1      -2.437  12.623  22.857  0.00  0.00    +0.000 A 
ATOM     29  C   UNL     1      -2.087  13.557  23.850  0.00  0.00    +0.000 A 
ATOM     30  C   UNL     1      -3.039  14.444  24.361  0.00  0.00    +0.000 A 
ATOM     31  C   UNL     1      -4.346  14.404  23.890  0.00  0.00    +0.000 A 
ATOM     32  C   UNL     1      -4.706  13.493  22.899  0.00  0.00    +0.000 A 
ATOM     33  C   UNL     1      -3.754  12.610  22.378  0.00  0.00    +0.000 A 
ENDBRANCH  27  28
ENDBRANCH  24  26
ENDBRANCH  23  24
ENDBRANCH  21  23
ENDBRANCH   2  21
TORSDOF 8
ENDMDL
MODEL 2
REMARK VINA RESULT:      -8.1      1.136      1.524
REMARK  Name = 
REMARK  10 active torsions:
REMARK  status: ('A' for Active; 'I' for Inactive)
REMARK    1  A    between atoms: C_1  and  C_2
REMARK    2  A    between atoms: C_5  and  N_6
REMARK    3  A    between atoms: C_7  and  C_9
REMARK    4  A    between atoms: C_9  and  C_10
REMARK    5  A    between atoms: C_9  and  O_11
REMARK    6  A    between atoms: O_11  and  C_12
REMARK    7  A    between atoms: C_12  and  C_14
REMARK    8  A    between atoms: C_15  and  C_16
REMARK    9  A    between atoms: C_23  and  S_24
REMARK   10  A    between atoms: S_24  and  N_27
REMARK                            x       y       z     vdW  Elec       q    Type
REMARK                         _______ _______ _______ _____ _____    ______ ____
ROOT
ATOM      1  N   UNL     1       1.819   8.137  19.753  0.00  0.00    +0.000 N 
ATOM      2  C   UNL     1       1.726   8.898  18.585  0.00  0.00    +0.000 C 
ATOM      3  O   UNL     1       2.130   8.549  17.477  0.00  0.00    +0.000 OA
ATOM      4  H   UNL     1       1.678   8.618  20.635  0.00  0.00    +0.000 HD
ENDROOT
BRANCH   1   9
ATOM      5  C   UNL     1       3.249   2.644  20.557  0.00  0.00    +0.000 C 
ATOM      6  C   UNL     1       2.817   4.021  20.143  0.00  0.00    +0.000 A 
ATOM      7  C   UNL     1       1.688   4.553  20.775  0.00  0.00    +0.000 A 
ATOM      8  C   UNL     1       1.327   5.887  20.602  0.00  0.00    +0.000 A 
ATOM      9  C   UNL     1       2.090   6.745  19.808  0.00  0.00    +0.000 A 
ATOM     10  C   UNL     1       3.187   6.210  19.109  0.00  0.00    +0.000 A 
ATOM     11  C   UNL     1       3.536   4.845  19.257  0.00  0.00    +0.000 A 
BRANCH  11  12
ATOM     12  S   UNL     1       4.814   4.141  18.197  0.00  0.00    +0.000 S 
ATOM     13  O   UNL     1       5.989   3.971  19.020  0.00  0.00    +0.000 OA
ATOM     14  O   UNL     1       4.235   3.019  17.487  0.00  0.00    +0.000 OA
BRANCH  12  15
ATOM     15  N   UNL     1       5.107   5.362  17.062  0.00  0.00    +0.000 NA
ATOM     16  C   UNL     1       5.407   4.949  15.668  0.00  0.00    +0.000 C 
ATOM     17  C   UNL     1       6.920   4.823  15.466  0.00  0.00    +0.000 C 
ATOM     18  O   UNL     1       7.560   6.082  15.714  0.00  0.00    +0.000 OA
ATOM     19  C   UNL     1       7.366   6.495  17.075  0.00  0.00    +0.000 C 
ATOM     20  C   UNL     1       5.885   6.571  17.467  0.00  0.00    +0.000 C 
ENDBRANCH  12  15
ENDBRANCH  11  12
ENDBRANCH   1   9
BRANCH   2  21
ATOM     21  C   UNL     1       1.067  10.273  18.781  0.00  0.00    +0.000 C 
ATOM     22  C   UNL     1      -0.390  10.270  18.329  0.00  0.00    +0.000 C 
BRANCH  21  23
ATOM     23  O   UNL     1       1.062  10.567  20.188  0.00  0.00    +0.000 OA
BRANCH  23  24
ATOM     24  C   UNL     1       0.859  11.861  20.517  0.00  0.00    +0.000 C 
ATOM     25  O   UNL     1       1.439  12.823  20.040  0.00  0.00    +0.000 OA
BRANCH  24  26
ATOM     26  C   UNL     1      -0.130  11.912  21.605  0.00  0.00    +0.000 C 
ATOM     27  C   UNL     1      -0.916  12.995  21.711  0.00  0.00    +0.000 C 
BRANCH  27  28
ATOM     28  C   UNL     1      -1.868  13.236  22.799  0.00  0.00    +0.000 A 
ATOM     29  C   UNL     1      -2.885  12.284  23.006  0.00  0.00    +0.000 A 
ATOM     30  C   UNL     1      -3.817  12.451  24.034  0.00  0.00    +0.000 A 
ATOM     31  C   UNL     1      -3.747  13.566  24.860  0.00  0.00    +0.000 A 
ATOM     32  C   UNL     1      -2.740  14.512  24.676  0.00  0.00    +0.000 A 
ATOM     33  C   UNL     1      -1.799  14.345  23.654  0.00  0.00    +0.000 A 
ENDBRANCH  27  28
ENDBRANCH  24  26
ENDBRANCH  23  24
ENDBRANCH  21  23
ENDBRANCH   2  21
TORSDOF 8
ENDMDL
MODEL 3
REMARK VINA RESULT:      -8.0      2.640      3.905
REMARK  Name = 
REMARK  10 active torsions:
REMARK  status: ('A' for Active; 'I' for Inactive)
REMARK    1  A    between atoms: C_1  and  C_2
REMARK    2  A    between atoms: C_5  and  N_6
REMARK    3  A    between atoms: C_7  and  C_9
REMARK    4  A    between atoms: C_9  and  C_10
REMARK    5  A    between atoms: C_9  and  O_11
REMARK    6  A    between atoms: O_11  and  C_12
REMARK    7  A    between atoms: C_12  and  C_14
REMARK    8  A    between atoms: C_15  and  C_16
REMARK    9  A    between atoms: C_23  and  S_24
REMARK   10  A    between atoms: S_24  and  N_27
REMARK                            x       y       z     vdW  Elec       q    Type
REMARK                         _______ _______ _______ _____ _____    ______ ____
ROOT
ATOM      1  N   UNL     1       1.735   8.028  19.822  0.00  0.00    +0.000 N 
ATOM      2  C   UNL     1       1.654   8.787  18.652  0.00  0.00    +0.000 C 
ATOM      3  O   UNL     1       2.113   8.457  17.560  0.00  0.00    +0.000 OA
ATOM      4  H   UNL     1       1.540   8.501  20.699  0.00  0.00    +0.000 HD
ENDROOT
BRANCH   1   9
ATOM      5  C   UNL     1       3.399   2.605  20.650  0.00  0.00    +0.000 C 
ATOM      6  C   UNL     1       2.901   3.959  20.233  0.00  0.00    +0.000 A 
ATOM      7  C   UNL     1       1.776   4.458  20.897  0.00  0.00    +0.000 A 
ATOM      8  C   UNL     1       1.358   5.774  20.719  0.00  0.00    +0.000 A 
ATOM      9  C   UNL     1       2.060   6.648  19.887  0.00  0.00    +0.000 A 
ATOM     10  C   UNL     1       3.151   6.144  19.157  0.00  0.00    +0.000 A 
ATOM     11  C   UNL     1       3.557   4.795  19.311  0.00  0.00    +0.000 A 
BRANCH  11  12
ATOM     12  S   UNL     1       4.823   4.124  18.216  0.00  0.00    +0.000 S 
ATOM     13  O   UNL     1       6.003   3.919  19.024  0.00  0.00    +0.000 OA
ATOM     14  O   UNL     1       4.233   3.032  17.470  0.00  0.00    +0.000 OA
BRANCH  12  15
ATOM     15  N   UNL     1       5.114   5.384  17.124  0.00  0.00    +0.000 NA
ATOM     16  C   UNL     1       5.393   5.022  15.712  0.00  0.00    +0.000 C 
ATOM     17  C   UNL     1       6.902   4.890  15.487  0.00  0.00    +0.000 C 
ATOM     18  O   UNL     1       7.557   6.133  15.774  0.00  0.00    +0.000 OA
ATOM     19  C   UNL     1       7.383   6.496  17.152  0.00  0.00    +0.000 C 
ATOM     20  C   UNL     1       5.908   6.570  17.564  0.00  0.00    +0.000 C 
ENDBRANCH  12  15
ENDBRANCH  11  12
ENDBRANCH   1   9
BRANCH   2  21
ATOM     21  C   UNL     1       0.932  10.133  18.824  0.00  0.00    +0.000 C 
ATOM     22  C   UNL     1      -0.358  10.190  18.012  0.00  0.00    +0.000 C 
BRANCH  21  23
ATOM     23  O   UNL     1       0.557  10.263  20.205  0.00  0.00    +0.000 OA
BRANCH  23  24
ATOM     24  C   UNL     1       0.812  11.461  20.774  0.00  0.00    +0.000 C 
ATOM     25  O   UNL     1       0.496  11.802  21.903  0.00  0.00    +0.000 OA
BRANCH  24  26
ATOM     26  C   UNL     1       1.471  12.316  19.775  0.00  0.00    +0.000 C 
ATOM     27  C   UNL     1       1.616  13.624  20.042  0.00  0.00    +0.000 C 
BRANCH  27  28
ATOM     28  C   UNL     1       2.153  14.616  19.105  0.00  0.00    +0.000 A 
ATOM     29  C   UNL     1       1.495  15.856  19.011  0.00  0.00    +0.000 A 
ATOM     30  C   UNL     1       1.964  16.847  18.145  0.00  0.00    +0.000 A 
ATOM     31  C   UNL     1       3.088  16.610  17.364  0.00  0.00    +0.000 A 
ATOM     32  C   UNL     1       3.760  15.392  17.454  0.00  0.00    +0.000 A 
ATOM     33  C   UNL     1       3.299  14.400  18.326  0.00  0.00    +0.000 A 
ENDBRANCH  27  28
ENDBRANCH  24  26
ENDBRANCH  23  24
ENDBRANCH  21  23
ENDBRANCH   2  21
TORSDOF 8
ENDMDL
MODEL 4
REMARK VINA RESULT:      -8.0      1.500      2.001
REMARK  Name = 
REMARK  10 active torsions:
REMARK  status: ('A' for Active; 'I' for Inactive)
REMARK    1  A    between atoms: C_1  and  C_2
REMARK    2  A    between atoms: C_5  and  N_6
REMARK    3  A    between atoms: C_7  and  C_9
REMARK    4  A    between atoms: C_9  and  C_10
REMARK    5  A    between atoms: C_9  and  O_11
REMARK    6  A    between atoms: O_11  and  C_12
REMARK    7  A    between atoms: C_12  and  C_14
REMARK    8  A    between atoms: C_15  and  C_16
REMARK    9  A    between atoms: C_23  and  S_24
REMARK   10  A    between atoms: S_24  and  N_27
REMARK                            x       y       z     vdW  Elec       q    Type
REMARK                         _______ _______ _______ _____ _____    ______ ____
ROOT
ATOM      1  N   UNL     1       1.942   8.258  19.876  0.00  0.00    +0.000 N 
ATOM      2  C   UNL     1       1.516   8.991  18.765  0.00  0.00    +0.000 C 
ATOM      3  O   UNL     1       1.529   8.589  17.603  0.00  0.00    +0.000 OA
ATOM      4  H   UNL     1       2.111   8.771  20.735  0.00  0.00    +0.000 HD
ENDROOT
BRANCH   1   9
ATOM      5  C   UNL     1       3.132   2.694  20.575  0.00  0.00    +0.000 C 
ATOM      6  C   UNL     1       2.762   4.097  20.187  0.00  0.00    +0.000 A 
ATOM      7  C   UNL     1       1.652   4.663  20.822  0.00  0.00    +0.000 A 
ATOM      8  C   UNL     1       1.348   6.014  20.674  0.00  0.00    +0.000 A 
ATOM      9  C   UNL     1       2.154   6.855  19.904  0.00  0.00    +0.000 A 
ATOM     10  C   UNL     1       3.233   6.289  19.202  0.00  0.00    +0.000 A 
ATOM     11  C   UNL     1       3.523   4.908  19.323  0.00  0.00    +0.000 A 
BRANCH  11  12
ATOM     12  S   UNL     1       4.779   4.173  18.258  0.00  0.00    +0.000 S 
ATOM     13  O   UNL     1       5.954   3.978  19.076  0.00  0.00    +0.000 OA
ATOM     14  O   UNL     1       4.171   3.062  17.554  0.00  0.00    +0.000 OA
BRANCH  12  15
ATOM     15  N   UNL     1       5.093   5.384  17.119  0.00  0.00    +0.000 NA
ATOM     16  C   UNL     1       5.352   4.963  15.719  0.00  0.00    +0.000 C 
ATOM     17  C   UNL     1       6.855   4.783  15.488  0.00  0.00    +0.000 C 
ATOM     18  O   UNL     1       7.544   6.019  15.725  0.00  0.00    +0.000 OA
ATOM     19  C   UNL     1       7.391   6.436  17.090  0.00  0.00    +0.000 C 
ATOM     20  C   UNL     1       5.921   6.564  17.510  0.00  0.00    +0.000 C 
ENDBRANCH  12  15
ENDBRANCH  11  12
ENDBRANCH   1   9
BRANCH   2  21
ATOM     21  C   UNL     1       1.016  10.406  19.100  0.00  0.00    +0.000 C 
ATOM     22  C   UNL     1       1.944  11.479  18.542  0.00  0.00    +0.000 C 
BRANCH  21  23
ATOM     23  O   UNL     1      -0.259  10.590  18.462  0.00  0.00    +0.000 OA
BRANCH  23  24
ATOM     24  C   UNL     1      -0.846  11.790  18.658  0.00  0.00    +0.000 C 
ATOM     25  O   UNL     1      -0.848  12.725  17.874  0.00  0.00    +0.000 OA
BRANCH  24  26
ATOM     26  C   UNL     1      -1.423  11.808  20.011  0.00  0.00    +0.000 C 
ATOM     27  C   UNL     1      -2.631  12.366  20.189  0.00  0.00    +0.000 C 
BRANCH  27  28
ATOM     28  C   UNL     1      -3.284  12.553  21.488  0.00  0.00    +0.000 A 
ATOM     29  C   UNL     1      -4.591  13.076  21.498  0.00  0.00    +0.000 A 
ATOM     30  C   UNL     1      -5.272  13.267  22.703  0.00  0.00    +0.000 A 
ATOM     31  C   UNL     1      -4.657  12.943  23.906  0.00  0.00    +0.000 A 
ATOM     32  C   UNL     1      -3.368  12.413  23.914  0.00  0.00    +0.000 A 
ATOM     33  C   UNL     1      -2.686  12.211  22.709  0.00  0.00    +0.000 A 
ENDBRANCH  27  28
ENDBRANCH  24  26
ENDBRANCH  23  24
ENDBRANCH  21  23
ENDBRANCH   2  21
TORSDOF 8
ENDMDL
MODEL 5
REMARK VINA RESULT:      -7.9      3.077      9.567
REMARK  Name = 
REMARK  10 active torsions:
REMARK  status: ('A' for Active; 'I' for Inactive)
REMARK    1  A    between atoms: C_1  and  C_2
REMARK    2  A    between atoms: C_5  and  N_6
REMARK    3  A    between atoms: C_7  and  C_9
REMARK    4  A    between atoms: C_9  and  C_10
REMARK    5  A    between atoms: C_9  and  O_11
REMARK    6  A    between atoms: O_11  and  C_12
REMARK    7  A    between atoms: C_12  and  C_14
REMARK    8  A    between atoms: C_15  and  C_16
REMARK    9  A    between atoms: C_23  and  S_24
REMARK   10  A    between atoms: S_24  and  N_27
REMARK                            x       y       z     vdW  Elec       q    Type
REMARK                         _______ _______ _______ _____ _____    ______ ____
ROOT
ATOM      1  N   UNL     1       2.598   5.798  20.106  0.00  0.00    +0.000 N 
ATOM      2  C   UNL     1       1.691   4.766  20.364  0.00  0.00    +0.000 C 
ATOM      3  O   UNL     1       0.469   4.894  20.417  0.00  0.00    +0.000 OA
ATOM      4  H   UNL     1       3.574   5.626  20.325  0.00  0.00    +0.000 HD
ENDROOT
BRANCH   1   9
ATOM      5  C   UNL     1       1.915  11.096  18.026  0.00  0.00    +0.000 C 
ATOM      6  C   UNL     1       1.875   9.694  18.561  0.00  0.00    +0.000 A 
ATOM      7  C   UNL     1       2.415   8.687  17.755  0.00  0.00    +0.000 A 
ATOM      8  C   UNL     1       2.599   7.395  18.242  0.00  0.00    +0.000 A 
ATOM      9  C   UNL     1       2.270   7.065  19.557  0.00  0.00    +0.000 A 
ATOM     10  C   UNL     1       1.660   8.046  20.360  0.00  0.00    +0.000 A 
ATOM     11  C   UNL     1       1.440   9.352  19.856  0.00  0.00    +0.000 A 
BRANCH  11  12
ATOM     12  S   UNL     1       0.476  10.523  20.830  0.00  0.00    +0.000 S 
ATOM     13  O   UNL     1      -0.534   9.755  21.521  0.00  0.00    +0.000 OA
ATOM     14  O   UNL     1       1.403  11.362  21.562  0.00  0.00    +0.000 OA
BRANCH  12  15
ATOM     15  N   UNL     1      -0.271  11.493  19.662  0.00  0.00    +0.000 NA
ATOM     16  C   UNL     1      -0.263  12.962  19.878  0.00  0.00    +0.000 C 
ATOM     17  C   UNL     1      -1.536  13.397  20.609  0.00  0.00    +0.000 C 
ATOM     18  O   UNL     1      -2.694  13.059  19.833  0.00  0.00    +0.000 OA
ATOM     19  C   UNL     1      -2.794  11.638  19.657  0.00  0.00    +0.000 C 
ATOM     20  C   UNL     1      -1.538  11.029  19.021  0.00  0.00    +0.000 C 
ENDBRANCH  12  15
ENDBRANCH  11  12
ENDBRANCH   1   9
BRANCH   2  21
ATOM     21  C   UNL     1       2.348   3.397  20.601  0.00  0.00    +0.000 C 
ATOM     22  C   UNL     1       1.611   2.595  21.669  0.00  0.00    +0.000 C 
BRANCH  21  23
ATOM     23  O   UNL     1       2.256   2.642  19.381  0.00  0.00    +0.000 OA
BRANCH  23  24
ATOM     24  C   UNL     1       3.430   2.251  18.842  0.00  0.00    +0.000 C 
ATOM     25  O   UNL     1       3.897   1.124  18.879  0.00  0.00    +0.000 OA
BRANCH  24  26
ATOM     26  C   UNL     1       4.091   3.431  18.265  0.00  0.00    +0.000 C 
ATOM     27  C   UNL     1       5.298   3.788  18.731  0.00  0.00    +0.000 C 
BRANCH  27  28
ATOM     28  C   UNL     1       6.028   4.994  18.331  0.00  0.00    +0.000 A 
ATOM     29  C   UNL     1       5.535   5.728  17.236  0.00  0.00    +0.000 A 
ATOM     30  C   UNL     1       6.180   6.894  16.812  0.00  0.00    +0.000 A 
ATOM     31  C   UNL     1       7.321   7.334  17.472  0.00  0.00    +0.000 A 
ATOM     32  C   UNL     1       7.815   6.626  18.566  0.00  0.00    +0.000 A 
ATOM     33  C   UNL     1       7.168   5.463  18.999  0.00  0.00    +0.000 A 
ENDBRANCH  27  28
ENDBRANCH  24  26
ENDBRANCH  23  24
ENDBRANCH  21  23
ENDBRANCH   2  21
TORSDOF 8
ENDMDL
MODEL 6
REMARK VINA RESULT:      -7.8      3.425      9.692
REMARK  Name = 
REMARK  10 active torsions:
REMARK  status: ('A' for Active; 'I' for Inactive)
REMARK    1  A    between atoms: C_1  and  C_2
REMARK    2  A    between atoms: C_5  and  N_6
REMARK    3  A    between atoms: C_7  and  C_9
REMARK    4  A    between atoms: C_9  and  C_10
REMARK    5  A    between atoms: C_9  and  O_11
REMARK    6  A    between atoms: O_11  and  C_12
REMARK    7  A    between atoms: C_12  and  C_14
REMARK    8  A    between atoms: C_15  and  C_16
REMARK    9  A    between atoms: C_23  and  S_24
REMARK   10  A    between atoms: S_24  and  N_27
REMARK                            x       y       z     vdW  Elec       q    Type
REMARK                         _______ _______ _______ _____ _____    ______ ____
ROOT
ATOM      1  N   UNL     1       2.757   5.635  20.357  0.00  0.00    +0.000 N 
ATOM      2  C   UNL     1       1.827   4.635  20.654  0.00  0.00    +0.000 C 
ATOM      3  O   UNL     1       0.606   4.753  20.560  0.00  0.00    +0.000 OA
ATOM      4  H   UNL     1       3.704   5.508  20.699  0.00  0.00    +0.000 HD
ENDROOT
BRANCH   1   9
ATOM      5  C   UNL     1       2.270  10.629  17.584  0.00  0.00    +0.000 C 
ATOM      6  C   UNL     1       2.186   9.291  18.260  0.00  0.00    +0.000 A 
ATOM      7  C   UNL     1       2.928   8.245  17.700  0.00  0.00    +0.000 A 
ATOM      8  C   UNL     1       3.068   7.027  18.359  0.00  0.00    +0.000 A 
ATOM      9  C   UNL     1       2.490   6.813  19.611  0.00  0.00    +0.000 A 
ATOM     10  C   UNL     1       1.682   7.827  20.157  0.00  0.00    +0.000 A 
ATOM     11  C   UNL     1       1.510   9.055  19.472  0.00  0.00    +0.000 A 
BRANCH  11  12
ATOM     12  S   UNL     1       0.312  10.252  20.092  0.00  0.00    +0.000 S 
ATOM     13  O   UNL     1      -0.664   9.505  20.852  0.00  0.00    +0.000 OA
ATOM     14  O   UNL     1       1.047  11.345  20.695  0.00  0.00    +0.000 OA
BRANCH  12  15
ATOM     15  N   UNL     1      -0.419  10.847  18.687  0.00  0.00    +0.000 NA
ATOM     16  C   UNL     1      -0.978  12.222  18.730  0.00  0.00    +0.000 C 
ATOM     17  C   UNL     1      -2.459  12.181  19.116  0.00  0.00    +0.000 C 
ATOM     18  O   UNL     1      -3.201  11.420  18.152  0.00  0.00    +0.000 OA
ATOM     19  C   UNL     1      -2.753  10.057  18.123  0.00  0.00    +0.000 C 
ATOM     20  C   UNL     1      -1.249   9.933  17.846  0.00  0.00    +0.000 C 
ENDBRANCH  12  15
ENDBRANCH  11  12
ENDBRANCH   1   9
BRANCH   2  21
ATOM     21  C   UNL     1       2.453   3.319  21.141  0.00  0.00    +0.000 C 
ATOM     22  C   UNL     1       1.408   2.388  21.747  0.00  0.00    +0.000 C 
BRANCH  21  23
ATOM     23  O   UNL     1       3.002   2.638  20.001  0.00  0.00    +0.000 OA
BRANCH  23  24
ATOM     24  C   UNL     1       2.254   2.676  18.878  0.00  0.00    +0.000 C 
ATOM     25  O   UNL     1       1.120   2.241  18.754  0.00  0.00    +0.000 OA
BRANCH  24  26
ATOM     26  C   UNL     1       3.065   3.265  17.801  0.00  0.00    +0.000 C 
ATOM     27  C   UNL     1       4.383   3.426  18.001  0.00  0.00    +0.000 C 
BRANCH  27  28
ATOM     28  C   UNL     1       5.296   4.092  17.068  0.00  0.00    +0.000 A 
ATOM     29  C   UNL     1       5.351   3.613  15.745  0.00  0.00    +0.000 A 
ATOM     30  C   UNL     1       6.193   4.213  14.805  0.00  0.00    +0.000 A 
ATOM     31  C   UNL     1       6.990   5.289  15.175  0.00  0.00    +0.000 A 
ATOM     32  C   UNL     1       6.939   5.784  16.477  0.00  0.00    +0.000 A 
ATOM     33  C   UNL     1       6.091   5.193  17.420  0.00  0.00    +0.000 A 
ENDBRANCH  27  28
ENDBRANCH  24  26
ENDBRANCH  23  24
ENDBRANCH  21  23
ENDBRANCH   2  21
TORSDOF 8
ENDMDL
MODEL 7
REMARK VINA RESULT:      -7.8      0.924      1.295
REMARK  Name = 
REMARK  10 active torsions:
REMARK  status: ('A' for Active; 'I' for Inactive)
REMARK    1  A    between atoms: C_1  and  C_2
REMARK    2  A    between atoms: C_5  and  N_6
REMARK    3  A    between atoms: C_7  and  C_9
REMARK    4  A    between atoms: C_9  and  C_10
REMARK    5  A    between atoms: C_9  and  O_11
REMARK    6  A    between atoms: O_11  and  C_12
REMARK    7  A    between atoms: C_12  and  C_14
REMARK    8  A    between atoms: C_15  and  C_16
REMARK    9  A    between atoms: C_23  and  S_24
REMARK   10  A    between atoms: S_24  and  N_27
REMARK                            x       y       z     vdW  Elec       q    Type
REMARK                         _______ _______ _______ _____ _____    ______ ____
ROOT
ATOM      1  N   UNL     1       1.790   7.691  20.897  0.00  0.00    +0.000 N 
ATOM      2  C   UNL     1       1.429   8.793  20.117  0.00  0.00    +0.000 C 
ATOM      3  O   UNL     1       1.480   8.840  18.889  0.00  0.00    +0.000 OA
ATOM      4  H   UNL     1       1.936   7.849  21.888  0.00  0.00    +0.000 HD
ENDROOT
BRANCH   1   9
ATOM      5  C   UNL     1       2.547   2.154  19.619  0.00  0.00    +0.000 C 
ATOM      6  C   UNL     1       2.383   3.642  19.740  0.00  0.00    +0.000 A 
ATOM      7  C   UNL     1       1.110   4.119  20.069  0.00  0.00    +0.000 A 
ATOM      8  C   UNL     1       0.904   5.458  20.392  0.00  0.00    +0.000 A 
ATOM      9  C   UNL     1       1.964   6.366  20.418  0.00  0.00    +0.000 A 
ATOM     10  C   UNL     1       3.237   5.920  20.022  0.00  0.00    +0.000 A 
ATOM     11  C   UNL     1       3.443   4.565  19.659  0.00  0.00    +0.000 A 
BRANCH  11  12
ATOM     12  S   UNL     1       5.030   4.069  18.962  0.00  0.00    +0.000 S 
ATOM     13  O   UNL     1       6.014   4.994  19.473  0.00  0.00    +0.000 OA
ATOM     14  O   UNL     1       5.176   2.642  19.160  0.00  0.00    +0.000 OA
BRANCH  12  15
ATOM     15  N   UNL     1       4.835   4.333  17.302  0.00  0.00    +0.000 NA
ATOM     16  C   UNL     1       5.816   3.701  16.383  0.00  0.00    +0.000 C 
ATOM     17  C   UNL     1       6.966   4.668  16.090  0.00  0.00    +0.000 C 
ATOM     18  O   UNL     1       6.466   5.860  15.468  0.00  0.00    +0.000 OA
ATOM     19  C   UNL     1       5.567   6.555  16.346  0.00  0.00    +0.000 C 
ATOM     20  C   UNL     1       4.400   5.677  16.816  0.00  0.00    +0.000 C 
ENDBRANCH  12  15
ENDBRANCH  11  12
ENDBRANCH   1   9
BRANCH   2  21
ATOM     21  C   UNL     1       0.952  10.008  20.929  0.00  0.00    +0.000 C 
ATOM     22  C   UNL     1       0.551  11.169  20.025  0.00  0.00    +0.000 C 
BRANCH  21  23
ATOM     23  O   UNL     1      -0.227   9.623  21.655  0.00  0.00    +0.000 OA
BRANCH  23  24
ATOM     24  C   UNL     1      -0.252   9.968  22.960  0.00  0.00    +0.000 C 
ATOM     25  O   UNL     1       0.543   9.608  23.814  0.00  0.00    +0.000 OA
BRANCH  24  26
ATOM     26  C   UNL     1      -1.445  10.795  23.198  0.00  0.00    +0.000 C 
ATOM     27  C   UNL     1      -1.370  12.116  22.969  0.00  0.00    +0.000 C 
BRANCH  27  28
ATOM     28  C   UNL     1      -2.436  13.079  23.260  0.00  0.00    +0.000 A 
ATOM     29  C   UNL     1      -3.725  12.802  22.765  0.00  0.00    +0.000 A 
ATOM     30  C   UNL     1      -4.787  13.675  23.018  0.00  0.00    +0.000 A 
ATOM     31  C   UNL     1      -4.574  14.830  23.760  0.00  0.00    +0.000 A 
ATOM     32  C   UNL     1      -3.307  15.113  24.268  0.00  0.00    +0.000 A 
ATOM     33  C   UNL     1      -2.242  14.237  24.026  0.00  0.00    +0.000 A 
ENDBRANCH  27  28
ENDBRANCH  24  26
ENDBRANCH  23  24
ENDBRANCH  21  23
ENDBRANCH   2  21
TORSDOF 8
ENDMDL
MODEL 8
REMARK VINA RESULT:      -7.8      2.079      2.931
REMARK  Name = 
REMARK  10 active torsions:
REMARK  status: ('A' for Active; 'I' for Inactive)
REMARK    1  A    between atoms: C_1  and  C_2
REMARK    2  A    between atoms: C_5  and  N_6
REMARK    3  A    between atoms: C_7  and  C_9
REMARK    4  A    between atoms: C_9  and  C_10
REMARK    5  A    between atoms: C_9  and  O_11
REMARK    6  A    between atoms: O_11  and  C_12
REMARK    7  A    between atoms: C_12  and  C_14
REMARK    8  A    between atoms: C_15  and  C_16
REMARK    9  A    between atoms: C_23  and  S_24
REMARK   10  A    between atoms: S_24  and  N_27
REMARK                            x       y       z     vdW  Elec       q    Type
REMARK                         _______ _______ _______ _____ _____    ______ ____
ROOT
ATOM      1  N   UNL     1       1.477   7.096  20.956  0.00  0.00    +0.000 N 
ATOM      2  C   UNL     1       1.354   8.284  20.230  0.00  0.00    +0.000 C 
ATOM      3  O   UNL     1       1.712   8.442  19.064  0.00  0.00    +0.000 OA
ATOM      4  H   UNL     1       1.375   7.154  21.964  0.00  0.00    +0.000 HD
ENDROOT
BRANCH   1   9
ATOM      5  C   UNL     1       2.701   1.735  19.336  0.00  0.00    +0.000 C 
ATOM      6  C   UNL     1       2.365   3.183  19.546  0.00  0.00    +0.000 A 
ATOM      7  C   UNL     1       1.134   3.474  20.141  0.00  0.00    +0.000 A 
ATOM      8  C   UNL     1       0.818   4.767  20.551  0.00  0.00    +0.000 A 
ATOM      9  C   UNL     1       1.728   5.814  20.401  0.00  0.00    +0.000 A 
ATOM     10  C   UNL     1       2.942   5.556  19.740  0.00  0.00    +0.000 A 
ATOM     11  C   UNL     1       3.251   4.248  19.291  0.00  0.00    +0.000 A 
BRANCH  11  12
ATOM     12  S   UNL     1       4.715   3.987  18.271  0.00  0.00    +0.000 S 
ATOM     13  O   UNL     1       5.724   3.416  19.133  0.00  0.00    +0.000 OA
ATOM     14  O   UNL     1       4.299   3.308  17.061  0.00  0.00    +0.000 OA
BRANCH  12  15
ATOM     15  N   UNL     1       5.182   5.555  17.837  0.00  0.00    +0.000 NA
ATOM     16  C   UNL     1       5.153   5.908  16.396  0.00  0.00    +0.000 C 
ATOM     17  C   UNL     1       6.523   5.655  15.760  0.00  0.00    +0.000 C 
ATOM     18  O   UNL     1       7.524   6.455  16.403  0.00  0.00    +0.000 OA
ATOM     19  C   UNL     1       7.649   6.101  17.788  0.00  0.00    +0.000 C 
ATOM     20  C   UNL     1       6.321   6.207  18.550  0.00  0.00    +0.000 C 
ENDBRANCH  12  15
ENDBRANCH  11  12
ENDBRANCH   1   9
BRANCH   2  21
ATOM     21  C   UNL     1       0.724   9.442  21.020  0.00  0.00    +0.000 C 
ATOM     22  C   UNL     1       0.888   9.254  22.524  0.00  0.00    +0.000 C 
BRANCH  21  23
ATOM     23  O   UNL     1       1.424  10.649  20.676  0.00  0.00    +0.000 OA
BRANCH  23  24
ATOM     24  C   UNL     1       0.963  11.306  19.591  0.00  0.00    +0.000 C 
ATOM     25  O   UNL     1       1.643  11.785  18.698  0.00  0.00    +0.000 OA
BRANCH  24  26
ATOM     26  C   UNL     1      -0.500  11.416  19.703  0.00  0.00    +0.000 C 
ATOM     27  C   UNL     1      -1.229  11.491  18.578  0.00  0.00    +0.000 C 
BRANCH  27  28
ATOM     28  C   UNL     1      -2.677  11.709  18.531  0.00  0.00    +0.000 A 
ATOM     29  C   UNL     1      -3.360  11.341  17.356  0.00  0.00    +0.000 A 
ATOM     30  C   UNL     1      -4.743  11.514  17.253  0.00  0.00    +0.000 A 
ATOM     31  C   UNL     1      -5.456  12.056  18.315  0.00  0.00    +0.000 A 
ATOM     32  C   UNL     1      -4.797  12.414  19.491  0.00  0.00    +0.000 A 
ATOM     33  C   UNL     1      -3.414  12.235  19.602  0.00  0.00    +0.000 A 
ENDBRANCH  27  28
ENDBRANCH  24  26
ENDBRANCH  23  24
ENDBRANCH  21  23
ENDBRANCH   2  21
TORSDOF 8
ENDMDL
MODEL 9
REMARK VINA RESULT:      -7.8      1.234      1.659
REMARK  Name = 
REMARK  10 active torsions:
REMARK  status: ('A' for Active; 'I' for Inactive)
REMARK    1  A    between atoms: C_1  and  C_2
REMARK    2  A    between atoms: C_5  and  N_6
REMARK    3  A    between atoms: C_7  and  C_9
REMARK    4  A    between atoms: C_9  and  C_10
REMARK    5  A    between atoms: C_9  and  O_11
REMARK    6  A    between atoms: O_11  and  C_12
REMARK    7  A    between atoms: C_12  and  C_14
REMARK    8  A    between atoms: C_15  and  C_16
REMARK    9  A    between atoms: C_23  and  S_24
REMARK   10  A    between atoms: S_24  and  N_27
REMARK                            x       y       z     vdW  Elec       q    Type
REMARK                         _______ _______ _______ _____ _____    ______ ____
ROOT
ATOM      1  N   UNL     1       1.763   8.192  19.853  0.00  0.00    +0.000 N 
ATOM      2  C   UNL     1       0.860   8.875  20.671  0.00  0.00    +0.000 C 
ATOM      3  O   UNL     1      -0.002   8.346  21.371  0.00  0.00    +0.000 OA
ATOM      4  H   UNL     1       2.255   8.733  19.149  0.00  0.00    +0.000 HD
ENDROOT
BRANCH   1   9
ATOM      5  C   UNL     1       3.294   2.737  20.722  0.00  0.00    +0.000 C 
ATOM      6  C   UNL     1       2.832   4.099  20.295  0.00  0.00    +0.000 A 
ATOM      7  C   UNL     1       1.713   4.628  20.948  0.00  0.00    +0.000 A 
ATOM      8  C   UNL     1       1.328   5.953  20.759  0.00  0.00    +0.000 A 
ATOM      9  C   UNL     1       2.056   6.805  19.928  0.00  0.00    +0.000 A 
ATOM     10  C   UNL     1       3.141   6.272  19.208  0.00  0.00    +0.000 A 
ATOM     11  C   UNL     1       3.514   4.915  19.372  0.00  0.00    +0.000 A 
BRANCH  11  12
ATOM     12  S   UNL     1       4.772   4.209  18.290  0.00  0.00    +0.000 S 
ATOM     13  O   UNL     1       5.953   4.015  19.100  0.00  0.00    +0.000 OA
ATOM     14  O   UNL     1       4.172   3.102  17.574  0.00  0.00    +0.000 OA
BRANCH  12  15
ATOM     15  N   UNL     1       5.067   5.439  17.167  0.00  0.00    +0.000 NA
ATOM     16  C   UNL     1       5.321   5.041  15.759  0.00  0.00    +0.000 C 
ATOM     17  C   UNL     1       6.825   4.879  15.517  0.00  0.00    +0.000 C 
ATOM     18  O   UNL     1       7.503   6.118  15.767  0.00  0.00    +0.000 OA
ATOM     19  C   UNL     1       7.355   6.514  17.139  0.00  0.00    +0.000 C 
ATOM     20  C   UNL     1       5.886   6.622  17.570  0.00  0.00    +0.000 C 
ENDBRANCH  12  15
ENDBRANCH  11  12
ENDBRANCH   1   9
BRANCH   2  21
ATOM     21  C   UNL     1       1.007  10.404  20.631  0.00  0.00    +0.000 C 
ATOM     22  C   UNL     1       0.385  10.999  19.372  0.00  0.00    +0.000 C 
BRANCH  21  23
ATOM     23  O   UNL     1       0.283  10.951  21.746  0.00  0.00    +0.000 OA
BRANCH  23  24
ATOM     24  C   UNL     1       0.085  12.286  21.721  0.00  0.00    +0.000 C 
ATOM     25  O   UNL     1       0.956  13.141  21.714  0.00  0.00    +0.000 OA
BRANCH  24  26
ATOM     26  C   UNL     1      -1.362  12.540  21.779  0.00  0.00    +0.000 C 
ATOM     27  C   UNL     1      -1.990  12.428  22.960  0.00  0.00    +0.000 C 
BRANCH  27  28
ATOM     28  C   UNL     1      -3.438  12.546  23.154  0.00  0.00    +0.000 A 
ATOM     29  C   UNL     1      -4.240  12.744  22.014  0.00  0.00    +0.000 A 
ATOM     30  C   UNL     1      -5.629  12.853  22.131  0.00  0.00    +0.000 A 
ATOM     31  C   UNL     1      -6.228  12.770  23.382  0.00  0.00    +0.000 A 
ATOM     32  C   UNL     1      -5.450  12.563  24.520  0.00  0.00    +0.000 A 
ATOM     33  C   UNL     1      -4.060  12.444  24.407  0.00  0.00    +0.000 A 
ENDBRANCH  27  28
ENDBRANCH  24  26
ENDBRANCH  23  24
ENDBRANCH  21  23
ENDBRANCH   2  21
TORSDOF 8
ENDMDL
