MODEL 1
REMARK VINA RESULT:      -8.0      0.000      0.000
REMARK  Name = 
REMARK  5 active torsions:
REMARK  status: ('A' for Active; 'I' for Inactive)
REMARK    1  A    between atoms: C_1  and  C_2
REMARK    2  A    between atoms: C_2  and  O_3
REMARK    3  A    between atoms: O_3  and  C_4
REMARK    4  A    between atoms: N_15  and  C_16
REMARK    5  A    between atoms: C_21  and  C_22
REMARK                            x       y       z     vdW  Elec       q    Type
REMARK                         _______ _______ _______ _____ _____    ______ ____
ROOT
ATOM      1  C   UNL     1      -0.499  10.887  20.488  0.00  0.00    +0.000 A 
ATOM      2  C   UNL     1      -1.043  11.537  21.545  0.00  0.00    +0.000 A 
ATOM      3  C   UNL     1      -0.898  11.006  22.890  0.00  0.00    +0.000 A 
ATOM      4  C   UNL     1      -0.258   9.845  23.116  0.00  0.00    +0.000 A 
ATOM      5  C   UNL     1       0.322   9.148  22.029  0.00  0.00    +0.000 A 
ATOM      6  N   UNL     1       0.948   7.995  21.972  0.00  0.00    +0.000 NA
ATOM      7  N   UNL     1       1.356   7.815  20.681  0.00  0.00    +0.000 NA
ATOM      8  C   UNL     1       1.010   8.866  19.969  0.00  0.00    +0.000 A 
ATOM      9  N   UNL     1       1.405   9.134  18.670  0.00  0.00    +0.000 N 
ATOM     10  C   UNL     1       2.324   8.378  17.972  0.00  0.00    +0.000 C 
ATOM     11  O   UNL     1       2.810   8.832  16.937  0.00  0.00    +0.000 OA
ATOM     12  N   UNL     1       2.579   7.123  18.471  0.00  0.00    +0.000 N 
ATOM     13  N   UNL     1       0.239   9.713  20.758  0.00  0.00    +0.000 N 
ATOM     14  H   UNL     1       1.158  10.023  18.253  0.00  0.00    +0.000 HD
ATOM     15  H   UNL     1       1.845   6.770  19.083  0.00  0.00    +0.000 HD
ENDROOT
BRANCH  12  16
ATOM     16  C   UNL     1       3.513   6.192  17.978  0.00  0.00    +0.000 A 
ATOM     17  C   UNL     1       4.822   6.593  17.681  0.00  0.00    +0.000 A 
ATOM     18  C   UNL     1       5.778   5.662  17.260  0.00  0.00    +0.000 A 
ATOM     19  C   UNL     1       5.429   4.326  17.103  0.00  0.00    +0.000 A 
ATOM     20  C   UNL     1       4.129   3.916  17.392  0.00  0.00    +0.000 A 
ATOM     21  C   UNL     1       3.162   4.835  17.851  0.00  0.00    +0.000 A 
BRANCH  21  22
ATOM     22  C   UNL     1       1.765   4.317  18.083  0.00  0.00    +0.000 C 
ATOM     23  F   UNL     1       1.267   4.549  19.331  0.00  0.00    +0.000 F 
ATOM     24  F   UNL     1       0.862   4.871  17.223  0.00  0.00    +0.000 F 
ATOM     25  F   UNL     1       1.669   2.971  17.896  0.00  0.00    +0.000 F 
ENDBRANCH  21  22
ENDBRANCH  12  16
BRANCH   1  26
ATOM     26  O   UNL     1      -0.672  11.260  19.166  0.00  0.00    +0.000 OA
BRANCH  26  28
ATOM     27  C   UNL     1      -2.015  10.046  17.593  0.00  0.00    +0.000 C 
ATOM     28  C   UNL     1      -2.005  11.132  18.651  0.00  0.00    +0.000 C 
ENDBRANCH  26  28
ENDBRANCH   1  26
TORSDOF 4
ENDMDL
MODEL 2
REMARK VINA RESULT:      -7.9      2.518      6.994
REMARK  Name = 
REMARK  5 active torsions:
REMARK  status: ('A' for Active; 'I' for Inactive)
REMARK    1  A    between atoms: C_1  and  C_2
REMARK    2  A    between atoms: C_2  and  O_3
REMARK    3  A    between atoms: O_3  and  C_4
REMARK    4  A    between atoms: N_15  and  C_16
REMARK    5  A    between atoms: C_21  and  C_22
REMARK                            x       y       z     vdW  Elec       q    Type
REMARK                         _______ _______ _______ _____ _____    ______ ____
ROOT
ATOM      1  C   UNL     1       3.867   4.284  18.153  0.00  0.00    +0.000 A 
ATOM      2  C   UNL     1       3.994   2.940  18.266  0.00  0.00    +0.000 A 
ATOM      3  C   UNL     1       3.281   2.218  19.307  0.00  0.00    +0.000 A 
ATOM      4  C   UNL     1       2.512   2.864  20.201  0.00  0.00    +0.000 A 
ATOM      5  C   UNL     1       2.360   4.268  20.104  0.00  0.00    +0.000 A 
ATOM      6  N   UNL     1       1.718   5.126  20.861  0.00  0.00    +0.000 NA
ATOM      7  N   UNL     1       1.847   6.357  20.283  0.00  0.00    +0.000 NA
ATOM      8  C   UNL     1       2.533   6.240  19.167  0.00  0.00    +0.000 A 
ATOM      9  N   UNL     1       2.714   7.229  18.216  0.00  0.00    +0.000 N 
ATOM     10  C   UNL     1       2.093   8.460  18.256  0.00  0.00    +0.000 C 
ATOM     11  O   UNL     1       2.100   9.167  17.250  0.00  0.00    +0.000 OA
ATOM     12  N   UNL     1       1.558   8.829  19.468  0.00  0.00    +0.000 N 
ATOM     13  N   UNL     1       2.991   4.931  19.053  0.00  0.00    +0.000 N 
ATOM     14  H   UNL     1       3.179   6.997  17.346  0.00  0.00    +0.000 HD
ATOM     15  H   UNL     1       1.955   8.325  20.259  0.00  0.00    +0.000 HD
ENDROOT
BRANCH  12  16
ATOM     16  C   UNL     1       0.827  10.000  19.747  0.00  0.00    +0.000 A 
ATOM     17  C   UNL     1       0.855  11.080  18.855  0.00  0.00    +0.000 A 
ATOM     18  C   UNL     1       0.076  12.219  19.086  0.00  0.00    +0.000 A 
ATOM     19  C   UNL     1      -0.717  12.303  20.225  0.00  0.00    +0.000 A 
ATOM     20  C   UNL     1      -0.750  11.235  21.120  0.00  0.00    +0.000 A 
ATOM     21  C   UNL     1       0.003  10.066  20.885  0.00  0.00    +0.000 A 
BRANCH  21  22
ATOM     22  C   UNL     1      -0.046   8.985  21.935  0.00  0.00    +0.000 C 
ATOM     23  F   UNL     1      -0.647   7.827  21.538  0.00  0.00    +0.000 F 
ATOM     24  F   UNL     1       1.200   8.622  22.357  0.00  0.00    +0.000 F 
ATOM     25  F   UNL     1      -0.713   9.375  23.057  0.00  0.00    +0.000 F 
ENDBRANCH  21  22
ENDBRANCH  12  16
BRANCH   1  26
ATOM     26  O   UNL     1       4.584   5.067  17.263  0.00  0.00    +0.000 OA
BRANCH  26  28
ATOM     27  C   UNL     1       5.553   5.343  15.087  0.00  0.00    +0.000 C 
ATOM     28  C   UNL     1       5.237   4.360  16.198  0.00  0.00    +0.000 C 
ENDBRANCH  26  28
ENDBRANCH   1  26
TORSDOF 4
ENDMDL
MODEL 3
REMARK VINA RESULT:      -7.9      2.502      7.008
REMARK  Name = 
REMARK  5 active torsions:
REMARK  status: ('A' for Active; 'I' for Inactive)
REMARK    1  A    between atoms: C_1  and  C_2
REMARK    2  A    between atoms: C_2  and  O_3
REMARK    3  A    between atoms: O_3  and  C_4
REMARK    4  A    between atoms: N_15  and  C_16
REMARK    5  A    between atoms: C_21  and  C_22
REMARK                            x       y       z     vdW  Elec       q    Type
REMARK                         _______ _______ _______ _____ _____    ______ ____
ROOT
ATOM      1  C   UNL     1       3.883   4.250  18.194  0.00  0.00    +0.000 A 
ATOM      2  C   UNL     1       3.991   2.901  18.280  0.00  0.00    +0.000 A 
ATOM      3  C   UNL     1       3.209   2.161  19.257  0.00  0.00    +0.000 A 
ATOM      4  C   UNL     1       2.394   2.792  20.120  0.00  0.00    +0.000 A 
ATOM      5  C   UNL     1       2.261   4.199  20.050  0.00  0.00    +0.000 A 
ATOM      6  N   UNL     1       1.582   5.045  20.790  0.00  0.00    +0.000 NA
ATOM      7  N   UNL     1       1.756   6.289  20.253  0.00  0.00    +0.000 NA
ATOM      8  C   UNL     1       2.507   6.193  19.177  0.00  0.00    +0.000 A 
ATOM      9  N   UNL     1       2.754   7.204  18.265  0.00  0.00    +0.000 N 
ATOM     10  C   UNL     1       2.141   8.440  18.299  0.00  0.00    +0.000 C 
ATOM     11  O   UNL     1       2.215   9.172  17.313  0.00  0.00    +0.000 OA
ATOM     12  N   UNL     1       1.538   8.784  19.485  0.00  0.00    +0.000 N 
ATOM     13  N   UNL     1       2.959   4.883  19.056  0.00  0.00    +0.000 N 
ATOM     14  H   UNL     1       3.267   6.989  17.418  0.00  0.00    +0.000 HD
ATOM     15  H   UNL     1       1.883   8.255  20.286  0.00  0.00    +0.000 HD
ENDROOT
BRANCH  12  16
ATOM     16  C   UNL     1       0.802   9.954  19.751  0.00  0.00    +0.000 A 
ATOM     17  C   UNL     1       0.810  11.016  18.836  0.00  0.00    +0.000 A 
ATOM     18  C   UNL     1       0.025  12.154  19.055  0.00  0.00    +0.000 A 
ATOM     19  C   UNL     1      -0.753  12.255  20.203  0.00  0.00    +0.000 A 
ATOM     20  C   UNL     1      -0.765  11.206  21.120  0.00  0.00    +0.000 A 
ATOM     21  C   UNL     1      -0.007  10.037  20.899  0.00  0.00    +0.000 A 
BRANCH  21  22
ATOM     22  C   UNL     1      -0.032   8.978  21.971  0.00  0.00    +0.000 C 
ATOM     23  F   UNL     1       1.196   8.555  22.387  0.00  0.00    +0.000 F 
ATOM     24  F   UNL     1      -0.672   9.403  23.099  0.00  0.00    +0.000 F 
ATOM     25  F   UNL     1      -0.692   7.852  21.579  0.00  0.00    +0.000 F 
ENDBRANCH  21  22
ENDBRANCH  12  16
BRANCH   1  26
ATOM     26  O   UNL     1       4.658   5.047  17.370  0.00  0.00    +0.000 OA
BRANCH  26  28
ATOM     27  C   UNL     1       6.481   5.556  18.843  0.00  0.00    +0.000 C 
ATOM     28  C   UNL     1       6.079   4.914  17.530  0.00  0.00    +0.000 C 
ENDBRANCH  26  28
ENDBRANCH   1  26
TORSDOF 4
ENDMDL
MODEL 4
REMARK VINA RESULT:      -7.8      2.896      7.207
REMARK  Name = 
REMARK  5 active torsions:
REMARK  status: ('A' for Active; 'I' for Inactive)
REMARK    1  A    between atoms: C_1  and  C_2
REMARK    2  A    between atoms: C_2  and  O_3
REMARK    3  A    between atoms: O_3  and  C_4
REMARK    4  A    between atoms: N_15  and  C_16
REMARK    5  A    between atoms: C_21  and  C_22
REMARK                            x       y       z     vdW  Elec       q    Type
REMARK                         _______ _______ _______ _____ _____    ______ ____
ROOT
ATOM      1  C   UNL     1       3.311   4.972  19.858  0.00  0.00    +0.000 A 
ATOM      2  C   UNL     1       4.239   4.119  19.358  0.00  0.00    +0.000 A 
ATOM      3  C   UNL     1       4.963   4.451  18.142  0.00  0.00    +0.000 A 
ATOM      4  C   UNL     1       4.706   5.583  17.465  0.00  0.00    +0.000 A 
ATOM      5  C   UNL     1       3.744   6.492  17.967  0.00  0.00    +0.000 A 
ATOM      6  N   UNL     1       3.283   7.623  17.485  0.00  0.00    +0.000 NA
ATOM      7  N   UNL     1       2.403   8.128  18.400  0.00  0.00    +0.000 NA
ATOM      8  C   UNL     1       2.358   7.328  19.442  0.00  0.00    +0.000 A 
ATOM      9  N   UNL     1       1.723   7.592  20.643  0.00  0.00    +0.000 N 
ATOM     10  C   UNL     1       1.139   8.802  20.957  0.00  0.00    +0.000 C 
ATOM     11  O   UNL     1       0.838   9.036  22.126  0.00  0.00    +0.000 OA
ATOM     12  N   UNL     1       0.879   9.640  19.899  0.00  0.00    +0.000 N 
ATOM     13  N   UNL     1       3.117   6.193  19.175  0.00  0.00    +0.000 N 
ATOM     14  H   UNL     1       1.837   6.944  21.414  0.00  0.00    +0.000 HD
ATOM     15  H   UNL     1       0.837   9.162  19.000  0.00  0.00    +0.000 HD
ENDROOT
BRANCH  12  16
ATOM     16  C   UNL     1       0.348  10.943  19.964  0.00  0.00    +0.000 A 
ATOM     17  C   UNL     1       0.833  11.857  20.908  0.00  0.00    +0.000 A 
ATOM     18  C   UNL     1       0.364  13.175  20.934  0.00  0.00    +0.000 A 
ATOM     19  C   UNL     1      -0.616  13.585  20.036  0.00  0.00    +0.000 A 
ATOM     20  C   UNL     1      -1.107  12.683  19.095  0.00  0.00    +0.000 A 
ATOM     21  C   UNL     1      -0.621  11.361  19.032  0.00  0.00    +0.000 A 
BRANCH  21  22
ATOM     22  C   UNL     1      -1.251  10.435  18.023  0.00  0.00    +0.000 C 
ATOM     23  F   UNL     1      -0.381   9.588  17.400  0.00  0.00    +0.000 F 
ATOM     24  F   UNL     1      -2.201   9.632  18.583  0.00  0.00    +0.000 F 
ATOM     25  F   UNL     1      -1.885  11.107  17.021  0.00  0.00    +0.000 F 
ENDBRANCH  21  22
ENDBRANCH  12  16
BRANCH   1  26
ATOM     26  O   UNL     1       2.502   4.697  20.948  0.00  0.00    +0.000 OA
BRANCH  26  28
ATOM     27  C   UNL     1       1.402   2.653  21.552  0.00  0.00    +0.000 C 
ATOM     28  C   UNL     1       1.345   3.891  20.678  0.00  0.00    +0.000 C 
ENDBRANCH  26  28
ENDBRANCH   1  26
TORSDOF 4
ENDMDL
MODEL 5
REMARK VINA RESULT:      -7.8      2.996      7.067
REMARK  Name = 
REMARK  5 active torsions:
REMARK  status: ('A' for Active; 'I' for Inactive)
REMARK    1  A    between atoms: C_1  and  C_2
REMARK    2  A    between atoms: C_2  and  O_3
REMARK    3  A    between atoms: O_3  and  C_4
REMARK    4  A    between atoms: N_15  and  C_16
REMARK    5  A    between atoms: C_21  and  C_22
REMARK                            x       y       z     vdW  Elec       q    Type
REMARK                         _______ _______ _______ _____ _____    ______ ____
ROOT
ATOM      1  C   UNL     1       3.191   4.993  19.787  0.00  0.00    +0.000 A 
ATOM      2  C   UNL     1       4.100   4.030  19.498  0.00  0.00    +0.000 A 
ATOM      3  C   UNL     1       5.007   4.188  18.374  0.00  0.00    +0.000 A 
ATOM      4  C   UNL     1       4.944   5.266  17.573  0.00  0.00    +0.000 A 
ATOM      5  C   UNL     1       4.006   6.288  17.854  0.00  0.00    +0.000 A 
ATOM      6  N   UNL     1       3.713   7.398  17.217  0.00  0.00    +0.000 NA
ATOM      7  N   UNL     1       2.766   8.053  17.951  0.00  0.00    +0.000 NA
ATOM      8  C   UNL     1       2.511   7.362  19.041  0.00  0.00    +0.000 A 
ATOM      9  N   UNL     1       1.745   7.788  20.112  0.00  0.00    +0.000 N 
ATOM     10  C   UNL     1       1.232   9.062  20.235  0.00  0.00    +0.000 C 
ATOM     11  O   UNL     1       0.797   9.430  21.326  0.00  0.00    +0.000 OA
ATOM     12  N   UNL     1       1.190   9.812  19.084  0.00  0.00    +0.000 N 
ATOM     13  N   UNL     1       3.197   6.154  18.982  0.00  0.00    +0.000 N 
ATOM     14  H   UNL     1       1.697   7.211  20.944  0.00  0.00    +0.000 HD
ATOM     15  H   UNL     1       1.228   9.253  18.232  0.00  0.00    +0.000 HD
ENDROOT
BRANCH  12  16
ATOM     16  C   UNL     1       0.770  11.150  18.962  0.00  0.00    +0.000 A 
ATOM     17  C   UNL     1       1.642  12.197  19.290  0.00  0.00    +0.000 A 
ATOM     18  C   UNL     1       1.261  13.530  19.104  0.00  0.00    +0.000 A 
ATOM     19  C   UNL     1      -0.005  13.832  18.615  0.00  0.00    +0.000 A 
ATOM     20  C   UNL     1      -0.881  12.799  18.288  0.00  0.00    +0.000 A 
ATOM     21  C   UNL     1      -0.500  11.449  18.437  0.00  0.00    +0.000 A 
BRANCH  21  22
ATOM     22  C   UNL     1      -1.531  10.397  18.115  0.00  0.00    +0.000 C 
ATOM     23  F   UNL     1      -1.847   9.569  19.152  0.00  0.00    +0.000 F 
ATOM     24  F   UNL     1      -2.714  10.941  17.711  0.00  0.00    +0.000 F 
ATOM     25  F   UNL     1      -1.141   9.576  17.100  0.00  0.00    +0.000 F 
ENDBRANCH  21  22
ENDBRANCH  12  16
BRANCH   1  26
ATOM     26  O   UNL     1       2.221   4.886  20.770  0.00  0.00    +0.000 OA
BRANCH  26  28
ATOM     27  C   UNL     1       1.327   2.797  21.538  0.00  0.00    +0.000 C 
ATOM     28  C   UNL     1       1.190   3.917  20.526  0.00  0.00    +0.000 C 
ENDBRANCH  26  28
ENDBRANCH   1  26
TORSDOF 4
ENDMDL
MODEL 6
REMARK VINA RESULT:      -7.7      0.759      1.184
REMARK  Name = 
REMARK  5 active torsions:
REMARK  status: ('A' for Active; 'I' for Inactive)
REMARK    1  A    between atoms: C_1  and  C_2
REMARK    2  A    between atoms: C_2  and  O_3
REMARK    3  A    between atoms: O_3  and  C_4
REMARK    4  A    between atoms: N_15  and  C_16
REMARK    5  A    between atoms: C_21  and  C_22
REMARK                            x       y       z     vdW  Elec       q    Type
REMARK                         _______ _______ _______ _____ _____    ______ ____
ROOT
ATOM      1  C   UNL     1      -0.550  10.930  20.464  0.00  0.00    +0.000 A 
ATOM      2  C   UNL     1      -1.095  11.597  21.510  0.00  0.00    +0.000 A 
ATOM      3  C   UNL     1      -0.930  11.101  22.866  0.00  0.00    +0.000 A 
ATOM      4  C   UNL     1      -0.270   9.957  23.114  0.00  0.00    +0.000 A 
ATOM      5  C   UNL     1       0.312   9.242  22.040  0.00  0.00    +0.000 A 
ATOM      6  N   UNL     1       0.955   8.098  22.005  0.00  0.00    +0.000 NA
ATOM      7  N   UNL     1       1.355   7.893  20.715  0.00  0.00    +0.000 NA
ATOM      8  C   UNL     1       0.986   8.920  19.981  0.00  0.00    +0.000 A 
ATOM      9  N   UNL     1       1.365   9.162  18.672  0.00  0.00    +0.000 N 
ATOM     10  C   UNL     1       2.290   8.404  17.984  0.00  0.00    +0.000 C 
ATOM     11  O   UNL     1       2.759   8.839  16.934  0.00  0.00    +0.000 OA
ATOM     12  N   UNL     1       2.569   7.165  18.512  0.00  0.00    +0.000 N 
ATOM     13  N   UNL     1       0.208   9.774  20.756  0.00  0.00    +0.000 N 
ATOM     14  H   UNL     1       1.100  10.037  18.235  0.00  0.00    +0.000 HD
ATOM     15  H   UNL     1       1.846   6.817  19.139  0.00  0.00    +0.000 HD
ENDROOT
BRANCH  12  16
ATOM     16  C   UNL     1       3.513   6.237  18.033  0.00  0.00    +0.000 A 
ATOM     17  C   UNL     1       4.833   6.635  17.784  0.00  0.00    +0.000 A 
ATOM     18  C   UNL     1       5.797   5.706  17.377  0.00  0.00    +0.000 A 
ATOM     19  C   UNL     1       5.446   4.374  17.188  0.00  0.00    +0.000 A 
ATOM     20  C   UNL     1       4.135   3.967  17.430  0.00  0.00    +0.000 A 
ATOM     21  C   UNL     1       3.159   4.884  17.873  0.00  0.00    +0.000 A 
BRANCH  21  22
ATOM     22  C   UNL     1       1.753   4.371  18.053  0.00  0.00    +0.000 C 
ATOM     23  F   UNL     1       1.607   3.027  17.875  0.00  0.00    +0.000 F 
ATOM     24  F   UNL     1       1.266   4.628  19.301  0.00  0.00    +0.000 F 
ATOM     25  F   UNL     1       0.871   4.950  17.190  0.00  0.00    +0.000 F 
ENDBRANCH  21  22
ENDBRANCH  12  16
BRANCH   1  26
ATOM     26  O   UNL     1      -0.741  11.267  19.134  0.00  0.00    +0.000 OA
BRANCH  26  28
ATOM     27  C   UNL     1       0.911  12.913  18.573  0.00  0.00    +0.000 C 
ATOM     28  C   UNL     1      -0.563  12.655  18.812  0.00  0.00    +0.000 C 
ENDBRANCH  26  28
ENDBRANCH   1  26
TORSDOF 4
ENDMDL
MODEL 7
REMARK VINA RESULT:      -7.5      1.083      1.376
REMARK  Name = 
REMARK  5 active torsions:
REMARK  status: ('A' for Active; 'I' for Inactive)
REMARK    1  A    between atoms: C_1  and  C_2
REMARK    2  A    between atoms: C_2  and  O_3
REMARK    3  A    between atoms: O_3  and  C_4
REMARK    4  A    between atoms: N_15  and  C_16
REMARK    5  A    between atoms: C_21  and  C_22
REMARK                            x       y       z     vdW  Elec       q    Type
REMARK                         _______ _______ _______ _____ _____    ______ ____
ROOT
ATOM      1  C   UNL     1      -0.955  11.333  20.296  0.00  0.00    +0.000 A 
ATOM      2  C   UNL     1      -1.547  12.110  21.236  0.00  0.00    +0.000 A 
ATOM      3  C   UNL     1      -1.421  11.784  22.647  0.00  0.00    +0.000 A 
ATOM      4  C   UNL     1      -0.752  10.690  23.052  0.00  0.00    +0.000 A 
ATOM      5  C   UNL     1      -0.122   9.863  22.092  0.00  0.00    +0.000 A 
ATOM      6  N   UNL     1       0.541   8.737  22.217  0.00  0.00    +0.000 NA
ATOM      7  N   UNL     1       0.988   8.386  20.975  0.00  0.00    +0.000 NA
ATOM      8  C   UNL     1       0.629   9.310  20.110  0.00  0.00    +0.000 A 
ATOM      9  N   UNL     1       1.049   9.400  18.795  0.00  0.00    +0.000 N 
ATOM     10  C   UNL     1       2.010   8.584  18.235  0.00  0.00    +0.000 C 
ATOM     11  O   UNL     1       2.508   8.899  17.155  0.00  0.00    +0.000 OA
ATOM     12  N   UNL     1       2.290   7.423  18.916  0.00  0.00    +0.000 N 
ATOM     13  N   UNL     1      -0.189  10.236  20.750  0.00  0.00    +0.000 N 
ATOM     14  H   UNL     1       0.786  10.212  18.248  0.00  0.00    +0.000 HD
ATOM     15  H   UNL     1       1.551   7.138  19.557  0.00  0.00    +0.000 HD
ENDROOT
BRANCH  12  16
ATOM     16  C   UNL     1       3.265   6.463  18.584  0.00  0.00    +0.000 A 
ATOM     17  C   UNL     1       4.252   6.757  17.634  0.00  0.00    +0.000 A 
ATOM     18  C   UNL     1       5.268   5.838  17.349  0.00  0.00    +0.000 A 
ATOM     19  C   UNL     1       5.292   4.605  17.990  0.00  0.00    +0.000 A 
ATOM     20  C   UNL     1       4.314   4.301  18.935  0.00  0.00    +0.000 A 
ATOM     21  C   UNL     1       3.303   5.229  19.259  0.00  0.00    +0.000 A 
BRANCH  21  22
ATOM     22  C   UNL     1       2.250   4.795  20.248  0.00  0.00    +0.000 C 
ATOM     23  F   UNL     1       2.489   3.594  20.848  0.00  0.00    +0.000 F 
ATOM     24  F   UNL     1       2.103   5.688  21.268  0.00  0.00    +0.000 F 
ATOM     25  F   UNL     1       1.016   4.680  19.681  0.00  0.00    +0.000 F 
ENDBRANCH  21  22
ENDBRANCH  12  16
BRANCH   1  26
ATOM     26  O   UNL     1      -1.104  11.504  18.930  0.00  0.00    +0.000 OA
BRANCH  26  28
ATOM     27  C   UNL     1      -2.376   9.997  17.565  0.00  0.00    +0.000 C 
ATOM     28  C   UNL     1      -2.419  11.255  18.411  0.00  0.00    +0.000 C 
ENDBRANCH  26  28
ENDBRANCH   1  26
TORSDOF 4
ENDMDL
MODEL 8
REMARK VINA RESULT:      -7.4      2.491      3.680
REMARK  Name = 
REMARK  5 active torsions:
REMARK  status: ('A' for Active; 'I' for Inactive)
REMARK    1  A    between atoms: C_1  and  C_2
REMARK    2  A    between atoms: C_2  and  O_3
REMARK    3  A    between atoms: O_3  and  C_4
REMARK    4  A    between atoms: N_15  and  C_16
REMARK    5  A    between atoms: C_21  and  C_22
REMARK                            x       y       z     vdW  Elec       q    Type
REMARK                         _______ _______ _______ _____ _____    ______ ____
ROOT
ATOM      1  C   UNL     1       0.935  10.488  21.150  0.00  0.00    +0.000 A 
ATOM      2  C   UNL     1       0.374  11.715  21.014  0.00  0.00    +0.000 A 
ATOM      3  C   UNL     1       0.115  12.263  19.693  0.00  0.00    +0.000 A 
ATOM      4  C   UNL     1       0.459  11.591  18.580  0.00  0.00    +0.000 A 
ATOM      5  C   UNL     1       1.044  10.307  18.694  0.00  0.00    +0.000 A 
ATOM      6  N   UNL     1       1.503   9.478  17.786  0.00  0.00    +0.000 NA
ATOM      7  N   UNL     1       1.911   8.347  18.434  0.00  0.00    +0.000 NA
ATOM      8  C   UNL     1       1.668   8.476  19.721  0.00  0.00    +0.000 A 
ATOM      9  N   UNL     1       1.774   7.477  20.672  0.00  0.00    +0.000 N 
ATOM     10  C   UNL     1       2.043   6.156  20.377  0.00  0.00    +0.000 C 
ATOM     11  O   UNL     1       1.858   5.300  21.240  0.00  0.00    +0.000 OA
ATOM     12  N   UNL     1       2.568   5.909  19.131  0.00  0.00    +0.000 N 
ATOM     13  N   UNL     1       1.212   9.766  19.968  0.00  0.00    +0.000 N 
ATOM     14  H   UNL     1       1.466   7.663  21.619  0.00  0.00    +0.000 HD
ATOM     15  H   UNL     1       2.999   6.726  18.701  0.00  0.00    +0.000 HD
ENDROOT
BRANCH  12  16
ATOM     16  C   UNL     1       2.868   4.651  18.574  0.00  0.00    +0.000 A 
ATOM     17  C   UNL     1       1.854   3.701  18.387  0.00  0.00    +0.000 A 
ATOM     18  C   UNL     1       2.127   2.476  17.769  0.00  0.00    +0.000 A 
ATOM     19  C   UNL     1       3.421   2.175  17.358  0.00  0.00    +0.000 A 
ATOM     20  C   UNL     1       4.437   3.111  17.542  0.00  0.00    +0.000 A 
ATOM     21  C   UNL     1       4.172   4.364  18.132  0.00  0.00    +0.000 A 
BRANCH  21  22
ATOM     22  C   UNL     1       5.341   5.292  18.348  0.00  0.00    +0.000 C 
ATOM     23  F   UNL     1       6.527   4.846  17.845  0.00  0.00    +0.000 F 
ATOM     24  F   UNL     1       5.140   6.514  17.777  0.00  0.00    +0.000 F 
ATOM     25  F   UNL     1       5.576   5.539  19.668  0.00  0.00    +0.000 F 
ENDBRANCH  21  22
ENDBRANCH  12  16
BRANCH   1  26
ATOM     26  O   UNL     1       1.311   9.929  22.360  0.00  0.00    +0.000 OA
BRANCH  26  28
ATOM     27  C   UNL     1      -0.764   8.740  22.545  0.00  0.00    +0.000 C 
ATOM     28  C   UNL     1       0.240   9.621  23.264  0.00  0.00    +0.000 C 
ENDBRANCH  26  28
ENDBRANCH   1  26
TORSDOF 4
ENDMDL
MODEL 9
REMARK VINA RESULT:      -7.4      2.683      7.161
REMARK  Name = 
REMARK  5 active torsions:
REMARK  status: ('A' for Active; 'I' for Inactive)
REMARK    1  A    between atoms: C_1  and  C_2
REMARK    2  A    between atoms: C_2  and  O_3
REMARK    3  A    between atoms: O_3  and  C_4
REMARK    4  A    between atoms: N_15  and  C_16
REMARK    5  A    between atoms: C_21  and  C_22
REMARK                            x       y       z     vdW  Elec       q    Type
REMARK                         _______ _______ _______ _____ _____    ______ ____
ROOT
ATOM      1  C   UNL     1       4.612   5.248  18.562  0.00  0.00    +0.000 A 
ATOM      2  C   UNL     1       5.006   3.958  18.688  0.00  0.00    +0.000 A 
ATOM      3  C   UNL     1       4.254   3.037  19.524  0.00  0.00    +0.000 A 
ATOM      4  C   UNL     1       3.179   3.447  20.220  0.00  0.00    +0.000 A 
ATOM      5  C   UNL     1       2.745   4.789  20.104  0.00  0.00    +0.000 A 
ATOM      6  N   UNL     1       1.773   5.442  20.698  0.00  0.00    +0.000 NA
ATOM      7  N   UNL     1       1.753   6.705  20.180  0.00  0.00    +0.000 NA
ATOM      8  C   UNL     1       2.682   6.807  19.254  0.00  0.00    +0.000 A 
ATOM      9  N   UNL     1       2.849   7.869  18.383  0.00  0.00    +0.000 N 
ATOM     10  C   UNL     1       1.977   8.933  18.288  0.00  0.00    +0.000 C 
ATOM     11  O   UNL     1       2.055   9.687  17.319  0.00  0.00    +0.000 OA
ATOM     12  N   UNL     1       1.113   9.104  19.344  0.00  0.00    +0.000 N 
ATOM     13  N   UNL     1       3.433   5.636  19.237  0.00  0.00    +0.000 N 
ATOM     14  H   UNL     1       3.538   7.796  17.644  0.00  0.00    +0.000 HD
ATOM     15  H   UNL     1       1.423   8.648  20.201  0.00  0.00    +0.000 HD
ENDROOT
BRANCH  12  16
ATOM     16  C   UNL     1       0.097  10.071  19.456  0.00  0.00    +0.000 A 
ATOM     17  C   UNL     1      -0.481  10.626  18.307  0.00  0.00    +0.000 A 
ATOM     18  C   UNL     1      -1.541  11.534  18.405  0.00  0.00    +0.000 A 
ATOM     19  C   UNL     1      -2.016  11.919  19.653  0.00  0.00    +0.000 A 
ATOM     20  C   UNL     1      -1.447  11.375  20.803  0.00  0.00    +0.000 A 
ATOM     21  C   UNL     1      -0.401  10.433  20.722  0.00  0.00    +0.000 A 
BRANCH  21  22
ATOM     22  C   UNL     1       0.196   9.942  22.016  0.00  0.00    +0.000 C 
ATOM     23  F   UNL     1      -0.024   8.623  22.285  0.00  0.00    +0.000 F 
ATOM     24  F   UNL     1       1.551  10.099  22.051  0.00  0.00    +0.000 F 
ATOM     25  F   UNL     1      -0.278  10.619  23.100  0.00  0.00    +0.000 F 
ENDBRANCH  21  22
ENDBRANCH  12  16
BRANCH   1  26
ATOM     26  O   UNL     1       5.320   6.220  17.873  0.00  0.00    +0.000 OA
BRANCH  26  28
ATOM     27  C   UNL     1       7.574   7.038  17.848  0.00  0.00    +0.000 C 
ATOM     28  C   UNL     1       6.664   5.872  17.511  0.00  0.00    +0.000 C 
ENDBRANCH  26  28
ENDBRANCH   1  26
TORSDOF 4
ENDMDL
