MODEL 1
REMARK VINA RESULT:      -7.6      0.000      0.000
REMARK  Name = 
REMARK  9 active torsions:
REMARK  status: ('A' for Active; 'I' for Inactive)
REMARK    1  A    between atoms: C_4  and  C_5
REMARK    2  A    between atoms: C_5  and  C_6
REMARK    3  A    between atoms: C_10  and  N_11
REMARK    4  A    between atoms: N_11  and  C_12
REMARK    5  A    between atoms: C_12  and  C_13
REMARK    6  A    between atoms: C_13  and  C_14
REMARK    7  A    between atoms: C_14  and  N_15
REMARK    8  A    between atoms: N_15  and  C_16
REMARK    9  A    between atoms: C_16  and  C_17
REMARK                            x       y       z     vdW  Elec       q    Type
REMARK                         _______ _______ _______ _____ _____    ______ ____
ROOT
ATOM      1  C   UNL     1      -0.136  10.922  19.515  0.00  0.00    +0.000 A 
ATOM      2  C   UNL     1      -0.281  10.145  20.665  0.00  0.00    +0.000 A 
ATOM      3  C   UNL     1       0.466   8.967  20.817  0.00  0.00    +0.000 A 
ATOM      4  C   UNL     1       1.370   8.535  19.811  0.00  0.00    +0.000 A 
ATOM      5  C   UNL     1       2.090   7.307  19.811  0.00  0.00    +0.000 A 
ATOM      6  C   UNL     1       2.739   6.941  18.624  0.00  0.00    +0.000 A 
ATOM      7  C   UNL     1       2.910   7.872  17.628  0.00  0.00    +0.000 A 
ATOM      8  N   UNL     1       2.363   9.092  17.660  0.00  0.00    +0.000 NA
ATOM      9  C   UNL     1       1.554   9.376  18.685  0.00  0.00    +0.000 A 
ATOM     10  C   UNL     1       0.824  10.544  18.572  0.00  0.00    +0.000 A 
ENDROOT
BRANCH   5  11
ATOM     11  N   UNL     1       2.075   6.404  20.922  0.00  0.00    +0.000 N 
ATOM     12  H   UNL     1       2.759   6.698  21.618  0.00  0.00    +0.000 HD
BRANCH  11  13
ATOM     13  C   UNL     1       2.292   5.012  20.499  0.00  0.00    +0.000 C 
BRANCH  13  14
ATOM     14  C   UNL     1       1.052   4.144  20.561  0.00  0.00    +0.000 C 
BRANCH  14  15
ATOM     15  C   UNL     1       1.392   2.806  19.883  0.00  0.00    +0.000 C 
BRANCH  15  16
ATOM     16  N   UNL     1       1.664   3.011  18.467  0.00  0.00    +0.000 NA
ATOM     17  H   UNL     1       1.837   3.999  18.284  0.00  0.00    +0.000 HD
BRANCH  16  18
ATOM     18  C   UNL     1       2.843   2.264  18.027  0.00  0.00    +0.000 C 
BRANCH  18  19
ATOM     19  C   UNL     1       3.948   3.228  17.788  0.00  0.00    +0.000 A 
ATOM     20  C   UNL     1       4.278   4.038  16.721  0.00  0.00    +0.000 A 
ATOM     21  C   UNL     1       5.386   4.812  17.139  0.00  0.00    +0.000 A 
ATOM     22  C   UNL     1       5.670   4.415  18.424  0.00  0.00    +0.000 A 
ATOM     23  O   UNL     1       4.805   3.449  18.827  0.00  0.00    +0.000 OA
ENDBRANCH  18  19
ENDBRANCH  16  18
ENDBRANCH  15  16
ENDBRANCH  14  15
ENDBRANCH  13  14
ENDBRANCH  11  13
ENDBRANCH   5  11
BRANCH   1  24
ATOM     24  C   UNL     1      -1.032  12.106  19.234  0.00  0.00    +0.000 C 
BRANCH  24  28
ATOM     25  C   UNL     1      -4.695  11.308  17.100  0.00  0.00    +0.000 A 
ATOM     26  C   UNL     1      -4.745  11.789  18.404  0.00  0.00    +0.000 A 
ATOM     27  C   UNL     1      -3.562  12.034  19.104  0.00  0.00    +0.000 A 
ATOM     28  C   UNL     1      -2.315  11.794  18.507  0.00  0.00    +0.000 A 
ATOM     29  C   UNL     1      -2.279  11.310  17.192  0.00  0.00    +0.000 A 
ATOM     30  C   UNL     1      -3.463  11.070  16.493  0.00  0.00    +0.000 A 
ENDBRANCH  24  28
ENDBRANCH   1  24
TORSDOF 9
ENDMDL
MODEL 2
REMARK VINA RESULT:      -7.5      4.789      8.426
REMARK  Name = 
REMARK  9 active torsions:
REMARK  status: ('A' for Active; 'I' for Inactive)
REMARK    1  A    between atoms: C_4  and  C_5
REMARK    2  A    between atoms: C_5  and  C_6
REMARK    3  A    between atoms: C_10  and  N_11
REMARK    4  A    between atoms: N_11  and  C_12
REMARK    5  A    between atoms: C_12  and  C_13
REMARK    6  A    between atoms: C_13  and  C_14
REMARK    7  A    between atoms: C_14  and  N_15
REMARK    8  A    between atoms: N_15  and  C_16
REMARK    9  A    between atoms: C_16  and  C_17
REMARK                            x       y       z     vdW  Elec       q    Type
REMARK                         _______ _______ _______ _____ _____    ______ ____
ROOT
ATOM      1  C   UNL     1       6.536   4.751  14.577  0.00  0.00    +0.000 A 
ATOM      2  C   UNL     1       5.248   4.372  14.957  0.00  0.00    +0.000 A 
ATOM      3  C   UNL     1       4.831   4.535  16.287  0.00  0.00    +0.000 A 
ATOM      4  C   UNL     1       5.703   5.074  17.270  0.00  0.00    +0.000 A 
ATOM      5  C   UNL     1       5.424   5.179  18.662  0.00  0.00    +0.000 A 
ATOM      6  C   UNL     1       6.492   5.503  19.510  0.00  0.00    +0.000 A 
ATOM      7  C   UNL     1       7.663   5.985  18.975  0.00  0.00    +0.000 A 
ATOM      8  N   UNL     1       7.905   6.034  17.661  0.00  0.00    +0.000 NA
ATOM      9  C   UNL     1       6.981   5.517  16.846  0.00  0.00    +0.000 A 
ATOM     10  C   UNL     1       7.357   5.368  15.524  0.00  0.00    +0.000 A 
ENDROOT
BRANCH   5  11
ATOM     11  N   UNL     1       4.145   4.858  19.219  0.00  0.00    +0.000 N 
ATOM     12  H   UNL     1       3.781   4.010  18.787  0.00  0.00    +0.000 HD
BRANCH  11  13
ATOM     13  C   UNL     1       3.200   5.979  19.100  0.00  0.00    +0.000 C 
BRANCH  13  14
ATOM     14  C   UNL     1       2.330   6.190  20.321  0.00  0.00    +0.000 C 
BRANCH  14  15
ATOM     15  C   UNL     1       1.455   4.937  20.486  0.00  0.00    +0.000 C 
BRANCH  15  16
ATOM     16  N   UNL     1       2.026   4.050  21.490  0.00  0.00    +0.000 NA
ATOM     17  H   UNL     1       1.677   4.299  22.415  0.00  0.00    +0.000 HD
BRANCH  16  18
ATOM     18  C   UNL     1       1.672   2.652  21.244  0.00  0.00    +0.000 C 
BRANCH  18  19
ATOM     19  C   UNL     1       2.079   2.301  19.859  0.00  0.00    +0.000 A 
ATOM     20  C   UNL     1       1.418   2.316  18.649  0.00  0.00    +0.000 A 
ATOM     21  C   UNL     1       2.378   1.975  17.668  0.00  0.00    +0.000 A 
ATOM     22  C   UNL     1       3.556   1.759  18.341  0.00  0.00    +0.000 A 
ATOM     23  O   UNL     1       3.386   1.949  19.675  0.00  0.00    +0.000 OA
ENDBRANCH  18  19
ENDBRANCH  16  18
ENDBRANCH  15  16
ENDBRANCH  14  15
ENDBRANCH  13  14
ENDBRANCH  11  13
ENDBRANCH   5  11
BRANCH   1  24
ATOM     24  C   UNL     1       7.083   4.447  13.201  0.00  0.00    +0.000 C 
BRANCH  24  28
ATOM     25  C   UNL     1       4.557   1.888  10.817  0.00  0.00    +0.000 A 
ATOM     26  C   UNL     1       5.846   1.478  11.143  0.00  0.00    +0.000 A 
ATOM     27  C   UNL     1       6.672   2.310  11.901  0.00  0.00    +0.000 A 
ATOM     28  C   UNL     1       6.219   3.564  12.337  0.00  0.00    +0.000 A 
ATOM     29  C   UNL     1       4.918   3.964  12.001  0.00  0.00    +0.000 A 
ATOM     30  C   UNL     1       4.093   3.129  11.246  0.00  0.00    +0.000 A 
ENDBRANCH  24  28
ENDBRANCH   1  24
TORSDOF 9
ENDMDL
MODEL 3
REMARK VINA RESULT:      -7.5      2.747      8.924
REMARK  Name = 
REMARK  9 active torsions:
REMARK  status: ('A' for Active; 'I' for Inactive)
REMARK    1  A    between atoms: C_4  and  C_5
REMARK    2  A    between atoms: C_5  and  C_6
REMARK    3  A    between atoms: C_10  and  N_11
REMARK    4  A    between atoms: N_11  and  C_12
REMARK    5  A    between atoms: C_12  and  C_13
REMARK    6  A    between atoms: C_13  and  C_14
REMARK    7  A    between atoms: C_14  and  N_15
REMARK    8  A    between atoms: N_15  and  C_16
REMARK    9  A    between atoms: C_16  and  C_17
REMARK                            x       y       z     vdW  Elec       q    Type
REMARK                         _______ _______ _______ _____ _____    ______ ____
ROOT
ATOM      1  C   UNL     1       2.808   6.604  18.407  0.00  0.00    +0.000 A 
ATOM      2  C   UNL     1       2.817   7.643  17.475  0.00  0.00    +0.000 A 
ATOM      3  C   UNL     1       2.225   8.875  17.790  0.00  0.00    +0.000 A 
ATOM      4  C   UNL     1       1.601   9.090  19.048  0.00  0.00    +0.000 A 
ATOM      5  C   UNL     1       0.877  10.256  19.428  0.00  0.00    +0.000 A 
ATOM      6  C   UNL     1       0.124  10.189  20.608  0.00  0.00    +0.000 A 
ATOM      7  C   UNL     1       0.328   9.153  21.488  0.00  0.00    +0.000 A 
ATOM      8  N   UNL     1       1.116   8.107  21.221  0.00  0.00    +0.000 NA
ATOM      9  C   UNL     1       1.667   8.047  20.003  0.00  0.00    +0.000 A 
ATOM     10  C   UNL     1       2.278   6.851  19.676  0.00  0.00    +0.000 A 
ENDROOT
BRANCH   5  11
ATOM     11  N   UNL     1       0.806  11.424  18.603  0.00  0.00    +0.000 N 
ATOM     12  H   UNL     1       1.108  11.199  17.657  0.00  0.00    +0.000 HD
BRANCH  11  13
ATOM     13  C   UNL     1       1.576  12.541  19.170  0.00  0.00    +0.000 C 
BRANCH  13  14
ATOM     14  C   UNL     1       0.835  13.862  19.186  0.00  0.00    +0.000 C 
BRANCH  14  15
ATOM     15  C   UNL     1      -0.445  13.662  20.014  0.00  0.00    +0.000 C 
BRANCH  15  16
ATOM     16  N   UNL     1      -1.597  13.513  19.136  0.00  0.00    +0.000 NA
ATOM     17  H   UNL     1      -1.288  13.370  18.176  0.00  0.00    +0.000 HD
BRANCH  16  18
ATOM     18  C   UNL     1      -2.422  12.365  19.514  0.00  0.00    +0.000 C 
BRANCH  18  19
ATOM     19  C   UNL     1      -2.902  11.703  18.274  0.00  0.00    +0.000 A 
ATOM     20  C   UNL     1      -4.155  11.355  17.816  0.00  0.00    +0.000 A 
ATOM     21  C   UNL     1      -3.973  10.848  16.507  0.00  0.00    +0.000 A 
ATOM     22  C   UNL     1      -2.622  10.905  16.258  0.00  0.00    +0.000 A 
ATOM     23  O   UNL     1      -1.961  11.419  17.327  0.00  0.00    +0.000 OA
ENDBRANCH  18  19
ENDBRANCH  16  18
ENDBRANCH  15  16
ENDBRANCH  14  15
ENDBRANCH  13  14
ENDBRANCH  11  13
ENDBRANCH   5  11
BRANCH   1  24
ATOM     24  C   UNL     1       3.287   5.214  18.056  0.00  0.00    +0.000 C 
BRANCH  24  28
ATOM     25  C   UNL     1       7.491   4.755  17.205  0.00  0.00    +0.000 A 
ATOM     26  C   UNL     1       7.088   5.364  18.389  0.00  0.00    +0.000 A 
ATOM     27  C   UNL     1       5.728   5.528  18.662  0.00  0.00    +0.000 A 
ATOM     28  C   UNL     1       4.757   5.090  17.748  0.00  0.00    +0.000 A 
ATOM     29  C   UNL     1       5.178   4.477  16.559  0.00  0.00    +0.000 A 
ATOM     30  C   UNL     1       6.537   4.311  16.291  0.00  0.00    +0.000 A 
ENDBRANCH  24  28
ENDBRANCH   1  24
TORSDOF 9
ENDMDL
MODEL 4
REMARK VINA RESULT:      -7.4      0.969      1.289
REMARK  Name = 
REMARK  9 active torsions:
REMARK  status: ('A' for Active; 'I' for Inactive)
REMARK    1  A    between atoms: C_4  and  C_5
REMARK    2  A    between atoms: C_5  and  C_6
REMARK    3  A    between atoms: C_10  and  N_11
REMARK    4  A    between atoms: N_11  and  C_12
REMARK    5  A    between atoms: C_12  and  C_13
REMARK    6  A    between atoms: C_13  and  C_14
REMARK    7  A    between atoms: C_14  and  N_15
REMARK    8  A    between atoms: N_15  and  C_16
REMARK    9  A    between atoms: C_16  and  C_17
REMARK                            x       y       z     vdW  Elec       q    Type
REMARK                         _______ _______ _______ _____ _____    ______ ____
ROOT
ATOM      1  C   UNL     1       0.131  10.477  19.811  0.00  0.00    +0.000 A 
ATOM      2  C   UNL     1       0.039   9.602  20.894  0.00  0.00    +0.000 A 
ATOM      3  C   UNL     1       0.787   8.415  20.905  0.00  0.00    +0.000 A 
ATOM      4  C   UNL     1       1.639   8.074  19.821  0.00  0.00    +0.000 A 
ATOM      5  C   UNL     1       2.353   6.850  19.678  0.00  0.00    +0.000 A 
ATOM      6  C   UNL     1       2.941   6.591  18.433  0.00  0.00    +0.000 A 
ATOM      7  C   UNL     1       3.067   7.606  17.515  0.00  0.00    +0.000 A 
ATOM      8  N   UNL     1       2.528   8.818  17.681  0.00  0.00    +0.000 NA
ATOM      9  C   UNL     1       1.771   9.010  18.766  0.00  0.00    +0.000 A 
ATOM     10  C   UNL     1       1.042  10.184  18.793  0.00  0.00    +0.000 A 
ENDROOT
BRANCH   5  11
ATOM     11  N   UNL     1       2.388   5.853  20.705  0.00  0.00    +0.000 N 
ATOM     12  H   UNL     1       3.262   5.332  20.653  0.00  0.00    +0.000 HD
BRANCH  11  13
ATOM     13  C   UNL     1       1.219   4.963  20.643  0.00  0.00    +0.000 C 
BRANCH  13  14
ATOM     14  C   UNL     1       1.551   3.525  20.303  0.00  0.00    +0.000 C 
BRANCH  14  15
ATOM     15  C   UNL     1       2.691   3.082  21.235  0.00  0.00    +0.000 C 
BRANCH  15  16
ATOM     16  N   UNL     1       3.780   2.501  20.462  0.00  0.00    +0.000 NA
ATOM     17  H   UNL     1       3.957   1.546  20.771  0.00  0.00    +0.000 HD
BRANCH  16  18
ATOM     18  C   UNL     1       3.465   2.454  19.033  0.00  0.00    +0.000 C 
BRANCH  18  19
ATOM     19  C   UNL     1       4.453   3.291  18.306  0.00  0.00    +0.000 A 
ATOM     20  C   UNL     1       4.575   3.676  16.988  0.00  0.00    +0.000 A 
ATOM     21  C   UNL     1       5.670   4.570  16.934  0.00  0.00    +0.000 A 
ATOM     22  C   UNL     1       6.154   4.661  18.217  0.00  0.00    +0.000 A 
ATOM     23  O   UNL     1       5.426   3.884  19.059  0.00  0.00    +0.000 OA
ENDBRANCH  18  19
ENDBRANCH  16  18
ENDBRANCH  15  16
ENDBRANCH  14  15
ENDBRANCH  13  14
ENDBRANCH  11  13
ENDBRANCH   5  11
BRANCH   1  24
ATOM     24  C   UNL     1      -0.772  11.682  19.680  0.00  0.00    +0.000 C 
BRANCH  24  28
ATOM     25  C   UNL     1      -4.635  10.895  17.928  0.00  0.00    +0.000 A 
ATOM     26  C   UNL     1      -3.541  10.115  17.569  0.00  0.00    +0.000 A 
ATOM     27  C   UNL     1      -2.286  10.376  18.122  0.00  0.00    +0.000 A 
ATOM     28  C   UNL     1      -2.111  11.425  19.037  0.00  0.00    +0.000 A 
ATOM     29  C   UNL     1      -3.223  12.203  19.390  0.00  0.00    +0.000 A 
ATOM     30  C   UNL     1      -4.477  11.938  18.839  0.00  0.00    +0.000 A 
ENDBRANCH  24  28
ENDBRANCH   1  24
TORSDOF 9
ENDMDL
MODEL 5
REMARK VINA RESULT:      -7.4      1.992      3.952
REMARK  Name = 
REMARK  9 active torsions:
REMARK  status: ('A' for Active; 'I' for Inactive)
REMARK    1  A    between atoms: C_4  and  C_5
REMARK    2  A    between atoms: C_5  and  C_6
REMARK    3  A    between atoms: C_10  and  N_11
REMARK    4  A    between atoms: N_11  and  C_12
REMARK    5  A    between atoms: C_12  and  C_13
REMARK    6  A    between atoms: C_13  and  C_14
REMARK    7  A    between atoms: C_14  and  N_15
REMARK    8  A    between atoms: N_15  and  C_16
REMARK    9  A    between atoms: C_16  and  C_17
REMARK                            x       y       z     vdW  Elec       q    Type
REMARK                         _______ _______ _______ _____ _____    ______ ____
ROOT
ATOM      1  C   UNL     1       2.418   8.519  18.253  0.00  0.00    +0.000 A 
ATOM      2  C   UNL     1       3.424   7.858  17.546  0.00  0.00    +0.000 A 
ATOM      3  C   UNL     1       3.819   6.567  17.927  0.00  0.00    +0.000 A 
ATOM      4  C   UNL     1       3.219   5.912  19.035  0.00  0.00    +0.000 A 
ATOM      5  C   UNL     1       3.618   4.656  19.574  0.00  0.00    +0.000 A 
ATOM      6  C   UNL     1       3.077   4.287  20.813  0.00  0.00    +0.000 A 
ATOM      7  C   UNL     1       1.996   4.972  21.315  0.00  0.00    +0.000 A 
ATOM      8  N   UNL     1       1.503   6.080  20.753  0.00  0.00    +0.000 NA
ATOM      9  C   UNL     1       2.152   6.572  19.693  0.00  0.00    +0.000 A 
ATOM     10  C   UNL     1       1.765   7.834  19.281  0.00  0.00    +0.000 A 
ENDROOT
BRANCH   5  11
ATOM     11  N   UNL     1       4.616   3.834  18.959  0.00  0.00    +0.000 N 
ATOM     12  H   UNL     1       5.143   4.379  18.278  0.00  0.00    +0.000 HD
BRANCH  11  13
ATOM     13  C   UNL     1       4.033   2.626  18.356  0.00  0.00    +0.000 C 
BRANCH  13  14
ATOM     14  C   UNL     1       3.529   2.819  16.941  0.00  0.00    +0.000 C 
BRANCH  14  15
ATOM     15  C   UNL     1       4.476   3.811  16.246  0.00  0.00    +0.000 C 
BRANCH  15  16
ATOM     16  N   UNL     1       5.835   3.290  16.235  0.00  0.00    +0.000 NA
ATOM     17  H   UNL     1       5.890   2.472  15.630  0.00  0.00    +0.000 HD
BRANCH  16  18
ATOM     18  C   UNL     1       6.791   4.278  15.734  0.00  0.00    +0.000 C 
BRANCH  18  19
ATOM     19  C   UNL     1       7.200   5.151  16.864  0.00  0.00    +0.000 A 
ATOM     20  C   UNL     1       7.279   6.519  17.017  0.00  0.00    +0.000 A 
ATOM     21  C   UNL     1       7.634   6.747  18.368  0.00  0.00    +0.000 A 
ATOM     22  C   UNL     1       7.764   5.507  18.946  0.00  0.00    +0.000 A 
ATOM     23  O   UNL     1       7.508   4.529  18.040  0.00  0.00    +0.000 OA
ENDBRANCH  18  19
ENDBRANCH  16  18
ENDBRANCH  15  16
ENDBRANCH  14  15
ENDBRANCH  13  14
ENDBRANCH  11  13
ENDBRANCH   5  11
BRANCH   1  24
ATOM     24  C   UNL     1       2.072   9.965  17.983  0.00  0.00    +0.000 C 
BRANCH  24  28
ATOM     25  C   UNL     1      -1.607  11.446  19.682  0.00  0.00    +0.000 A 
ATOM     26  C   UNL     1      -0.398  11.702  20.321  0.00  0.00    +0.000 A 
ATOM     27  C   UNL     1       0.794  11.212  19.782  0.00  0.00    +0.000 A 
ATOM     28  C   UNL     1       0.787  10.454  18.601  0.00  0.00    +0.000 A 
ATOM     29  C   UNL     1      -0.439  10.203  17.968  0.00  0.00    +0.000 A 
ATOM     30  C   UNL     1      -1.627  10.698  18.507  0.00  0.00    +0.000 A 
ENDBRANCH  24  28
ENDBRANCH   1  24
TORSDOF 9
ENDMDL
MODEL 6
REMARK VINA RESULT:      -7.3      2.976      9.301
REMARK  Name = 
REMARK  9 active torsions:
REMARK  status: ('A' for Active; 'I' for Inactive)
REMARK    1  A    between atoms: C_4  and  C_5
REMARK    2  A    between atoms: C_5  and  C_6
REMARK    3  A    between atoms: C_10  and  N_11
REMARK    4  A    between atoms: N_11  and  C_12
REMARK    5  A    between atoms: C_12  and  C_13
REMARK    6  A    between atoms: C_13  and  C_14
REMARK    7  A    between atoms: C_14  and  N_15
REMARK    8  A    between atoms: N_15  and  C_16
REMARK    9  A    between atoms: C_16  and  C_17
REMARK                            x       y       z     vdW  Elec       q    Type
REMARK                         _______ _______ _______ _____ _____    ______ ____
ROOT
ATOM      1  C   UNL     1       3.092   6.356  18.661  0.00  0.00    +0.000 A 
ATOM      2  C   UNL     1       2.990   7.282  17.622  0.00  0.00    +0.000 A 
ATOM      3  C   UNL     1       2.250   8.461  17.800  0.00  0.00    +0.000 A 
ATOM      4  C   UNL     1       1.586   8.733  19.025  0.00  0.00    +0.000 A 
ATOM      5  C   UNL     1       0.722   9.836  19.276  0.00  0.00    +0.000 A 
ATOM      6  C   UNL     1      -0.036   9.806  20.454  0.00  0.00    +0.000 A 
ATOM      7  C   UNL     1       0.278   8.903  21.442  0.00  0.00    +0.000 A 
ATOM      8  N   UNL     1       1.189   7.937  21.291  0.00  0.00    +0.000 NA
ATOM      9  C   UNL     1       1.762   7.813  20.089  0.00  0.00    +0.000 A 
ATOM     10  C   UNL     1       2.517   6.672  19.894  0.00  0.00    +0.000 A 
ENDROOT
BRANCH   5  11
ATOM     11  N   UNL     1       0.524  10.892  18.329  0.00  0.00    +0.000 N 
ATOM     12  H   UNL     1       1.353  10.996  17.746  0.00  0.00    +0.000 HD
BRANCH  11  13
ATOM     13  C   UNL     1       0.159  12.155  18.987  0.00  0.00    +0.000 C 
BRANCH  13  14
ATOM     14  C   UNL     1      -1.064  12.830  18.400  0.00  0.00    +0.000 C 
BRANCH  14  15
ATOM     15  C   UNL     1      -2.301  12.096  18.944  0.00  0.00    +0.000 C 
BRANCH  15  16
ATOM     16  N   UNL     1      -2.611  10.943  18.110  0.00  0.00    +0.000 NA
ATOM     17  H   UNL     1      -3.124  10.249  18.651  0.00  0.00    +0.000 HD
BRANCH  16  18
ATOM     18  C   UNL     1      -3.438  11.312  16.961  0.00  0.00    +0.000 C 
BRANCH  18  19
ATOM     19  C   UNL     1      -4.833  11.514  17.431  0.00  0.00    +0.000 A 
ATOM     20  C   UNL     1      -5.792  12.465  17.156  0.00  0.00    +0.000 A 
ATOM     21  C   UNL     1      -6.965  12.053  17.832  0.00  0.00    +0.000 A 
ATOM     22  C   UNL     1      -6.642  10.889  18.487  0.00  0.00    +0.000 A 
ATOM     23  O   UNL     1      -5.347  10.553  18.254  0.00  0.00    +0.000 OA
ENDBRANCH  18  19
ENDBRANCH  16  18
ENDBRANCH  15  16
ENDBRANCH  14  15
ENDBRANCH  13  14
ENDBRANCH  11  13
ENDBRANCH   5  11
BRANCH   1  24
ATOM     24  C   UNL     1       3.739   5.005  18.464  0.00  0.00    +0.000 C 
BRANCH  24  28
ATOM     25  C   UNL     1       7.031   4.796  15.684  0.00  0.00    +0.000 A 
ATOM     26  C   UNL     1       7.142   5.577  16.830  0.00  0.00    +0.000 A 
ATOM     27  C   UNL     1       6.074   5.659  17.725  0.00  0.00    +0.000 A 
ATOM     28  C   UNL     1       4.879   4.965  17.478  0.00  0.00    +0.000 A 
ATOM     29  C   UNL     1       4.781   4.183  16.319  0.00  0.00    +0.000 A 
ATOM     30  C   UNL     1       5.852   4.099  15.429  0.00  0.00    +0.000 A 
ENDBRANCH  24  28
ENDBRANCH   1  24
TORSDOF 9
ENDMDL
MODEL 7
REMARK VINA RESULT:      -7.3      4.551      8.598
REMARK  Name = 
REMARK  9 active torsions:
REMARK  status: ('A' for Active; 'I' for Inactive)
REMARK    1  A    between atoms: C_4  and  C_5
REMARK    2  A    between atoms: C_5  and  C_6
REMARK    3  A    between atoms: C_10  and  N_11
REMARK    4  A    between atoms: N_11  and  C_12
REMARK    5  A    between atoms: C_12  and  C_13
REMARK    6  A    between atoms: C_13  and  C_14
REMARK    7  A    between atoms: C_14  and  N_15
REMARK    8  A    between atoms: N_15  and  C_16
REMARK    9  A    between atoms: C_16  and  C_17
REMARK                            x       y       z     vdW  Elec       q    Type
REMARK                         _______ _______ _______ _____ _____    ______ ____
ROOT
ATOM      1  C   UNL     1       6.568   4.972  14.451  0.00  0.00    +0.000 A 
ATOM      2  C   UNL     1       5.214   4.747  14.704  0.00  0.00    +0.000 A 
ATOM      3  C   UNL     1       4.712   4.870  16.009  0.00  0.00    +0.000 A 
ATOM      4  C   UNL     1       5.562   5.212  17.094  0.00  0.00    +0.000 A 
ATOM      5  C   UNL     1       5.183   5.254  18.465  0.00  0.00    +0.000 A 
ATOM      6  C   UNL     1       6.210   5.367  19.413  0.00  0.00    +0.000 A 
ATOM      7  C   UNL     1       7.474   5.720  19.008  0.00  0.00    +0.000 A 
ATOM      8  N   UNL     1       7.830   5.830  17.724  0.00  0.00    +0.000 NA
ATOM      9  C   UNL     1       6.917   5.504  16.803  0.00  0.00    +0.000 A 
ATOM     10  C   UNL     1       7.380   5.400  15.505  0.00  0.00    +0.000 A 
ENDROOT
BRANCH   5  11
ATOM     11  N   UNL     1       3.831   5.073  18.898  0.00  0.00    +0.000 N 
ATOM     12  H   UNL     1       3.365   4.387  18.305  0.00  0.00    +0.000 HD
BRANCH  11  13
ATOM     13  C   UNL     1       3.095   6.346  18.940  0.00  0.00    +0.000 C 
BRANCH  13  14
ATOM     14  C   UNL     1       2.140   6.474  20.109  0.00  0.00    +0.000 C 
BRANCH  14  15
ATOM     15  C   UNL     1       2.157   5.135  20.866  0.00  0.00    +0.000 C 
BRANCH  15  16
ATOM     16  N   UNL     1       0.947   4.378  20.580  0.00  0.00    +0.000 NA
ATOM     17  H   UNL     1       0.632   4.568  19.630  0.00  0.00    +0.000 HD
BRANCH  16  18
ATOM     18  C   UNL     1       1.170   2.936  20.693  0.00  0.00    +0.000 C 
BRANCH  18  19
ATOM     19  C   UNL     1       2.056   2.508  19.580  0.00  0.00    +0.000 A 
ATOM     20  C   UNL     1       3.232   1.791  19.533  0.00  0.00    +0.000 A 
ATOM     21  C   UNL     1       3.536   1.616  18.162  0.00  0.00    +0.000 A 
ATOM     22  C   UNL     1       2.536   2.249  17.463  0.00  0.00    +0.000 A 
ATOM     23  O   UNL     1       1.633   2.800  18.314  0.00  0.00    +0.000 OA
ENDBRANCH  18  19
ENDBRANCH  16  18
ENDBRANCH  15  16
ENDBRANCH  14  15
ENDBRANCH  13  14
ENDBRANCH  11  13
ENDBRANCH   5  11
BRANCH   1  24
ATOM     24  C   UNL     1       7.184   4.695  13.099  0.00  0.00    +0.000 C 
BRANCH  24  28
ATOM     25  C   UNL     1       5.532   1.413  10.838  0.00  0.00    +0.000 A 
ATOM     26  C   UNL     1       4.688   2.391  11.355  0.00  0.00    +0.000 A 
ATOM     27  C   UNL     1       5.217   3.447  12.100  0.00  0.00    +0.000 A 
ATOM     28  C   UNL     1       6.597   3.532  12.342  0.00  0.00    +0.000 A 
ATOM     29  C   UNL     1       7.435   2.540  11.815  0.00  0.00    +0.000 A 
ATOM     30  C   UNL     1       6.905   1.488  11.067  0.00  0.00    +0.000 A 
ENDBRANCH  24  28
ENDBRANCH   1  24
TORSDOF 9
ENDMDL
MODEL 8
REMARK VINA RESULT:      -7.2      2.568      4.200
REMARK  Name = 
REMARK  9 active torsions:
REMARK  status: ('A' for Active; 'I' for Inactive)
REMARK    1  A    between atoms: C_4  and  C_5
REMARK    2  A    between atoms: C_5  and  C_6
REMARK    3  A    between atoms: C_10  and  N_11
REMARK    4  A    between atoms: N_11  and  C_12
REMARK    5  A    between atoms: C_12  and  C_13
REMARK    6  A    between atoms: C_13  and  C_14
REMARK    7  A    between atoms: C_14  and  N_15
REMARK    8  A    between atoms: N_15  and  C_16
REMARK    9  A    between atoms: C_16  and  C_17
REMARK                            x       y       z     vdW  Elec       q    Type
REMARK                         _______ _______ _______ _____ _____    ______ ____
ROOT
ATOM      1  C   UNL     1       1.479   9.253  19.139  0.00  0.00    +0.000 A 
ATOM      2  C   UNL     1       2.143   9.203  17.912  0.00  0.00    +0.000 A 
ATOM      3  C   UNL     1       2.813   8.033  17.523  0.00  0.00    +0.000 A 
ATOM      4  C   UNL     1       2.841   6.888  18.362  0.00  0.00    +0.000 A 
ATOM      5  C   UNL     1       3.580   5.696  18.118  0.00  0.00    +0.000 A 
ATOM      6  C   UNL     1       3.683   4.776  19.171  0.00  0.00    +0.000 A 
ATOM      7  C   UNL     1       2.859   4.898  20.264  0.00  0.00    +0.000 A 
ATOM      8  N   UNL     1       2.044   5.940  20.458  0.00  0.00    +0.000 NA
ATOM      9  C   UNL     1       2.100   6.938  19.569  0.00  0.00    +0.000 A 
ATOM     10  C   UNL     1       1.428   8.093  19.917  0.00  0.00    +0.000 A 
ENDROOT
BRANCH   5  11
ATOM     11  N   UNL     1       4.296   5.468  16.900  0.00  0.00    +0.000 N 
ATOM     12  H   UNL     1       3.811   5.913  16.123  0.00  0.00    +0.000 HD
BRANCH  11  13
ATOM     13  C   UNL     1       4.515   4.034  16.655  0.00  0.00    +0.000 C 
BRANCH  13  14
ATOM     14  C   UNL     1       5.748   3.727  15.829  0.00  0.00    +0.000 C 
BRANCH  14  15
ATOM     15  C   UNL     1       6.710   4.917  15.977  0.00  0.00    +0.000 C 
BRANCH  15  16
ATOM     16  N   UNL     1       7.704   4.639  17.005  0.00  0.00    +0.000 NA
ATOM     17  H   UNL     1       8.622   4.955  16.697  0.00  0.00    +0.000 HD
BRANCH  16  18
ATOM     18  C   UNL     1       7.394   5.327  18.259  0.00  0.00    +0.000 C 
BRANCH  18  19
ATOM     19  C   UNL     1       7.695   6.771  18.090  0.00  0.00    +0.000 A 
ATOM     20  C   UNL     1       7.219   7.739  17.230  0.00  0.00    +0.000 A 
ATOM     21  C   UNL     1       7.815   8.957  17.635  0.00  0.00    +0.000 A 
ATOM     22  C   UNL     1       8.626   8.652  18.702  0.00  0.00    +0.000 A 
ATOM     23  O   UNL     1       8.565   7.325  18.985  0.00  0.00    +0.000 OA
ENDBRANCH  18  19
ENDBRANCH  16  18
ENDBRANCH  15  16
ENDBRANCH  14  15
ENDBRANCH  13  14
ENDBRANCH  11  13
ENDBRANCH   5  11
BRANCH   1  24
ATOM     24  C   UNL     1       0.883  10.536  19.671  0.00  0.00    +0.000 C 
BRANCH  24  28
ATOM     25  C   UNL     1      -3.110  11.436  18.306  0.00  0.00    +0.000 A 
ATOM     26  C   UNL     1      -2.361  10.459  17.657  0.00  0.00    +0.000 A 
ATOM     27  C   UNL     1      -1.063  10.175  18.086  0.00  0.00    +0.000 A 
ATOM     28  C   UNL     1      -0.498  10.871  19.166  0.00  0.00    +0.000 A 
ATOM     29  C   UNL     1      -1.264  11.852  19.810  0.00  0.00    +0.000 A 
ATOM     30  C   UNL     1      -2.562  12.131  19.382  0.00  0.00    +0.000 A 
ENDBRANCH  24  28
ENDBRANCH   1  24
TORSDOF 9
ENDMDL
MODEL 9
REMARK VINA RESULT:      -7.2      4.762      8.752
REMARK  Name = 
REMARK  9 active torsions:
REMARK  status: ('A' for Active; 'I' for Inactive)
REMARK    1  A    between atoms: C_4  and  C_5
REMARK    2  A    between atoms: C_5  and  C_6
REMARK    3  A    between atoms: C_10  and  N_11
REMARK    4  A    between atoms: N_11  and  C_12
REMARK    5  A    between atoms: C_12  and  C_13
REMARK    6  A    between atoms: C_13  and  C_14
REMARK    7  A    between atoms: C_14  and  N_15
REMARK    8  A    between atoms: N_15  and  C_16
REMARK    9  A    between atoms: C_16  and  C_17
REMARK                            x       y       z     vdW  Elec       q    Type
REMARK                         _______ _______ _______ _____ _____    ______ ____
ROOT
ATOM      1  C   UNL     1       6.496   4.880  14.431  0.00  0.00    +0.000 A 
ATOM      2  C   UNL     1       5.422   4.137  14.924  0.00  0.00    +0.000 A 
ATOM      3  C   UNL     1       5.137   4.139  16.298  0.00  0.00    +0.000 A 
ATOM      4  C   UNL     1       5.931   4.880  17.212  0.00  0.00    +0.000 A 
ATOM      5  C   UNL     1       5.801   4.864  18.630  0.00  0.00    +0.000 A 
ATOM      6  C   UNL     1       6.826   5.460  19.377  0.00  0.00    +0.000 A 
ATOM      7  C   UNL     1       7.740   6.272  18.751  0.00  0.00    +0.000 A 
ATOM      8  N   UNL     1       7.802   6.423  17.424  0.00  0.00    +0.000 NA
ATOM      9  C   UNL     1       6.971   5.682  16.682  0.00  0.00    +0.000 A 
ATOM     10  C   UNL     1       7.215   5.682  15.322  0.00  0.00    +0.000 A 
ENDROOT
BRANCH   5  11
ATOM     11  N   UNL     1       4.739   4.174  19.299  0.00  0.00    +0.000 N 
ATOM     12  H   UNL     1       4.429   4.713  20.106  0.00  0.00    +0.000 HD
BRANCH  11  13
ATOM     13  C   UNL     1       5.128   2.806  19.675  0.00  0.00    +0.000 C 
BRANCH  13  14
ATOM     14  C   UNL     1       3.960   1.863  19.879  0.00  0.00    +0.000 C 
BRANCH  14  15
ATOM     15  C   UNL     1       3.236   1.727  18.529  0.00  0.00    +0.000 C 
BRANCH  15  16
ATOM     16  N   UNL     1       1.797   1.849  18.713  0.00  0.00    +0.000 NA
ATOM     17  H   UNL     1       1.572   1.866  19.707  0.00  0.00    +0.000 HD
BRANCH  16  18
ATOM     18  C   UNL     1       1.277   3.081  18.119  0.00  0.00    +0.000 C 
BRANCH  18  19
ATOM     19  C   UNL     1       1.441   4.183  19.101  0.00  0.00    +0.000 A 
ATOM     20  C   UNL     1       1.145   4.301  20.443  0.00  0.00    +0.000 A 
ATOM     21  C   UNL     1       1.638   5.564  20.848  0.00  0.00    +0.000 A 
ATOM     22  C   UNL     1       2.187   6.140  19.727  0.00  0.00    +0.000 A 
ATOM     23  O   UNL     1       2.068   5.312  18.658  0.00  0.00    +0.000 OA
ENDBRANCH  18  19
ENDBRANCH  16  18
ENDBRANCH  15  16
ENDBRANCH  14  15
ENDBRANCH  13  14
ENDBRANCH  11  13
ENDBRANCH   5  11
BRANCH   1  24
ATOM     24  C   UNL     1       6.940   4.782  12.990  0.00  0.00    +0.000 C 
BRANCH  24  28
ATOM     25  C   UNL     1       5.751   1.254  10.810  0.00  0.00    +0.000 A 
ATOM     26  C   UNL     1       4.785   2.151  11.254  0.00  0.00    +0.000 A 
ATOM     27  C   UNL     1       5.163   3.286  11.973  0.00  0.00    +0.000 A 
ATOM     28  C   UNL     1       6.515   3.533  12.261  0.00  0.00    +0.000 A 
ATOM     29  C   UNL     1       7.478   2.621  11.808  0.00  0.00    +0.000 A 
ATOM     30  C   UNL     1       7.096   1.489  11.086  0.00  0.00    +0.000 A 
ENDBRANCH  24  28
ENDBRANCH   1  24
TORSDOF 9
ENDMDL
