MODEL 1
REMARK VINA RESULT:      -6.1      0.000      0.000
REMARK  Name = 
REMARK  4 active torsions:
REMARK  status: ('A' for Active; 'I' for Inactive)
REMARK    1  A    between atoms: C_1  and  C_2
REMARK    2  A    between atoms: C_2  and  N_3
REMARK    3  A    between atoms: N_3  and  C_4
REMARK    4  A    between atoms: C_4  and  C_5
REMARK                            x       y       z     vdW  Elec       q    Type
REMARK                         _______ _______ _______ _____ _____    ______ ____
ROOT
ATOM      1  C   UNL     1       3.143   5.218  18.632  0.00  0.00    +0.000 C 
ATOM      2  C   UNL     1       2.880   5.100  20.170  0.00  0.00    +0.000 C 
ATOM      3  C   UNL     1       1.444   4.639  20.517  0.00  0.00    +0.000 C 
ATOM      4  C   UNL     1       1.125   3.296  19.840  0.00  0.00    +0.000 C 
ATOM      5  C   UNL     1       1.307   3.392  18.325  0.00  0.00    +0.000 C 
ATOM      6  C   UNL     1       2.706   3.870  18.054  0.00  0.00    +0.000 C 
ATOM      7  O   UNL     1       3.476   3.148  17.436  0.00  0.00    +0.000 OA
ENDROOT
BRANCH   1   8
ATOM      8  C   UNL     1       4.636   5.511  18.391  0.00  0.00    +0.000 A 
ATOM      9  C   UNL     1       5.699   5.244  19.264  0.00  0.00    +0.000 A 
ATOM     10  C   UNL     1       6.952   5.621  18.765  0.00  0.00    +0.000 A 
ATOM     11  C   UNL     1       6.904   6.185  17.500  0.00  0.00    +0.000 A 
ATOM     12  S   UNL     1       5.302   6.232  17.011  0.00  0.00    +0.000 S 
ENDBRANCH   1   8
BRANCH   1  13
ATOM     13  N   UNL     1       2.309   6.336  18.105  0.00  0.00    +0.000 NA
ATOM     14  H   UNL     1       2.412   6.473  17.079  0.00  0.00    +0.000 HD
BRANCH  13  16
ATOM     15  C   UNL     1       2.172   8.830  17.806  0.00  0.00    +0.000 C 
ATOM     16  C   UNL     1       2.378   7.653  18.762  0.00  0.00    +0.000 C 
ENDBRANCH  13  16
ENDBRANCH   1  13
TORSDOF 3
ENDMDL
MODEL 2
REMARK VINA RESULT:      -6.1      2.559      5.231
REMARK  Name = 
REMARK  4 active torsions:
REMARK  status: ('A' for Active; 'I' for Inactive)
REMARK    1  A    between atoms: C_1  and  C_2
REMARK    2  A    between atoms: C_2  and  N_3
REMARK    3  A    between atoms: N_3  and  C_4
REMARK    4  A    between atoms: C_4  and  C_5
REMARK                            x       y       z     vdW  Elec       q    Type
REMARK                         _______ _______ _______ _____ _____    ______ ____
ROOT
ATOM      1  C   UNL     1       5.767   5.152  17.916  0.00  0.00    +0.000 C 
ATOM      2  C   UNL     1       6.482   5.244  19.305  0.00  0.00    +0.000 C 
ATOM      3  C   UNL     1       7.937   5.760  19.217  0.00  0.00    +0.000 C 
ATOM      4  C   UNL     1       7.989   7.132  18.525  0.00  0.00    +0.000 C 
ATOM      5  C   UNL     1       7.357   7.064  17.133  0.00  0.00    +0.000 C 
ATOM      6  C   UNL     1       5.960   6.531  17.282  0.00  0.00    +0.000 C 
ATOM      7  O   UNL     1       5.013   7.233  16.954  0.00  0.00    +0.000 OA
ENDROOT
BRANCH   1   8
ATOM      8  C   UNL     1       4.283   4.798  18.128  0.00  0.00    +0.000 A 
ATOM      9  C   UNL     1       3.454   4.079  17.257  0.00  0.00    +0.000 A 
ATOM     10  C   UNL     1       2.145   3.911  17.726  0.00  0.00    +0.000 A 
ATOM     11  C   UNL     1       1.917   4.486  18.966  0.00  0.00    +0.000 A 
ATOM     12  S   UNL     1       3.338   5.218  19.470  0.00  0.00    +0.000 S 
ENDBRANCH   1   8
BRANCH   1  13
ATOM     13  N   UNL     1       6.440   4.085  17.120  0.00  0.00    +0.000 NA
ATOM     14  H   UNL     1       7.199   3.603  17.643  0.00  0.00    +0.000 HD
BRANCH  13  16
ATOM     15  C   UNL     1       6.024   3.897  14.646  0.00  0.00    +0.000 C 
ATOM     16  C   UNL     1       6.933   4.403  15.768  0.00  0.00    +0.000 C 
ENDBRANCH  13  16
ENDBRANCH   1  13
TORSDOF 3
ENDMDL
MODEL 3
REMARK VINA RESULT:      -6.0      1.796      2.127
REMARK  Name = 
REMARK  4 active torsions:
REMARK  status: ('A' for Active; 'I' for Inactive)
REMARK    1  A    between atoms: C_1  and  C_2
REMARK    2  A    between atoms: C_2  and  N_3
REMARK    3  A    between atoms: N_3  and  C_4
REMARK    4  A    between atoms: C_4  and  C_5
REMARK                            x       y       z     vdW  Elec       q    Type
REMARK                         _______ _______ _______ _____ _____    ______ ____
ROOT
ATOM      1  C   UNL     1       3.166   4.586  19.032  0.00  0.00    +0.000 C 
ATOM      2  C   UNL     1       3.725   3.368  19.840  0.00  0.00    +0.000 C 
ATOM      3  C   UNL     1       2.843   2.972  21.048  0.00  0.00    +0.000 C 
ATOM      4  C   UNL     1       1.405   2.668  20.597  0.00  0.00    +0.000 C 
ATOM      5  C   UNL     1       0.801   3.865  19.860  0.00  0.00    +0.000 C 
ATOM      6  C   UNL     1       1.713   4.218  18.719  0.00  0.00    +0.000 C 
ATOM      7  O   UNL     1       1.296   4.141  17.572  0.00  0.00    +0.000 OA
ENDROOT
BRANCH   1   8
ATOM      8  C   UNL     1       4.014   4.788  17.762  0.00  0.00    +0.000 A 
ATOM      9  C   UNL     1       4.503   3.791  16.907  0.00  0.00    +0.000 A 
ATOM     10  C   UNL     1       5.243   4.283  15.825  0.00  0.00    +0.000 A 
ATOM     11  C   UNL     1       5.350   5.664  15.802  0.00  0.00    +0.000 A 
ATOM     12  S   UNL     1       4.540   6.272  17.138  0.00  0.00    +0.000 S 
ENDBRANCH   1   8
BRANCH   1  13
ATOM     13  N   UNL     1       3.248   5.795  19.901  0.00  0.00    +0.000 NA
ATOM     14  H   UNL     1       3.201   5.571  20.916  0.00  0.00    +0.000 HD
BRANCH  13  16
ATOM     15  C   UNL     1       1.588   7.422  20.861  0.00  0.00    +0.000 C 
ATOM     16  C   UNL     1       2.354   6.934  19.631  0.00  0.00    +0.000 C 
ENDBRANCH  13  16
ENDBRANCH   1  13
TORSDOF 3
ENDMDL
MODEL 4
REMARK VINA RESULT:      -6.0      1.213      1.381
REMARK  Name = 
REMARK  4 active torsions:
REMARK  status: ('A' for Active; 'I' for Inactive)
REMARK    1  A    between atoms: C_1  and  C_2
REMARK    2  A    between atoms: C_2  and  N_3
REMARK    3  A    between atoms: N_3  and  C_4
REMARK    4  A    between atoms: C_4  and  C_5
REMARK                            x       y       z     vdW  Elec       q    Type
REMARK                         _______ _______ _______ _____ _____    ______ ____
ROOT
ATOM      1  C   UNL     1       3.181   4.783  18.450  0.00  0.00    +0.000 C 
ATOM      2  C   UNL     1       3.222   5.018  19.997  0.00  0.00    +0.000 C 
ATOM      3  C   UNL     1       1.831   4.947  20.669  0.00  0.00    +0.000 C 
ATOM      4  C   UNL     1       1.151   3.599  20.375  0.00  0.00    +0.000 C 
ATOM      5  C   UNL     1       1.033   3.365  18.868  0.00  0.00    +0.000 C 
ATOM      6  C   UNL     1       2.408   3.474  18.271  0.00  0.00    +0.000 C 
ATOM      7  O   UNL     1       2.899   2.500  17.716  0.00  0.00    +0.000 OA
ENDROOT
BRANCH   1   8
ATOM      8  C   UNL     1       4.621   4.701  17.908  0.00  0.00    +0.000 A 
ATOM      9  C   UNL     1       5.012   4.457  16.585  0.00  0.00    +0.000 A 
ATOM     10  C   UNL     1       6.399   4.445  16.395  0.00  0.00    +0.000 A 
ATOM     11  C   UNL     1       7.125   4.678  17.552  0.00  0.00    +0.000 A 
ATOM     12  S   UNL     1       6.041   4.882  18.815  0.00  0.00    +0.000 S 
ENDBRANCH   1   8
BRANCH   1  13
ATOM     13  N   UNL     1       2.463   5.932  17.827  0.00  0.00    +0.000 NA
ATOM     14  H   UNL     1       2.226   5.770  16.827  0.00  0.00    +0.000 HD
BRANCH  13  16
ATOM     15  C   UNL     1       1.976   8.397  17.926  0.00  0.00    +0.000 C 
ATOM     16  C   UNL     1       3.027   7.287  17.961  0.00  0.00    +0.000 C 
ENDBRANCH  13  16
ENDBRANCH   1  13
TORSDOF 3
ENDMDL
MODEL 5
REMARK VINA RESULT:      -6.0      1.793      4.322
REMARK  Name = 
REMARK  4 active torsions:
REMARK  status: ('A' for Active; 'I' for Inactive)
REMARK    1  A    between atoms: C_1  and  C_2
REMARK    2  A    between atoms: C_2  and  N_3
REMARK    3  A    between atoms: N_3  and  C_4
REMARK    4  A    between atoms: C_4  and  C_5
REMARK                            x       y       z     vdW  Elec       q    Type
REMARK                         _______ _______ _______ _____ _____    ______ ____
ROOT
ATOM      1  C   UNL     1       3.731   5.208  18.953  0.00  0.00    +0.000 C 
ATOM      2  C   UNL     1       3.797   5.725  17.477  0.00  0.00    +0.000 C 
ATOM      3  C   UNL     1       5.008   6.647  17.200  0.00  0.00    +0.000 C 
ATOM      4  C   UNL     1       6.326   5.938  17.552  0.00  0.00    +0.000 C 
ATOM      5  C   UNL     1       6.324   5.476  19.011  0.00  0.00    +0.000 C 
ATOM      6  C   UNL     1       5.114   4.611  19.223  0.00  0.00    +0.000 C 
ATOM      7  O   UNL     1       5.264   3.440  19.543  0.00  0.00    +0.000 OA
ENDROOT
BRANCH   1   8
ATOM      8  C   UNL     1       2.600   4.169  19.079  0.00  0.00    +0.000 A 
ATOM      9  C   UNL     1       1.808   3.918  20.207  0.00  0.00    +0.000 A 
ATOM     10  C   UNL     1       0.853   2.911  20.018  0.00  0.00    +0.000 A 
ATOM     11  C   UNL     1       0.870   2.354  18.750  0.00  0.00    +0.000 A 
ATOM     12  S   UNL     1       2.086   3.102  17.869  0.00  0.00    +0.000 S 
ENDBRANCH   1   8
BRANCH   1  13
ATOM     13  N   UNL     1       3.456   6.375  19.840  0.00  0.00    +0.000 NA
ATOM     14  H   UNL     1       3.370   6.114  20.843  0.00  0.00    +0.000 HD
BRANCH  13  16
ATOM     15  C   UNL     1       1.537   7.751  20.708  0.00  0.00    +0.000 C 
ATOM     16  C   UNL     1       2.353   7.290  19.499  0.00  0.00    +0.000 C 
ENDBRANCH  13  16
ENDBRANCH   1  13
TORSDOF 3
ENDMDL
MODEL 6
REMARK VINA RESULT:      -5.9      1.857      2.142
REMARK  Name = 
REMARK  4 active torsions:
REMARK  status: ('A' for Active; 'I' for Inactive)
REMARK    1  A    between atoms: C_1  and  C_2
REMARK    2  A    between atoms: C_2  and  N_3
REMARK    3  A    between atoms: N_3  and  C_4
REMARK    4  A    between atoms: C_4  and  C_5
REMARK                            x       y       z     vdW  Elec       q    Type
REMARK                         _______ _______ _______ _____ _____    ______ ____
ROOT
ATOM      1  C   UNL     1       3.158   4.706  19.006  0.00  0.00    +0.000 C 
ATOM      2  C   UNL     1       3.787   3.474  19.736  0.00  0.00    +0.000 C 
ATOM      3  C   UNL     1       2.922   2.940  20.902  0.00  0.00    +0.000 C 
ATOM      4  C   UNL     1       1.510   2.578  20.412  0.00  0.00    +0.000 C 
ATOM      5  C   UNL     1       0.837   3.781  19.750  0.00  0.00    +0.000 C 
ATOM      6  C   UNL     1       1.736   4.269  18.649  0.00  0.00    +0.000 C 
ATOM      7  O   UNL     1       1.334   4.245  17.494  0.00  0.00    +0.000 OA
ENDROOT
BRANCH   1   8
ATOM      8  C   UNL     1       4.003   5.049  17.764  0.00  0.00    +0.000 A 
ATOM      9  C   UNL     1       4.285   6.326  17.261  0.00  0.00    +0.000 A 
ATOM     10  C   UNL     1       5.088   6.321  16.113  0.00  0.00    +0.000 A 
ATOM     11  C   UNL     1       5.454   5.053  15.692  0.00  0.00    +0.000 A 
ATOM     12  S   UNL     1       4.764   3.937  16.737  0.00  0.00    +0.000 S 
ENDBRANCH   1   8
BRANCH   1  13
ATOM     13  N   UNL     1       3.156   5.855  19.957  0.00  0.00    +0.000 NA
ATOM     14  H   UNL     1       3.015   5.565  20.946  0.00  0.00    +0.000 HD
BRANCH  13  16
ATOM     15  C   UNL     1       1.520   7.514  20.905  0.00  0.00    +0.000 C 
ATOM     16  C   UNL     1       2.286   7.012  19.680  0.00  0.00    +0.000 C 
ENDBRANCH  13  16
ENDBRANCH   1  13
TORSDOF 3
ENDMDL
MODEL 7
REMARK VINA RESULT:      -5.9      0.848      1.094
REMARK  Name = 
REMARK  4 active torsions:
REMARK  status: ('A' for Active; 'I' for Inactive)
REMARK    1  A    between atoms: C_1  and  C_2
REMARK    2  A    between atoms: C_2  and  N_3
REMARK    3  A    between atoms: N_3  and  C_4
REMARK    4  A    between atoms: C_4  and  C_5
REMARK                            x       y       z     vdW  Elec       q    Type
REMARK                         _______ _______ _______ _____ _____    ______ ____
ROOT
ATOM      1  C   UNL     1       3.130   5.493  18.490  0.00  0.00    +0.000 C 
ATOM      2  C   UNL     1       2.930   5.355  20.036  0.00  0.00    +0.000 C 
ATOM      3  C   UNL     1       1.514   4.874  20.435  0.00  0.00    +0.000 C 
ATOM      4  C   UNL     1       1.182   3.535  19.756  0.00  0.00    +0.000 C 
ATOM      5  C   UNL     1       1.303   3.650  18.235  0.00  0.00    +0.000 C 
ATOM      6  C   UNL     1       2.685   4.146  17.914  0.00  0.00    +0.000 C 
ATOM      7  O   UNL     1       3.438   3.439  17.259  0.00  0.00    +0.000 OA
ENDROOT
BRANCH   1   8
ATOM      8  C   UNL     1       4.609   5.805  18.194  0.00  0.00    +0.000 A 
ATOM      9  C   UNL     1       5.113   6.574  17.137  0.00  0.00    +0.000 A 
ATOM     10  C   UNL     1       6.509   6.685  17.129  0.00  0.00    +0.000 A 
ATOM     11  C   UNL     1       7.129   6.015  18.171  0.00  0.00    +0.000 A 
ATOM     12  S   UNL     1       5.942   5.269  19.091  0.00  0.00    +0.000 S 
ENDBRANCH   1   8
BRANCH   1  13
ATOM     13  N   UNL     1       2.264   6.607  18.009  0.00  0.00    +0.000 NA
ATOM     14  H   UNL     1       2.341   6.771  16.985  0.00  0.00    +0.000 HD
BRANCH  13  16
ATOM     15  C   UNL     1       1.764   9.068  17.871  0.00  0.00    +0.000 C 
ATOM     16  C   UNL     1       2.323   7.909  18.697  0.00  0.00    +0.000 C 
ENDBRANCH  13  16
ENDBRANCH   1  13
TORSDOF 3
ENDMDL
MODEL 8
REMARK VINA RESULT:      -5.9      1.958      4.385
REMARK  Name = 
REMARK  4 active torsions:
REMARK  status: ('A' for Active; 'I' for Inactive)
REMARK    1  A    between atoms: C_1  and  C_2
REMARK    2  A    between atoms: C_2  and  N_3
REMARK    3  A    between atoms: N_3  and  C_4
REMARK    4  A    between atoms: C_4  and  C_5
REMARK                            x       y       z     vdW  Elec       q    Type
REMARK                         _______ _______ _______ _____ _____    ______ ____
ROOT
ATOM      1  C   UNL     1       3.943   4.827  18.449  0.00  0.00    +0.000 C 
ATOM      2  C   UNL     1       3.912   4.699  16.890  0.00  0.00    +0.000 C 
ATOM      3  C   UNL     1       5.154   5.308  16.196  0.00  0.00    +0.000 C 
ATOM      4  C   UNL     1       6.446   4.673  16.736  0.00  0.00    +0.000 C 
ATOM      5  C   UNL     1       6.543   4.838  18.253  0.00  0.00    +0.000 C 
ATOM      6  C   UNL     1       5.300   4.254  18.865  0.00  0.00    +0.000 C 
ATOM      7  O   UNL     1       5.397   3.301  19.625  0.00  0.00    +0.000 OA
ENDROOT
BRANCH   1   8
ATOM      8  C   UNL     1       2.759   4.043  19.048  0.00  0.00    +0.000 A 
ATOM      9  C   UNL     1       1.859   3.219  18.360  0.00  0.00    +0.000 A 
ATOM     10  C   UNL     1       0.885   2.634  19.179  0.00  0.00    +0.000 A 
ATOM     11  C   UNL     1       0.997   2.978  20.516  0.00  0.00    +0.000 A 
ATOM     12  S   UNL     1       2.296   4.026  20.677  0.00  0.00    +0.000 S 
ENDBRANCH   1   8
BRANCH   1  13
ATOM     13  N   UNL     1       3.829   6.273  18.797  0.00  0.00    +0.000 NA
ATOM     14  H   UNL     1       4.146   6.486  19.764  0.00  0.00    +0.000 HD
BRANCH  13  16
ATOM     15  C   UNL     1       2.692   8.244  17.725  0.00  0.00    +0.000 C 
ATOM     16  C   UNL     1       2.552   6.969  18.558  0.00  0.00    +0.000 C 
ENDBRANCH  13  16
ENDBRANCH   1  13
TORSDOF 3
ENDMDL
MODEL 9
REMARK VINA RESULT:      -5.9      2.286      4.607
REMARK  Name = 
REMARK  4 active torsions:
REMARK  status: ('A' for Active; 'I' for Inactive)
REMARK    1  A    between atoms: C_1  and  C_2
REMARK    2  A    between atoms: C_2  and  N_3
REMARK    3  A    between atoms: N_3  and  C_4
REMARK    4  A    between atoms: C_4  and  C_5
REMARK                            x       y       z     vdW  Elec       q    Type
REMARK                         _______ _______ _______ _____ _____    ______ ____
ROOT
ATOM      1  C   UNL     1       4.633   4.761  18.118  0.00  0.00    +0.000 C 
ATOM      2  C   UNL     1       4.697   6.259  17.668  0.00  0.00    +0.000 C 
ATOM      3  C   UNL     1       5.639   6.502  16.465  0.00  0.00    +0.000 C 
ATOM      4  C   UNL     1       5.233   5.626  15.268  0.00  0.00    +0.000 C 
ATOM      5  C   UNL     1       5.225   4.146  15.654  0.00  0.00    +0.000 C 
ATOM      6  C   UNL     1       4.317   3.979  16.840  0.00  0.00    +0.000 C 
ATOM      7  O   UNL     1       3.320   3.278  16.737  0.00  0.00    +0.000 OA
ENDROOT
BRANCH   1   8
ATOM      8  C   UNL     1       3.545   4.599  19.197  0.00  0.00    +0.000 A 
ATOM      9  C   UNL     1       2.585   5.546  19.576  0.00  0.00    +0.000 A 
ATOM     10  C   UNL     1       1.722   5.107  20.588  0.00  0.00    +0.000 A 
ATOM     11  C   UNL     1       1.980   3.817  21.023  0.00  0.00    +0.000 A 
ATOM     12  S   UNL     1       3.292   3.229  20.161  0.00  0.00    +0.000 S 
ENDBRANCH   1   8
BRANCH   1  13
ATOM     13  N   UNL     1       5.966   4.388  18.672  0.00  0.00    +0.000 NA
ATOM     14  H   UNL     1       5.976   3.443  19.109  0.00  0.00    +0.000 HD
BRANCH  13  16
ATOM     15  C   UNL     1       8.050   5.731  19.094  0.00  0.00    +0.000 C 
ATOM     16  C   UNL     1       6.655   5.327  19.574  0.00  0.00    +0.000 C 
ENDBRANCH  13  16
ENDBRANCH   1  13
TORSDOF 3
ENDMDL
