MODEL 1
REMARK VINA RESULT:      -7.8      0.000      0.000
REMARK  Name = 
REMARK  9 active torsions:
REMARK  status: ('A' for Active; 'I' for Inactive)
REMARK    1  A    between atoms: C_1  and  C_2
REMARK    2  A    between atoms: C_2  and  C_4
REMARK    3  A    between atoms: C_4  and  C_5
REMARK    4  A    between atoms: C_8  and  C_9
REMARK    5  A    between atoms: C_9  and  C_10
REMARK    6  A    between atoms: C_9  and  C_11
REMARK    7  A    between atoms: N_12  and  S_13
REMARK    8  A    between atoms: S_13  and  C_16
REMARK    9  A    between atoms: C_19  and  C_20
REMARK                            x       y       z     vdW  Elec       q    Type
REMARK                         _______ _______ _______ _____ _____    ______ ____
ROOT
ATOM      1  C   UNL     1       5.186   4.657  19.104  0.00  0.00    +0.000 C 
ATOM      2  O   UNL     1       5.062   3.383  18.452  0.00  0.00    +0.000 OA
ATOM      3  C   UNL     1       3.789   2.819  18.808  0.00  0.00    +0.000 C 
ATOM      4  C   UNL     1       3.193   3.754  19.855  0.00  0.00    +0.000 C 
ATOM      5  N   UNL     1       3.776   5.097  19.450  0.00  0.00    +0.000 NA
ENDROOT
BRANCH   4   6
ATOM      6  C   UNL     1       1.681   3.646  20.080  0.00  0.00    +0.000 C 
ATOM      7  C   UNL     1       0.993   2.657  19.128  0.00  0.00    +0.000 C 
ATOM      8  C   UNL     1       1.377   3.164  21.498  0.00  0.00    +0.000 C 
ENDBRANCH   4   6
BRANCH   5   9
ATOM      9  S   UNL     1       3.002   6.067  18.261  0.00  0.00    +0.000 S 
ATOM     10  O   UNL     1       4.008   6.711  17.451  0.00  0.00    +0.000 OA
ATOM     11  O   UNL     1       1.964   5.256  17.644  0.00  0.00    +0.000 OA
BRANCH   9  12
ATOM     12  C   UNL     1       2.206   7.412  19.122  0.00  0.00    +0.000 A 
ATOM     13  C   UNL     1       1.894   7.273  20.478  0.00  0.00    +0.000 A 
ATOM     14  C   UNL     1       1.119   8.256  21.108  0.00  0.00    +0.000 A 
ATOM     15  C   UNL     1       0.700   9.390  20.404  0.00  0.00    +0.000 A 
ATOM     16  C   UNL     1      -0.214  10.398  21.042  0.00  0.00    +0.000 C 
ATOM     17  C   UNL     1       1.144   9.580  19.090  0.00  0.00    +0.000 A 
ATOM     18  C   UNL     1       1.895   8.593  18.445  0.00  0.00    +0.000 A 
ENDBRANCH   9  12
ENDBRANCH   5   9
BRANCH   1  19
ATOM     19  C   UNL     1       6.048   5.600  18.288  0.00  0.00    +0.000 C 
BRANCH  19  21
ATOM     20  C   UNL     1       7.035   4.727  16.072  0.00  0.00    +0.000 C 
ATOM     21  C   UNL     1       7.150   4.855  17.571  0.00  0.00    +0.000 C 
ATOM     22  O   UNL     1       8.102   4.370  18.185  0.00  0.00    +0.000 OA
ENDBRANCH  19  21
ENDBRANCH   1  19
TORSDOF 5
ENDMDL
MODEL 2
REMARK VINA RESULT:      -7.7      0.384      1.097
REMARK  Name = 
REMARK  9 active torsions:
REMARK  status: ('A' for Active; 'I' for Inactive)
REMARK    1  A    between atoms: C_1  and  C_2
REMARK    2  A    between atoms: C_2  and  C_4
REMARK    3  A    between atoms: C_4  and  C_5
REMARK    4  A    between atoms: C_8  and  C_9
REMARK    5  A    between atoms: C_9  and  C_10
REMARK    6  A    between atoms: C_9  and  C_11
REMARK    7  A    between atoms: N_12  and  S_13
REMARK    8  A    between atoms: S_13  and  C_16
REMARK    9  A    between atoms: C_19  and  C_20
REMARK                            x       y       z     vdW  Elec       q    Type
REMARK                         _______ _______ _______ _____ _____    ______ ____
ROOT
ATOM      1  C   UNL     1       5.364   4.713  19.286  0.00  0.00    +0.000 C 
ATOM      2  O   UNL     1       5.344   3.378  18.754  0.00  0.00    +0.000 OA
ATOM      3  C   UNL     1       4.078   2.784  19.083  0.00  0.00    +0.000 C 
ATOM      4  C   UNL     1       3.369   3.779  19.994  0.00  0.00    +0.000 C 
ATOM      5  N   UNL     1       3.914   5.108  19.499  0.00  0.00    +0.000 NA
ENDROOT
BRANCH   4   6
ATOM      6  C   UNL     1       1.853   3.612  20.134  0.00  0.00    +0.000 C 
ATOM      7  C   UNL     1       1.276   2.511  19.233  0.00  0.00    +0.000 C 
ATOM      8  C   UNL     1       1.477   3.240  21.568  0.00  0.00    +0.000 C 
ENDBRANCH   4   6
BRANCH   5   9
ATOM      9  S   UNL     1       3.177   5.919  18.175  0.00  0.00    +0.000 S 
ATOM     10  O   UNL     1       4.203   6.546  17.377  0.00  0.00    +0.000 OA
ATOM     11  O   UNL     1       2.231   4.996  17.569  0.00  0.00    +0.000 OA
BRANCH   9  12
ATOM     12  C   UNL     1       2.251   7.286  18.850  0.00  0.00    +0.000 A 
ATOM     13  C   UNL     1       1.892   8.352  18.020  0.00  0.00    +0.000 A 
ATOM     14  C   UNL     1       1.317   9.498  18.584  0.00  0.00    +0.000 A 
ATOM     15  C   UNL     1       1.061   9.562  19.959  0.00  0.00    +0.000 A 
ATOM     16  C   UNL     1       0.539  10.823  20.587  0.00  0.00    +0.000 C 
ATOM     17  C   UNL     1       1.294   8.430  20.750  0.00  0.00    +0.000 A 
ATOM     18  C   UNL     1       1.892   7.292  20.200  0.00  0.00    +0.000 A 
ENDBRANCH   9  12
ENDBRANCH   5   9
BRANCH   1  19
ATOM     19  C   UNL     1       6.233   5.620  18.438  0.00  0.00    +0.000 C 
BRANCH  19  21
ATOM     20  C   UNL     1       7.063   4.661  16.193  0.00  0.00    +0.000 C 
ATOM     21  C   UNL     1       7.273   4.829  17.677  0.00  0.00    +0.000 C 
ATOM     22  O   UNL     1       8.250   4.340  18.245  0.00  0.00    +0.000 OA
ENDBRANCH  19  21
ENDBRANCH   1  19
TORSDOF 5
ENDMDL
MODEL 3
REMARK VINA RESULT:      -7.6      1.651      4.407
REMARK  Name = 
REMARK  9 active torsions:
REMARK  status: ('A' for Active; 'I' for Inactive)
REMARK    1  A    between atoms: C_1  and  C_2
REMARK    2  A    between atoms: C_2  and  C_4
REMARK    3  A    between atoms: C_4  and  C_5
REMARK    4  A    between atoms: C_8  and  C_9
REMARK    5  A    between atoms: C_9  and  C_10
REMARK    6  A    between atoms: C_9  and  C_11
REMARK    7  A    between atoms: N_12  and  S_13
REMARK    8  A    between atoms: S_13  and  C_16
REMARK    9  A    between atoms: C_19  and  C_20
REMARK                            x       y       z     vdW  Elec       q    Type
REMARK                         _______ _______ _______ _____ _____    ______ ____
ROOT
ATOM      1  C   UNL     1       2.444   3.960  17.948  0.00  0.00    +0.000 C 
ATOM      2  O   UNL     1       3.312   2.857  18.255  0.00  0.00    +0.000 OA
ATOM      3  C   UNL     1       4.500   2.985  17.458  0.00  0.00    +0.000 C 
ATOM      4  C   UNL     1       4.250   4.157  16.515  0.00  0.00    +0.000 C 
ATOM      5  N   UNL     1       3.324   5.036  17.338  0.00  0.00    +0.000 NA
ENDROOT
BRANCH   4   6
ATOM      6  C   UNL     1       5.489   4.790  15.875  0.00  0.00    +0.000 C 
ATOM      7  C   UNL     1       6.806   4.351  16.532  0.00  0.00    +0.000 C 
ATOM      8  C   UNL     1       5.593   4.407  14.399  0.00  0.00    +0.000 C 
ENDBRANCH   4   6
BRANCH   5   9
ATOM      9  S   UNL     1       3.961   6.177  18.455  0.00  0.00    +0.000 S 
ATOM     10  O   UNL     1       4.136   5.535  19.735  0.00  0.00    +0.000 OA
ATOM     11  O   UNL     1       5.078   6.846  17.806  0.00  0.00    +0.000 OA
BRANCH   9  12
ATOM     12  C   UNL     1       2.688   7.392  18.744  0.00  0.00    +0.000 A 
ATOM     13  C   UNL     1       2.271   8.216  17.694  0.00  0.00    +0.000 A 
ATOM     14  C   UNL     1       1.399   9.280  17.961  0.00  0.00    +0.000 A 
ATOM     15  C   UNL     1       0.909   9.490  19.255  0.00  0.00    +0.000 A 
ATOM     16  C   UNL     1       0.055  10.685  19.570  0.00  0.00    +0.000 C 
ATOM     17  C   UNL     1       1.224   8.568  20.261  0.00  0.00    +0.000 A 
ATOM     18  C   UNL     1       2.114   7.520  20.010  0.00  0.00    +0.000 A 
ENDBRANCH   9  12
ENDBRANCH   5   9
BRANCH   1  19
ATOM     19  C   UNL     1       1.594   4.329  19.147  0.00  0.00    +0.000 C 
BRANCH  19  21
ATOM     20  C   UNL     1       1.286   2.812  21.209  0.00  0.00    +0.000 C 
ATOM     21  C   UNL     1       0.958   3.106  19.767  0.00  0.00    +0.000 C 
ATOM     22  O   UNL     1       0.204   2.377  19.119  0.00  0.00    +0.000 OA
ENDBRANCH  19  21
ENDBRANCH   1  19
TORSDOF 5
ENDMDL
MODEL 4
REMARK VINA RESULT:      -7.3      1.703      4.320
REMARK  Name = 
REMARK  9 active torsions:
REMARK  status: ('A' for Active; 'I' for Inactive)
REMARK    1  A    between atoms: C_1  and  C_2
REMARK    2  A    between atoms: C_2  and  C_4
REMARK    3  A    between atoms: C_4  and  C_5
REMARK    4  A    between atoms: C_8  and  C_9
REMARK    5  A    between atoms: C_9  and  C_10
REMARK    6  A    between atoms: C_9  and  C_11
REMARK    7  A    between atoms: N_12  and  S_13
REMARK    8  A    between atoms: S_13  and  C_16
REMARK    9  A    between atoms: C_19  and  C_20
REMARK                            x       y       z     vdW  Elec       q    Type
REMARK                         _______ _______ _______ _____ _____    ______ ____
ROOT
ATOM      1  C   UNL     1       2.358   3.972  17.783  0.00  0.00    +0.000 C 
ATOM      2  O   UNL     1       3.156   2.805  18.041  0.00  0.00    +0.000 OA
ATOM      3  C   UNL     1       4.402   2.951  17.340  0.00  0.00    +0.000 C 
ATOM      4  C   UNL     1       4.266   4.214  16.497  0.00  0.00    +0.000 C 
ATOM      5  N   UNL     1       3.321   5.057  17.338  0.00  0.00    +0.000 NA
ENDROOT
BRANCH   4   6
ATOM      6  C   UNL     1       5.572   4.845  16.003  0.00  0.00    +0.000 C 
ATOM      7  C   UNL     1       6.823   4.262  16.677  0.00  0.00    +0.000 C 
ATOM      8  C   UNL     1       5.747   4.624  14.501  0.00  0.00    +0.000 C 
ENDBRANCH   4   6
BRANCH   5   9
ATOM      9  S   UNL     1       3.925   6.059  18.597  0.00  0.00    +0.000 S 
ATOM     10  O   UNL     1       3.833   5.348  19.849  0.00  0.00    +0.000 OA
ATOM     11  O   UNL     1       5.197   6.605  18.149  0.00  0.00    +0.000 OA
BRANCH   9  12
ATOM     12  C   UNL     1       2.781   7.415  18.778  0.00  0.00    +0.000 A 
ATOM     13  C   UNL     1       2.149   7.624  20.008  0.00  0.00    +0.000 A 
ATOM     14  C   UNL     1       1.128   8.578  20.102  0.00  0.00    +0.000 A 
ATOM     15  C   UNL     1       0.772   9.350  18.990  0.00  0.00    +0.000 A 
ATOM     16  C   UNL     1      -0.388  10.303  19.054  0.00  0.00    +0.000 C 
ATOM     17  C   UNL     1       1.513   9.228  17.808  0.00  0.00    +0.000 A 
ATOM     18  C   UNL     1       2.516   8.260  17.698  0.00  0.00    +0.000 A 
ENDBRANCH   9  12
ENDBRANCH   5   9
BRANCH   1  19
ATOM     19  C   UNL     1       1.442   4.269  18.953  0.00  0.00    +0.000 C 
BRANCH  19  21
ATOM     20  C   UNL     1       1.318   2.723  21.012  0.00  0.00    +0.000 C 
ATOM     21  C   UNL     1       0.924   2.996  19.582  0.00  0.00    +0.000 C 
ATOM     22  O   UNL     1       0.212   2.212  18.953  0.00  0.00    +0.000 OA
ENDBRANCH  19  21
ENDBRANCH   1  19
TORSDOF 5
ENDMDL
MODEL 5
REMARK VINA RESULT:      -6.8      1.840      5.658
REMARK  Name = 
REMARK  9 active torsions:
REMARK  status: ('A' for Active; 'I' for Inactive)
REMARK    1  A    between atoms: C_1  and  C_2
REMARK    2  A    between atoms: C_2  and  C_4
REMARK    3  A    between atoms: C_4  and  C_5
REMARK    4  A    between atoms: C_8  and  C_9
REMARK    5  A    between atoms: C_9  and  C_10
REMARK    6  A    between atoms: C_9  and  C_11
REMARK    7  A    between atoms: N_12  and  S_13
REMARK    8  A    between atoms: S_13  and  C_16
REMARK    9  A    between atoms: C_19  and  C_20
REMARK                            x       y       z     vdW  Elec       q    Type
REMARK                         _______ _______ _______ _____ _____    ______ ____
ROOT
ATOM      1  C   UNL     1       2.393   6.069  18.823  0.00  0.00    +0.000 C 
ATOM      2  O   UNL     1       1.988   6.334  20.176  0.00  0.00    +0.000 OA
ATOM      3  C   UNL     1       1.777   5.075  20.835  0.00  0.00    +0.000 C 
ATOM      4  C   UNL     1       1.922   4.006  19.758  0.00  0.00    +0.000 C 
ATOM      5  N   UNL     1       2.920   4.646  18.808  0.00  0.00    +0.000 NA
ENDROOT
BRANCH   4   6
ATOM      6  C   UNL     1       2.185   2.579  20.249  0.00  0.00    +0.000 C 
ATOM      7  C   UNL     1       1.649   2.313  21.663  0.00  0.00    +0.000 C 
ATOM      8  C   UNL     1       1.513   1.557  19.332  0.00  0.00    +0.000 C 
ENDBRANCH   4   6
BRANCH   5   9
ATOM      9  S   UNL     1       4.610   4.490  19.076  0.00  0.00    +0.000 S 
ATOM     10  O   UNL     1       5.106   5.707  19.672  0.00  0.00    +0.000 OA
ATOM     11  O   UNL     1       4.834   3.206  19.722  0.00  0.00    +0.000 OA
BRANCH   9  12
ATOM     12  C   UNL     1       5.390   4.439  17.473  0.00  0.00    +0.000 A 
ATOM     13  C   UNL     1       6.766   4.668  17.368  0.00  0.00    +0.000 A 
ATOM     14  C   UNL     1       7.345   4.797  16.099  0.00  0.00    +0.000 A 
ATOM     15  C   UNL     1       6.568   4.651  14.944  0.00  0.00    +0.000 A 
ATOM     16  C   UNL     1       7.160   4.887  13.583  0.00  0.00    +0.000 C 
ATOM     17  C   UNL     1       5.224   4.279  15.069  0.00  0.00    +0.000 A 
ATOM     18  C   UNL     1       4.632   4.174  16.330  0.00  0.00    +0.000 A 
ENDBRANCH   9  12
ENDBRANCH   5   9
BRANCH   1  19
ATOM     19  C   UNL     1       3.297   7.169  18.304  0.00  0.00    +0.000 C 
BRANCH  19  21
ATOM     20  C   UNL     1       1.596   8.905  19.164  0.00  0.00    +0.000 C 
ATOM     21  C   UNL     1       2.526   8.448  18.069  0.00  0.00    +0.000 C 
ATOM     22  O   UNL     1       2.650   9.089  17.024  0.00  0.00    +0.000 OA
ENDBRANCH  19  21
ENDBRANCH   1  19
TORSDOF 5
ENDMDL
MODEL 6
REMARK VINA RESULT:      -6.8      2.023      6.224
REMARK  Name = 
REMARK  9 active torsions:
REMARK  status: ('A' for Active; 'I' for Inactive)
REMARK    1  A    between atoms: C_1  and  C_2
REMARK    2  A    between atoms: C_2  and  C_4
REMARK    3  A    between atoms: C_4  and  C_5
REMARK    4  A    between atoms: C_8  and  C_9
REMARK    5  A    between atoms: C_9  and  C_10
REMARK    6  A    between atoms: C_9  and  C_11
REMARK    7  A    between atoms: N_12  and  S_13
REMARK    8  A    between atoms: S_13  and  C_16
REMARK    9  A    between atoms: C_19  and  C_20
REMARK                            x       y       z     vdW  Elec       q    Type
REMARK                         _______ _______ _______ _____ _____    ______ ____
ROOT
ATOM      1  C   UNL     1       2.598   6.407  18.487  0.00  0.00    +0.000 C 
ATOM      2  O   UNL     1       2.641   6.195  19.907  0.00  0.00    +0.000 OA
ATOM      3  C   UNL     1       3.069   4.845  20.146  0.00  0.00    +0.000 C 
ATOM      4  C   UNL     1       3.137   4.176  18.778  0.00  0.00    +0.000 C 
ATOM      5  N   UNL     1       3.488   5.344  17.871  0.00  0.00    +0.000 NA
ENDROOT
BRANCH   4   6
ATOM      6  C   UNL     1       3.976   2.897  18.688  0.00  0.00    +0.000 C 
ATOM      7  C   UNL     1       4.343   2.312  20.059  0.00  0.00    +0.000 C 
ATOM      8  C   UNL     1       3.216   1.802  17.939  0.00  0.00    +0.000 C 
ENDBRANCH   4   6
BRANCH   5   9
ATOM      9  S   UNL     1       5.126   5.809  17.634  0.00  0.00    +0.000 S 
ATOM     10  O   UNL     1       5.177   7.224  17.357  0.00  0.00    +0.000 OA
ATOM     11  O   UNL     1       5.903   5.241  18.725  0.00  0.00    +0.000 OA
BRANCH   9  12
ATOM     12  C   UNL     1       5.672   5.045  16.118  0.00  0.00    +0.000 A 
ATOM     13  C   UNL     1       6.974   5.272  15.662  0.00  0.00    +0.000 A 
ATOM     14  C   UNL     1       7.346   4.814  14.391  0.00  0.00    +0.000 A 
ATOM     15  C   UNL     1       6.441   4.096  13.601  0.00  0.00    +0.000 A 
ATOM     16  C   UNL     1       6.798   3.689  12.199  0.00  0.00    +0.000 C 
ATOM     17  C   UNL     1       5.192   3.755  14.134  0.00  0.00    +0.000 A 
ATOM     18  C   UNL     1       4.803   4.230  15.390  0.00  0.00    +0.000 A 
ENDBRANCH   9  12
ENDBRANCH   5   9
BRANCH   1  19
ATOM     19  C   UNL     1       2.881   7.857  18.148  0.00  0.00    +0.000 C 
BRANCH  19  21
ATOM     20  C   UNL     1       1.377   9.941  17.934  0.00  0.00    +0.000 C 
ATOM     21  C   UNL     1       1.853   8.776  18.767  0.00  0.00    +0.000 C 
ATOM     22  O   UNL     1       1.423   8.585  19.906  0.00  0.00    +0.000 OA
ENDBRANCH  19  21
ENDBRANCH   1  19
TORSDOF 5
ENDMDL
MODEL 7
REMARK VINA RESULT:      -6.7      2.467      5.429
REMARK  Name = 
REMARK  9 active torsions:
REMARK  status: ('A' for Active; 'I' for Inactive)
REMARK    1  A    between atoms: C_1  and  C_2
REMARK    2  A    between atoms: C_2  and  C_4
REMARK    3  A    between atoms: C_4  and  C_5
REMARK    4  A    between atoms: C_8  and  C_9
REMARK    5  A    between atoms: C_9  and  C_10
REMARK    6  A    between atoms: C_9  and  C_11
REMARK    7  A    between atoms: N_12  and  S_13
REMARK    8  A    between atoms: S_13  and  C_16
REMARK    9  A    between atoms: C_19  and  C_20
REMARK                            x       y       z     vdW  Elec       q    Type
REMARK                         _______ _______ _______ _____ _____    ______ ____
ROOT
ATOM      1  C   UNL     1       2.783   6.160  18.896  0.00  0.00    +0.000 C 
ATOM      2  O   UNL     1       2.393   6.411  20.256  0.00  0.00    +0.000 OA
ATOM      3  C   UNL     1       1.875   5.188  20.806  0.00  0.00    +0.000 C 
ATOM      4  C   UNL     1       1.819   4.197  19.649  0.00  0.00    +0.000 C 
ATOM      5  N   UNL     1       2.974   4.660  18.777  0.00  0.00    +0.000 NA
ENDROOT
BRANCH   4   6
ATOM      6  C   UNL     1       1.731   2.715  20.028  0.00  0.00    +0.000 C 
ATOM      7  C   UNL     1       1.357   2.484  21.499  0.00  0.00    +0.000 C 
ATOM      8  C   UNL     1       0.666   2.004  19.194  0.00  0.00    +0.000 C 
ENDBRANCH   4   6
BRANCH   5   9
ATOM      9  S   UNL     1       4.573   4.101  19.072  0.00  0.00    +0.000 S 
ATOM     10  O   UNL     1       5.260   5.059  19.904  0.00  0.00    +0.000 OA
ATOM     11  O   UNL     1       4.482   2.706  19.472  0.00  0.00    +0.000 OA
BRANCH   9  12
ATOM     12  C   UNL     1       5.444   4.168  17.517  0.00  0.00    +0.000 A 
ATOM     13  C   UNL     1       6.766   4.621  17.487  0.00  0.00    +0.000 A 
ATOM     14  C   UNL     1       7.391   4.835  16.251  0.00  0.00    +0.000 A 
ATOM     15  C   UNL     1       6.717   4.556  15.056  0.00  0.00    +0.000 A 
ATOM     16  C   UNL     1       7.341   4.877  13.727  0.00  0.00    +0.000 C 
ATOM     17  C   UNL     1       5.447   3.968  15.110  0.00  0.00    +0.000 A 
ATOM     18  C   UNL     1       4.807   3.775  16.337  0.00  0.00    +0.000 A 
ENDBRANCH   9  12
ENDBRANCH   5   9
BRANCH   1  19
ATOM     19  C   UNL     1       3.934   7.060  18.490  0.00  0.00    +0.000 C 
BRANCH  19  21
ATOM     20  C   UNL     1       4.552   7.348  16.004  0.00  0.00    +0.000 C 
ATOM     21  C   UNL     1       3.665   7.730  17.162  0.00  0.00    +0.000 C 
ATOM     22  O   UNL     1       2.760   8.556  17.031  0.00  0.00    +0.000 OA
ENDBRANCH  19  21
ENDBRANCH   1  19
TORSDOF 5
ENDMDL
MODEL 8
REMARK VINA RESULT:      -6.7      2.741      4.666
REMARK  Name = 
REMARK  9 active torsions:
REMARK  status: ('A' for Active; 'I' for Inactive)
REMARK    1  A    between atoms: C_1  and  C_2
REMARK    2  A    between atoms: C_2  and  C_4
REMARK    3  A    between atoms: C_4  and  C_5
REMARK    4  A    between atoms: C_8  and  C_9
REMARK    5  A    between atoms: C_9  and  C_10
REMARK    6  A    between atoms: C_9  and  C_11
REMARK    7  A    between atoms: N_12  and  S_13
REMARK    8  A    between atoms: S_13  and  C_16
REMARK    9  A    between atoms: C_19  and  C_20
REMARK                            x       y       z     vdW  Elec       q    Type
REMARK                         _______ _______ _______ _____ _____    ______ ____
ROOT
ATOM      1  C   UNL     1       6.100   4.831  14.705  0.00  0.00    +0.000 C 
ATOM      2  O   UNL     1       7.361   4.261  15.090  0.00  0.00    +0.000 OA
ATOM      3  C   UNL     1       7.856   4.992  16.223  0.00  0.00    +0.000 C 
ATOM      4  C   UNL     1       6.896   6.160  16.423  0.00  0.00    +0.000 C 
ATOM      5  N   UNL     1       5.584   5.583  15.918  0.00  0.00    +0.000 NA
ENDROOT
BRANCH   4   6
ATOM      6  C   UNL     1       6.922   6.833  17.799  0.00  0.00    +0.000 C 
ATOM      7  C   UNL     1       7.663   6.012  18.865  0.00  0.00    +0.000 C 
ATOM      8  C   UNL     1       7.629   8.187  17.728  0.00  0.00    +0.000 C 
ENDBRANCH   4   6
BRANCH   5   9
ATOM      9  S   UNL     1       4.567   4.674  16.962  0.00  0.00    +0.000 S 
ATOM     10  O   UNL     1       3.508   4.077  16.184  0.00  0.00    +0.000 OA
ATOM     11  O   UNL     1       5.424   3.849  17.799  0.00  0.00    +0.000 OA
BRANCH   9  12
ATOM     12  C   UNL     1       3.729   5.840  18.020  0.00  0.00    +0.000 A 
ATOM     13  C   UNL     1       3.442   5.488  19.342  0.00  0.00    +0.000 A 
ATOM     14  C   UNL     1       2.637   6.333  20.118  0.00  0.00    +0.000 A 
ATOM     15  C   UNL     1       2.161   7.540  19.595  0.00  0.00    +0.000 A 
ATOM     16  C   UNL     1       1.217   8.402  20.383  0.00  0.00    +0.000 C 
ATOM     17  C   UNL     1       2.579   7.942  18.319  0.00  0.00    +0.000 A 
ATOM     18  C   UNL     1       3.360   7.094  17.529  0.00  0.00    +0.000 A 
ENDBRANCH   9  12
ENDBRANCH   5   9
BRANCH   1  19
ATOM     19  C   UNL     1       5.201   3.783  14.081  0.00  0.00    +0.000 C 
BRANCH  19  21
ATOM     20  C   UNL     1       4.379   3.314  11.682  0.00  0.00    +0.000 C 
ATOM     21  C   UNL     1       5.531   3.574  12.620  0.00  0.00    +0.000 C 
ATOM     22  O   UNL     1       6.694   3.612  12.213  0.00  0.00    +0.000 OA
ENDBRANCH  19  21
ENDBRANCH   1  19
TORSDOF 5
ENDMDL
MODEL 9
REMARK VINA RESULT:      -6.7      2.397      6.290
REMARK  Name = 
REMARK  9 active torsions:
REMARK  status: ('A' for Active; 'I' for Inactive)
REMARK    1  A    between atoms: C_1  and  C_2
REMARK    2  A    between atoms: C_2  and  C_4
REMARK    3  A    between atoms: C_4  and  C_5
REMARK    4  A    between atoms: C_8  and  C_9
REMARK    5  A    between atoms: C_9  and  C_10
REMARK    6  A    between atoms: C_9  and  C_11
REMARK    7  A    between atoms: N_12  and  S_13
REMARK    8  A    between atoms: S_13  and  C_16
REMARK    9  A    between atoms: C_19  and  C_20
REMARK                            x       y       z     vdW  Elec       q    Type
REMARK                         _______ _______ _______ _____ _____    ______ ____
ROOT
ATOM      1  C   UNL     1       3.430   4.319  20.290  0.00  0.00    +0.000 C 
ATOM      2  O   UNL     1       2.173   5.014  20.330  0.00  0.00    +0.000 OA
ATOM      3  C   UNL     1       2.239   6.112  19.406  0.00  0.00    +0.000 C 
ATOM      4  C   UNL     1       3.678   6.153  18.903  0.00  0.00    +0.000 C 
ATOM      5  N   UNL     1       4.080   4.690  18.971  0.00  0.00    +0.000 NA
ENDROOT
BRANCH   4   6
ATOM      6  C   UNL     1       3.920   6.924  17.601  0.00  0.00    +0.000 C 
ATOM      7  C   UNL     1       3.090   8.211  17.492  0.00  0.00    +0.000 C 
ATOM      8  C   UNL     1       5.386   7.342  17.483  0.00  0.00    +0.000 C 
ENDBRANCH   4   6
BRANCH   5   9
ATOM      9  S   UNL     1       3.740   3.626  17.664  0.00  0.00    +0.000 S 
ATOM     10  O   UNL     1       3.995   2.269  18.085  0.00  0.00    +0.000 OA
ATOM     11  O   UNL     1       2.443   4.001  17.122  0.00  0.00    +0.000 OA
BRANCH   9  12
ATOM     12  C   UNL     1       4.968   3.933  16.408  0.00  0.00    +0.000 A 
ATOM     13  C   UNL     1       6.298   4.148  16.782  0.00  0.00    +0.000 A 
ATOM     14  C   UNL     1       7.226   4.557  15.815  0.00  0.00    +0.000 A 
ATOM     15  C   UNL     1       6.840   4.705  14.478  0.00  0.00    +0.000 A 
ATOM     16  C   UNL     1       7.802   5.239  13.454  0.00  0.00    +0.000 C 
ATOM     17  C   UNL     1       5.541   4.345  14.098  0.00  0.00    +0.000 A 
ATOM     18  C   UNL     1       4.602   3.962  15.060  0.00  0.00    +0.000 A 
ENDBRANCH   9  12
ENDBRANCH   5   9
BRANCH   1  19
ATOM     19  C   UNL     1       3.244   2.848  20.605  0.00  0.00    +0.000 C 
BRANCH  19  21
ATOM     20  C   UNL     1       0.863   2.285  19.792  0.00  0.00    +0.000 C 
ATOM     21  C   UNL     1       1.804   2.536  20.944  0.00  0.00    +0.000 C 
ATOM     22  O   UNL     1       1.415   2.491  22.112  0.00  0.00    +0.000 OA
ENDBRANCH  19  21
ENDBRANCH   1  19
TORSDOF 5
ENDMDL
