MODEL 1
REMARK VINA RESULT:      -8.9      0.000      0.000
REMARK  Name = 
REMARK  7 active torsions:
REMARK  status: ('A' for Active; 'I' for Inactive)
REMARK    1  A    between atoms: C_1  and  C_2
REMARK    2  A    between atoms: C_5  and  C_6
REMARK    3  A    between atoms: C_7  and  C_8
REMARK    4  A    between atoms: C_8  and  C_9
REMARK    5  A    between atoms: C_11  and  C_12
REMARK    6  A    between atoms: C_12  and  C_13
REMARK    7  A    between atoms: N_17  and  C_18
REMARK                            x       y       z     vdW  Elec       q    Type
REMARK                         _______ _______ _______ _____ _____    ______ ____
ROOT
ATOM      1  C   UNL     1       4.081   5.739  18.448  0.00  0.00    +0.000 A 
ATOM      2  N   UNL     1       4.162   4.470  18.815  0.00  0.00    +0.000 NA
ATOM      3  C   UNL     1       3.141   4.304  19.714  0.00  0.00    +0.000 A 
ATOM      4  N   UNL     1       2.403   5.406  19.893  0.00  0.00    +0.000 NA
ATOM      5  N   UNL     1       3.052   6.326  19.148  0.00  0.00    +0.000 N 
ENDROOT
BRANCH   5   6
ATOM      6  C   UNL     1       2.638   7.714  19.251  0.00  0.00    +0.000 C 
ATOM      7  C   UNL     1       1.855   8.201  18.009  0.00  0.00    +0.000 C 
ATOM      8  C   UNL     1       0.924   9.220  18.584  0.00  0.00    +0.000 A 
ATOM      9  C   UNL     1       0.106  10.092  17.883  0.00  0.00    +0.000 A 
ATOM     10  C   UNL     1      -0.781  10.895  18.598  0.00  0.00    +0.000 A 
ATOM     11  C   UNL     1      -0.834  10.823  19.994  0.00  0.00    +0.000 A 
ATOM     12  C   UNL     1      -0.012   9.927  20.699  0.00  0.00    +0.000 A 
ATOM     13  C   UNL     1       0.858   9.123  19.975  0.00  0.00    +0.000 A 
ATOM     14  C   UNL     1       1.722   7.999  20.473  0.00  0.00    +0.000 C 
ENDBRANCH   5   6
BRANCH   1  15
ATOM     15  C   UNL     1       5.048   6.422  17.532  0.00  0.00    +0.000 C 
BRANCH  15  22
ATOM     16  C   UNL     1       7.743   5.690  19.239  0.00  0.00    +0.000 C 
ATOM     17  C   UNL     1       7.379   5.268  17.861  0.00  0.00    +0.000 A 
ATOM     18  N   UNL     1       8.192   4.441  17.203  0.00  0.00    +0.000 NA
ATOM     19  O   UNL     1       7.591   4.207  15.991  0.00  0.00    +0.000 OA
ATOM     20  C   UNL     1       6.414   4.886  15.923  0.00  0.00    +0.000 A 
ATOM     21  C   UNL     1       5.647   4.679  14.677  0.00  0.00    +0.000 C 
ATOM     22  C   UNL     1       6.221   5.603  17.096  0.00  0.00    +0.000 A 
ENDBRANCH  15  22
ENDBRANCH   1  15
BRANCH   3  23
ATOM     23  C   UNL     1       2.881   3.003  20.389  0.00  0.00    +0.000 C 
BRANCH  23  24
ATOM     24  C   UNL     1       1.531   2.829  21.065  0.00  0.00    +0.000 C 
ATOM     25  N   UNL     1       0.393   3.074  20.359  0.00  0.00    +0.000 N 
ATOM     26  O   UNL     1       1.438   2.468  22.239  0.00  0.00    +0.000 OA
ATOM     27  H   UNL     1       0.447   3.098  19.341  0.00  0.00    +0.000 HD
ATOM     28  H   UNL     1      -0.489   2.835  20.787  0.00  0.00    +0.000 HD
ENDBRANCH  23  24
ENDBRANCH   3  23
TORSDOF 5
ENDMDL
MODEL 2
REMARK VINA RESULT:      -8.9      1.318      1.430
REMARK  Name = 
REMARK  7 active torsions:
REMARK  status: ('A' for Active; 'I' for Inactive)
REMARK    1  A    between atoms: C_1  and  C_2
REMARK    2  A    between atoms: C_5  and  C_6
REMARK    3  A    between atoms: C_7  and  C_8
REMARK    4  A    between atoms: C_8  and  C_9
REMARK    5  A    between atoms: C_11  and  C_12
REMARK    6  A    between atoms: C_12  and  C_13
REMARK    7  A    between atoms: N_17  and  C_18
REMARK                            x       y       z     vdW  Elec       q    Type
REMARK                         _______ _______ _______ _____ _____    ______ ____
ROOT
ATOM      1  C   UNL     1       3.893   5.951  17.559  0.00  0.00    +0.000 A 
ATOM      2  N   UNL     1       3.663   4.661  17.375  0.00  0.00    +0.000 NA
ATOM      3  C   UNL     1       2.387   4.467  17.837  0.00  0.00    +0.000 A 
ATOM      4  N   UNL     1       1.798   5.590  18.266  0.00  0.00    +0.000 NA
ATOM      5  N   UNL     1       2.785   6.506  18.158  0.00  0.00    +0.000 N 
ENDROOT
BRANCH   5   6
ATOM      6  C   UNL     1       2.564   7.827  18.718  0.00  0.00    +0.000 C 
ATOM      7  C   UNL     1       1.671   8.718  17.823  0.00  0.00    +0.000 C 
ATOM      8  C   UNL     1       0.968   9.586  18.818  0.00  0.00    +0.000 A 
ATOM      9  C   UNL     1       0.168  10.685  18.548  0.00  0.00    +0.000 A 
ATOM     10  C   UNL     1      -0.497  11.302  19.606  0.00  0.00    +0.000 A 
ATOM     11  C   UNL     1      -0.351  10.821  20.912  0.00  0.00    +0.000 A 
ATOM     12  C   UNL     1       0.451   9.699  21.178  0.00  0.00    +0.000 A 
ATOM     13  C   UNL     1       1.098   9.084  20.115  0.00  0.00    +0.000 A 
ATOM     14  C   UNL     1       1.881   7.802  20.114  0.00  0.00    +0.000 C 
ENDBRANCH   5   6
BRANCH   1  15
ATOM     15  C   UNL     1       5.197   6.630  17.282  0.00  0.00    +0.000 C 
BRANCH  15  22
ATOM     16  C   UNL     1       7.462   5.647  19.431  0.00  0.00    +0.000 C 
ATOM     17  C   UNL     1       7.330   5.282  17.997  0.00  0.00    +0.000 A 
ATOM     18  N   UNL     1       8.184   4.403  17.472  0.00  0.00    +0.000 NA
ATOM     19  O   UNL     1       7.803   4.241  16.162  0.00  0.00    +0.000 OA
ATOM     20  C   UNL     1       6.716   5.016  15.901  0.00  0.00    +0.000 A 
ATOM     21  C   UNL     1       6.182   4.897  14.529  0.00  0.00    +0.000 C 
ATOM     22  C   UNL     1       6.364   5.726  17.042  0.00  0.00    +0.000 A 
ENDBRANCH  15  22
ENDBRANCH   1  15
BRANCH   3  23
ATOM     23  C   UNL     1       1.733   3.130  17.824  0.00  0.00    +0.000 C 
BRANCH  23  24
ATOM     24  C   UNL     1       2.288   2.077  18.771  0.00  0.00    +0.000 C 
ATOM     25  N   UNL     1       3.356   1.327  18.385  0.00  0.00    +0.000 N 
ATOM     26  O   UNL     1       1.795   1.886  19.883  0.00  0.00    +0.000 OA
ATOM     27  H   UNL     1       3.929   1.657  17.609  0.00  0.00    +0.000 HD
ATOM     28  H   UNL     1       3.782   0.723  19.072  0.00  0.00    +0.000 HD
ENDBRANCH  23  24
ENDBRANCH   3  23
TORSDOF 5
ENDMDL
MODEL 3
REMARK VINA RESULT:      -8.8      1.640      5.341
REMARK  Name = 
REMARK  7 active torsions:
REMARK  status: ('A' for Active; 'I' for Inactive)
REMARK    1  A    between atoms: C_1  and  C_2
REMARK    2  A    between atoms: C_5  and  C_6
REMARK    3  A    between atoms: C_7  and  C_8
REMARK    4  A    between atoms: C_8  and  C_9
REMARK    5  A    between atoms: C_11  and  C_12
REMARK    6  A    between atoms: C_12  and  C_13
REMARK    7  A    between atoms: N_17  and  C_18
REMARK                            x       y       z     vdW  Elec       q    Type
REMARK                         _______ _______ _______ _____ _____    ______ ____
ROOT
ATOM      1  C   UNL     1       3.968   4.100  17.889  0.00  0.00    +0.000 A 
ATOM      2  N   UNL     1       5.137   3.837  17.326  0.00  0.00    +0.000 NA
ATOM      3  C   UNL     1       5.654   5.066  17.011  0.00  0.00    +0.000 A 
ATOM      4  N   UNL     1       4.875   6.087  17.388  0.00  0.00    +0.000 NA
ATOM      5  N   UNL     1       3.779   5.463  17.872  0.00  0.00    +0.000 N 
ENDROOT
BRANCH   5   6
ATOM      6  C   UNL     1       2.619   6.270  18.208  0.00  0.00    +0.000 C 
ATOM      7  C   UNL     1       2.486   6.527  19.727  0.00  0.00    +0.000 C 
ATOM      8  C   UNL     1       1.832   7.872  19.778  0.00  0.00    +0.000 A 
ATOM      9  C   UNL     1       1.329   8.512  20.900  0.00  0.00    +0.000 A 
ATOM     10  C   UNL     1       0.857   9.816  20.767  0.00  0.00    +0.000 A 
ATOM     11  C   UNL     1       0.886  10.458  19.523  0.00  0.00    +0.000 A 
ATOM     12  C   UNL     1       1.410   9.808  18.393  0.00  0.00    +0.000 A 
ATOM     13  C   UNL     1       1.890   8.514  18.540  0.00  0.00    +0.000 A 
ATOM     14  C   UNL     1       2.621   7.671  17.535  0.00  0.00    +0.000 C 
ENDBRANCH   5   6
BRANCH   1  15
ATOM     15  C   UNL     1       2.984   3.063  18.330  0.00  0.00    +0.000 C 
BRANCH  15  22
ATOM     16  C   UNL     1       0.435   3.808  20.244  0.00  0.00    +0.000 C 
ATOM     17  C   UNL     1       1.725   3.178  20.627  0.00  0.00    +0.000 A 
ATOM     18  N   UNL     1       1.907   2.796  21.892  0.00  0.00    +0.000 NA
ATOM     19  O   UNL     1       3.157   2.229  21.938  0.00  0.00    +0.000 OA
ATOM     20  C   UNL     1       3.723   2.262  20.703  0.00  0.00    +0.000 A 
ATOM     21  C   UNL     1       5.060   1.638  20.612  0.00  0.00    +0.000 C 
ATOM     22  C   UNL     1       2.855   2.874  19.808  0.00  0.00    +0.000 A 
ENDBRANCH  15  22
ENDBRANCH   1  15
BRANCH   3  23
ATOM     23  C   UNL     1       6.974   5.223  16.339  0.00  0.00    +0.000 C 
BRANCH  23  24
ATOM     24  C   UNL     1       7.058   4.824  14.875  0.00  0.00    +0.000 C 
ATOM     25  N   UNL     1       6.332   3.764  14.427  0.00  0.00    +0.000 N 
ATOM     26  O   UNL     1       7.768   5.440  14.078  0.00  0.00    +0.000 OA
ATOM     27  H   UNL     1       5.551   3.434  14.993  0.00  0.00    +0.000 HD
ATOM     28  H   UNL     1       6.307   3.594  13.432  0.00  0.00    +0.000 HD
ENDBRANCH  23  24
ENDBRANCH   3  23
TORSDOF 5
ENDMDL
MODEL 4
REMARK VINA RESULT:      -8.7      1.320      2.102
REMARK  Name = 
REMARK  7 active torsions:
REMARK  status: ('A' for Active; 'I' for Inactive)
REMARK    1  A    between atoms: C_1  and  C_2
REMARK    2  A    between atoms: C_5  and  C_6
REMARK    3  A    between atoms: C_7  and  C_8
REMARK    4  A    between atoms: C_8  and  C_9
REMARK    5  A    between atoms: C_11  and  C_12
REMARK    6  A    between atoms: C_12  and  C_13
REMARK    7  A    between atoms: N_17  and  C_18
REMARK                            x       y       z     vdW  Elec       q    Type
REMARK                         _______ _______ _______ _____ _____    ______ ____
ROOT
ATOM      1  C   UNL     1       3.742   5.963  17.664  0.00  0.00    +0.000 A 
ATOM      2  N   UNL     1       3.489   4.672  17.514  0.00  0.00    +0.000 NA
ATOM      3  C   UNL     1       2.215   4.511  17.993  0.00  0.00    +0.000 A 
ATOM      4  N   UNL     1       1.649   5.654  18.400  0.00  0.00    +0.000 NA
ATOM      5  N   UNL     1       2.649   6.550  18.260  0.00  0.00    +0.000 N 
ENDROOT
BRANCH   5   6
ATOM      6  C   UNL     1       2.456   7.888  18.790  0.00  0.00    +0.000 C 
ATOM      7  C   UNL     1       1.568   8.772  17.882  0.00  0.00    +0.000 C 
ATOM      8  C   UNL     1       0.890   9.675  18.862  0.00  0.00    +0.000 A 
ATOM      9  C   UNL     1       0.105  10.780  18.572  0.00  0.00    +0.000 A 
ATOM     10  C   UNL     1      -0.539  11.434  19.621  0.00  0.00    +0.000 A 
ATOM     11  C   UNL     1      -0.388  10.983  20.937  0.00  0.00    +0.000 A 
ATOM     12  C   UNL     1       0.398   9.854  21.223  0.00  0.00    +0.000 A 
ATOM     13  C   UNL     1       1.024   9.203  20.169  0.00  0.00    +0.000 A 
ATOM     14  C   UNL     1       1.787   7.909  20.193  0.00  0.00    +0.000 C 
ENDBRANCH   5   6
BRANCH   1  15
ATOM     15  C   UNL     1       5.054   6.613  17.358  0.00  0.00    +0.000 C 
BRANCH  15  22
ATOM     16  C   UNL     1       5.735   4.954  14.619  0.00  0.00    +0.000 C 
ATOM     17  C   UNL     1       6.499   4.988  15.893  0.00  0.00    +0.000 A 
ATOM     18  N   UNL     1       7.648   4.316  15.975  0.00  0.00    +0.000 NA
ATOM     19  O   UNL     1       8.135   4.553  17.237  0.00  0.00    +0.000 OA
ATOM     20  C   UNL     1       7.285   5.373  17.910  0.00  0.00    +0.000 A 
ATOM     21  C   UNL     1       7.722   5.741  19.273  0.00  0.00    +0.000 C 
ATOM     22  C   UNL     1       6.198   5.684  17.103  0.00  0.00    +0.000 A 
ENDBRANCH  15  22
ENDBRANCH   1  15
BRANCH   3  23
ATOM     23  C   UNL     1       1.540   3.185  18.019  0.00  0.00    +0.000 C 
BRANCH  23  24
ATOM     24  C   UNL     1       2.167   2.104  18.884  0.00  0.00    +0.000 C 
ATOM     25  N   UNL     1       3.193   1.360  18.386  0.00  0.00    +0.000 N 
ATOM     26  O   UNL     1       1.772   1.882  20.029  0.00  0.00    +0.000 OA
ATOM     27  H   UNL     1       3.699   1.711  17.573  0.00  0.00    +0.000 HD
ATOM     28  H   UNL     1       3.674   0.735  19.016  0.00  0.00    +0.000 HD
ENDBRANCH  23  24
ENDBRANCH   3  23
TORSDOF 5
ENDMDL
MODEL 5
REMARK VINA RESULT:      -8.7      0.759      1.722
REMARK  Name = 
REMARK  7 active torsions:
REMARK  status: ('A' for Active; 'I' for Inactive)
REMARK    1  A    between atoms: C_1  and  C_2
REMARK    2  A    between atoms: C_5  and  C_6
REMARK    3  A    between atoms: C_7  and  C_8
REMARK    4  A    between atoms: C_8  and  C_9
REMARK    5  A    between atoms: C_11  and  C_12
REMARK    6  A    between atoms: C_12  and  C_13
REMARK    7  A    between atoms: N_17  and  C_18
REMARK                            x       y       z     vdW  Elec       q    Type
REMARK                         _______ _______ _______ _____ _____    ______ ____
ROOT
ATOM      1  C   UNL     1       3.748   5.652  18.265  0.00  0.00    +0.000 A 
ATOM      2  N   UNL     1       3.669   4.344  18.454  0.00  0.00    +0.000 NA
ATOM      3  C   UNL     1       2.591   4.179  19.284  0.00  0.00    +0.000 A 
ATOM      4  N   UNL     1       1.971   5.325  19.589  0.00  0.00    +0.000 NA
ATOM      5  N   UNL     1       2.755   6.255  19.003  0.00  0.00    +0.000 N 
ENDROOT
BRANCH   5   6
ATOM      6  C   UNL     1       2.491   7.655  19.283  0.00  0.00    +0.000 C 
ATOM      7  C   UNL     1       1.747   8.369  18.130  0.00  0.00    +0.000 C 
ATOM      8  C   UNL     1       0.937   9.401  18.849  0.00  0.00    +0.000 A 
ATOM      9  C   UNL     1       0.206  10.431  18.280  0.00  0.00    +0.000 A 
ATOM     10  C   UNL     1      -0.581  11.228  19.110  0.00  0.00    +0.000 A 
ATOM     11  C   UNL     1      -0.623  10.990  20.488  0.00  0.00    +0.000 A 
ATOM     12  C   UNL     1       0.110   9.935  21.058  0.00  0.00    +0.000 A 
ATOM     13  C   UNL     1       0.880   9.141  20.220  0.00  0.00    +0.000 A 
ATOM     14  C   UNL     1       1.627   7.881  20.555  0.00  0.00    +0.000 C 
ENDBRANCH   5   6
BRANCH   1  15
ATOM     15  C   UNL     1       4.829   6.335  17.488  0.00  0.00    +0.000 C 
BRANCH  15  22
ATOM     16  C   UNL     1       5.563   4.730  14.732  0.00  0.00    +0.000 C 
ATOM     17  C   UNL     1       6.363   4.838  15.979  0.00  0.00    +0.000 A 
ATOM     18  N   UNL     1       7.570   4.272  16.023  0.00  0.00    +0.000 NA
ATOM     19  O   UNL     1       8.076   4.559  17.267  0.00  0.00    +0.000 OA
ATOM     20  C   UNL     1       7.179   5.303  17.967  0.00  0.00    +0.000 A 
ATOM     21  C   UNL     1       7.627   5.715  19.313  0.00  0.00    +0.000 C 
ATOM     22  C   UNL     1       6.042   5.511  17.197  0.00  0.00    +0.000 A 
ENDBRANCH  15  22
ENDBRANCH   1  15
BRANCH   3  23
ATOM     23  C   UNL     1       2.157   2.837  19.762  0.00  0.00    +0.000 C 
BRANCH  23  24
ATOM     24  C   UNL     1       2.191   2.590  21.261  0.00  0.00    +0.000 C 
ATOM     25  N   UNL     1       1.036   2.665  21.978  0.00  0.00    +0.000 N 
ATOM     26  O   UNL     1       3.240   2.320  21.847  0.00  0.00    +0.000 OA
ATOM     27  H   UNL     1       0.148   2.610  21.479  0.00  0.00    +0.000 HD
ATOM     28  H   UNL     1       1.060   2.378  22.945  0.00  0.00    +0.000 HD
ENDBRANCH  23  24
ENDBRANCH   3  23
TORSDOF 5
ENDMDL
MODEL 6
REMARK VINA RESULT:      -8.6      0.866      1.072
REMARK  Name = 
REMARK  7 active torsions:
REMARK  status: ('A' for Active; 'I' for Inactive)
REMARK    1  A    between atoms: C_1  and  C_2
REMARK    2  A    between atoms: C_5  and  C_6
REMARK    3  A    between atoms: C_7  and  C_8
REMARK    4  A    between atoms: C_8  and  C_9
REMARK    5  A    between atoms: C_11  and  C_12
REMARK    6  A    between atoms: C_12  and  C_13
REMARK    7  A    between atoms: N_17  and  C_18
REMARK                            x       y       z     vdW  Elec       q    Type
REMARK                         _______ _______ _______ _____ _____    ______ ____
ROOT
ATOM      1  C   UNL     1       3.762   5.758  17.958  0.00  0.00    +0.000 A 
ATOM      2  N   UNL     1       3.754   4.458  18.202  0.00  0.00    +0.000 NA
ATOM      3  C   UNL     1       2.761   4.286  19.131  0.00  0.00    +0.000 A 
ATOM      4  N   UNL     1       2.125   5.420  19.448  0.00  0.00    +0.000 NA
ATOM      5  N   UNL     1       2.816   6.354  18.760  0.00  0.00    +0.000 N 
ENDROOT
BRANCH   5   6
ATOM      6  C   UNL     1       2.522   7.754  19.011  0.00  0.00    +0.000 C 
ATOM      7  C   UNL     1       1.667   8.398  17.894  0.00  0.00    +0.000 C 
ATOM      8  C   UNL     1       0.876   9.427  18.636  0.00  0.00    +0.000 A 
ATOM      9  C   UNL     1       0.066  10.410  18.089  0.00  0.00    +0.000 A 
ATOM     10  C   UNL     1      -0.685  11.210  18.948  0.00  0.00    +0.000 A 
ATOM     11  C   UNL     1      -0.615  11.023  20.334  0.00  0.00    +0.000 A 
ATOM     12  C   UNL     1       0.198  10.016  20.881  0.00  0.00    +0.000 A 
ATOM     13  C   UNL     1       0.931   9.217  20.015  0.00  0.00    +0.000 A 
ATOM     14  C   UNL     1       1.747   7.998  20.336  0.00  0.00    +0.000 C 
ENDBRANCH   5   6
BRANCH   1  15
ATOM     15  C   UNL     1       4.742   6.449  17.062  0.00  0.00    +0.000 C 
BRANCH  15  22
ATOM     16  C   UNL     1       7.415   5.959  18.886  0.00  0.00    +0.000 C 
ATOM     17  C   UNL     1       7.115   5.437  17.528  0.00  0.00    +0.000 A 
ATOM     18  N   UNL     1       7.988   4.613  16.945  0.00  0.00    +0.000 NA
ATOM     19  O   UNL     1       7.437   4.277  15.733  0.00  0.00    +0.000 OA
ATOM     20  C   UNL     1       6.232   4.890  15.590  0.00  0.00    +0.000 A 
ATOM     21  C   UNL     1       5.515   4.570  14.338  0.00  0.00    +0.000 C 
ATOM     22  C   UNL     1       5.967   5.666  16.711  0.00  0.00    +0.000 A 
ENDBRANCH  15  22
ENDBRANCH   1  15
BRANCH   3  23
ATOM     23  C   UNL     1       2.424   2.950  19.695  0.00  0.00    +0.000 C 
BRANCH  23  24
ATOM     24  C   UNL     1       3.342   2.403  20.776  0.00  0.00    +0.000 C 
ATOM     25  N   UNL     1       4.604   2.011  20.447  0.00  0.00    +0.000 N 
ATOM     26  O   UNL     1       2.974   2.305  21.947  0.00  0.00    +0.000 OA
ATOM     27  H   UNL     1       5.002   2.339  19.568  0.00  0.00    +0.000 HD
ATOM     28  H   UNL     1       5.234   1.767  21.197  0.00  0.00    +0.000 HD
ENDBRANCH  23  24
ENDBRANCH   3  23
TORSDOF 5
ENDMDL
MODEL 7
REMARK VINA RESULT:      -8.5      1.698      5.129
REMARK  Name = 
REMARK  7 active torsions:
REMARK  status: ('A' for Active; 'I' for Inactive)
REMARK    1  A    between atoms: C_1  and  C_2
REMARK    2  A    between atoms: C_5  and  C_6
REMARK    3  A    between atoms: C_7  and  C_8
REMARK    4  A    between atoms: C_8  and  C_9
REMARK    5  A    between atoms: C_11  and  C_12
REMARK    6  A    between atoms: C_12  and  C_13
REMARK    7  A    between atoms: N_17  and  C_18
REMARK                            x       y       z     vdW  Elec       q    Type
REMARK                         _______ _______ _______ _____ _____    ______ ____
ROOT
ATOM      1  C   UNL     1       4.655   4.406  18.966  0.00  0.00    +0.000 A 
ATOM      2  N   UNL     1       5.810   4.120  18.387  0.00  0.00    +0.000 NA
ATOM      3  C   UNL     1       6.048   5.177  17.548  0.00  0.00    +0.000 A 
ATOM      4  N   UNL     1       5.108   6.128  17.608  0.00  0.00    +0.000 NA
ATOM      5  N   UNL     1       4.196   5.595  18.448  0.00  0.00    +0.000 N 
ENDROOT
BRANCH   5   6
ATOM      6  C   UNL     1       2.924   6.278  18.609  0.00  0.00    +0.000 C 
ATOM      7  C   UNL     1       2.599   6.604  20.086  0.00  0.00    +0.000 C 
ATOM      8  C   UNL     1       1.799   7.863  19.978  0.00  0.00    +0.000 A 
ATOM      9  C   UNL     1       1.110   8.502  20.996  0.00  0.00    +0.000 A 
ATOM     10  C   UNL     1       0.513   9.733  20.727  0.00  0.00    +0.000 A 
ATOM     11  C   UNL     1       0.607  10.303  19.452  0.00  0.00    +0.000 A 
ATOM     12  C   UNL     1       1.319   9.656  18.427  0.00  0.00    +0.000 A 
ATOM     13  C   UNL     1       1.920   8.437  18.711  0.00  0.00    +0.000 A 
ATOM     14  C   UNL     1       2.845   7.630  17.845  0.00  0.00    +0.000 C 
ENDBRANCH   5   6
BRANCH   1  15
ATOM     15  C   UNL     1       3.931   3.500  19.912  0.00  0.00    +0.000 C 
BRANCH  15  22
ATOM     16  C   UNL     1       1.275   2.786  21.686  0.00  0.00    +0.000 C 
ATOM     17  C   UNL     1       1.455   2.692  20.214  0.00  0.00    +0.000 A 
ATOM     18  N   UNL     1       0.420   2.324  19.459  0.00  0.00    +0.000 NA
ATOM     19  O   UNL     1       0.869   2.357  18.161  0.00  0.00    +0.000 OA
ATOM     20  C   UNL     1       2.170   2.751  18.136  0.00  0.00    +0.000 A 
ATOM     21  C   UNL     1       2.759   2.867  16.786  0.00  0.00    +0.000 C 
ATOM     22  C   UNL     1       2.617   2.973  19.432  0.00  0.00    +0.000 A 
ENDBRANCH  15  22
ENDBRANCH   1  15
BRANCH   3  23
ATOM     23  C   UNL     1       7.259   5.248  16.685  0.00  0.00    +0.000 C 
BRANCH  23  24
ATOM     24  C   UNL     1       7.115   4.774  15.248  0.00  0.00    +0.000 C 
ATOM     25  N   UNL     1       6.366   3.669  14.980  0.00  0.00    +0.000 N 
ATOM     26  O   UNL     1       7.660   5.366  14.315  0.00  0.00    +0.000 OA
ATOM     27  H   UNL     1       5.702   3.348  15.684  0.00  0.00    +0.000 HD
ATOM     28  H   UNL     1       6.184   3.445  14.012  0.00  0.00    +0.000 HD
ENDBRANCH  23  24
ENDBRANCH   3  23
TORSDOF 5
ENDMDL
MODEL 8
REMARK VINA RESULT:      -8.5      1.504      2.204
REMARK  Name = 
REMARK  7 active torsions:
REMARK  status: ('A' for Active; 'I' for Inactive)
REMARK    1  A    between atoms: C_1  and  C_2
REMARK    2  A    between atoms: C_5  and  C_6
REMARK    3  A    between atoms: C_7  and  C_8
REMARK    4  A    between atoms: C_8  and  C_9
REMARK    5  A    between atoms: C_11  and  C_12
REMARK    6  A    between atoms: C_12  and  C_13
REMARK    7  A    between atoms: N_17  and  C_18
REMARK                            x       y       z     vdW  Elec       q    Type
REMARK                         _______ _______ _______ _____ _____    ______ ____
ROOT
ATOM      1  C   UNL     1       3.559   6.011  17.853  0.00  0.00    +0.000 A 
ATOM      2  N   UNL     1       3.704   4.712  18.056  0.00  0.00    +0.000 NA
ATOM      3  C   UNL     1       2.967   4.453  19.183  0.00  0.00    +0.000 A 
ATOM      4  N   UNL     1       2.338   5.530  19.668  0.00  0.00    +0.000 NA
ATOM      5  N   UNL     1       2.780   6.522  18.867  0.00  0.00    +0.000 N 
ENDROOT
BRANCH   5   6
ATOM      6  C   UNL     1       2.448   7.891  19.216  0.00  0.00    +0.000 C 
ATOM      7  C   UNL     1       1.614   8.605  18.126  0.00  0.00    +0.000 C 
ATOM      8  C   UNL     1       0.777   9.557  18.921  0.00  0.00    +0.000 A 
ATOM      9  C   UNL     1      -0.037  10.564  18.427  0.00  0.00    +0.000 A 
ATOM     10  C   UNL     1      -0.832  11.278  19.322  0.00  0.00    +0.000 A 
ATOM     11  C   UNL     1      -0.800  10.983  20.689  0.00  0.00    +0.000 A 
ATOM     12  C   UNL     1       0.017   9.952  21.183  0.00  0.00    +0.000 A 
ATOM     13  C   UNL     1       0.795   9.239  20.281  0.00  0.00    +0.000 A 
ATOM     14  C   UNL     1       1.628   8.014  20.531  0.00  0.00    +0.000 C 
ENDBRANCH   5   6
BRANCH   1  15
ATOM     15  C   UNL     1       4.252   6.786  16.777  0.00  0.00    +0.000 C 
BRANCH  15  22
ATOM     16  C   UNL     1       5.165   4.444  14.681  0.00  0.00    +0.000 C 
ATOM     17  C   UNL     1       6.025   5.333  15.504  0.00  0.00    +0.000 A 
ATOM     18  N   UNL     1       7.350   5.250  15.377  0.00  0.00    +0.000 NA
ATOM     19  O   UNL     1       7.870   6.197  16.224  0.00  0.00    +0.000 OA
ATOM     20  C   UNL     1       6.861   6.856  16.853  0.00  0.00    +0.000 A 
ATOM     21  C   UNL     1       7.293   7.936  17.764  0.00  0.00    +0.000 C 
ATOM     22  C   UNL     1       5.639   6.339  16.443  0.00  0.00    +0.000 A 
ENDBRANCH  15  22
ENDBRANCH   1  15
BRANCH   3  23
ATOM     23  C   UNL     1       2.871   3.089  19.772  0.00  0.00    +0.000 C 
BRANCH  23  24
ATOM     24  C   UNL     1       4.027   2.138  19.512  0.00  0.00    +0.000 C 
ATOM     25  N   UNL     1       4.035   1.387  18.377  0.00  0.00    +0.000 N 
ATOM     26  O   UNL     1       4.964   2.030  20.305  0.00  0.00    +0.000 OA
ATOM     27  H   UNL     1       3.430   1.666  17.605  0.00  0.00    +0.000 HD
ATOM     28  H   UNL     1       4.867   0.857  18.166  0.00  0.00    +0.000 HD
ENDBRANCH  23  24
ENDBRANCH   3  23
TORSDOF 5
ENDMDL
MODEL 9
REMARK VINA RESULT:      -8.4      1.683      5.250
REMARK  Name = 
REMARK  7 active torsions:
REMARK  status: ('A' for Active; 'I' for Inactive)
REMARK    1  A    between atoms: C_1  and  C_2
REMARK    2  A    between atoms: C_5  and  C_6
REMARK    3  A    between atoms: C_7  and  C_8
REMARK    4  A    between atoms: C_8  and  C_9
REMARK    5  A    between atoms: C_11  and  C_12
REMARK    6  A    between atoms: C_12  and  C_13
REMARK    7  A    between atoms: N_17  and  C_18
REMARK                            x       y       z     vdW  Elec       q    Type
REMARK                         _______ _______ _______ _____ _____    ______ ____
ROOT
ATOM      1  C   UNL     1       3.907   4.054  17.827  0.00  0.00    +0.000 A 
ATOM      2  N   UNL     1       5.079   3.810  17.262  0.00  0.00    +0.000 NA
ATOM      3  C   UNL     1       5.616   5.050  17.030  0.00  0.00    +0.000 A 
ATOM      4  N   UNL     1       4.845   6.055  17.462  0.00  0.00    +0.000 NA
ATOM      5  N   UNL     1       3.735   5.418  17.893  0.00  0.00    +0.000 N 
ENDROOT
BRANCH   5   6
ATOM      6  C   UNL     1       2.582   6.217  18.266  0.00  0.00    +0.000 C 
ATOM      7  C   UNL     1       2.488   6.463  19.790  0.00  0.00    +0.000 C 
ATOM      8  C   UNL     1       1.830   7.804  19.868  0.00  0.00    +0.000 A 
ATOM      9  C   UNL     1       1.355   8.434  21.007  0.00  0.00    +0.000 A 
ATOM     10  C   UNL     1       0.874   9.738  20.897  0.00  0.00    +0.000 A 
ATOM     11  C   UNL     1       0.868  10.389  19.657  0.00  0.00    +0.000 A 
ATOM     12  C   UNL     1       1.364   9.749  18.509  0.00  0.00    +0.000 A 
ATOM     13  C   UNL     1       1.853   8.456  18.633  0.00  0.00    +0.000 A 
ATOM     14  C   UNL     1       2.560   7.623  17.603  0.00  0.00    +0.000 C 
ENDBRANCH   5   6
BRANCH   1  15
ATOM     15  C   UNL     1       2.904   3.005  18.190  0.00  0.00    +0.000 C 
BRANCH  15  22
ATOM     16  C   UNL     1       4.984   1.786  20.406  0.00  0.00    +0.000 C 
ATOM     17  C   UNL     1       3.603   2.294  20.616  0.00  0.00    +0.000 A 
ATOM     18  N   UNL     1       3.110   2.332  21.854  0.00  0.00    +0.000 NA
ATOM     19  O   UNL     1       1.850   2.867  21.743  0.00  0.00    +0.000 OA
ATOM     20  C   UNL     1       1.588   3.158  20.440  0.00  0.00    +0.000 A 
ATOM     21  C   UNL     1       0.272   3.783  20.194  0.00  0.00    +0.000 C 
ATOM     22  C   UNL     1       2.676   2.801  19.654  0.00  0.00    +0.000 A 
ENDBRANCH  15  22
ENDBRANCH   1  15
BRANCH   3  23
ATOM     23  C   UNL     1       6.945   5.231  16.385  0.00  0.00    +0.000 C 
BRANCH  23  24
ATOM     24  C   UNL     1       7.068   4.827  14.925  0.00  0.00    +0.000 C 
ATOM     25  N   UNL     1       6.390   3.736  14.473  0.00  0.00    +0.000 N 
ATOM     26  O   UNL     1       7.766   5.463  14.135  0.00  0.00    +0.000 OA
ATOM     27  H   UNL     1       5.613   3.381  15.030  0.00  0.00    +0.000 HD
ATOM     28  H   UNL     1       6.387   3.559  13.479  0.00  0.00    +0.000 HD
ENDBRANCH  23  24
ENDBRANCH   3  23
TORSDOF 5
ENDMDL
