MODEL 1
REMARK VINA RESULT:      -8.0      0.000      0.000
REMARK  Name = 
REMARK  12 active torsions:
REMARK  status: ('A' for Active; 'I' for Inactive)
REMARK    1  A    between atoms: C_1  and  C_2
REMARK    2  A    between atoms: C_2  and  C_3
REMARK    3  A    between atoms: C_2  and  C_4
REMARK    4  A    between atoms: C_8  and  N_9
REMARK    5  A    between atoms: N_9  and  C_10
REMARK    6  A    between atoms: C_13  and  S_14
REMARK    7  A    between atoms: S_14  and  N_17
REMARK    8  A    between atoms: N_17  and  C_18
REMARK    9  A    between atoms: N_17  and  C_19
REMARK   10  A    between atoms: C_23  and  O_24
REMARK   11  A    between atoms: O_24  and  C_25
REMARK   12  A    between atoms: C_28  and  N_29
REMARK                            x       y       z     vdW  Elec       q    Type
REMARK                         _______ _______ _______ _____ _____    ______ ____
ROOT
ATOM      1  C   UNL     1      -3.788  10.838  17.662  0.00  0.00    +0.000 A 
ATOM      2  C   UNL     1      -2.983  10.060  16.801  0.00  0.00    +0.000 A 
ATOM      3  N   UNL     1      -1.677  10.155  17.055  0.00  0.00    +0.000 NA
ATOM      4  N   UNL     1      -1.601  10.988  18.133  0.00  0.00    +0.000 N 
ATOM      5  C   UNL     1      -0.435  11.379  18.844  0.00  0.00    +0.000 A 
ATOM      6  C   UNL     1      -0.583  12.216  19.885  0.00  0.00    +0.000 A 
ATOM      7  C   UNL     1      -1.963  12.651  20.177  0.00  0.00    +0.000 A 
ATOM      8  N   UNL     1      -3.051  12.301  19.566  0.00  0.00    +0.000 NA
ATOM      9  C   UNL     1      -2.878  11.435  18.516  0.00  0.00    +0.000 A 
ENDROOT
BRANCH   1  11
ATOM     10  C   UNL     1      -5.894  10.781  19.035  0.00  0.00    +0.000 C 
ATOM     11  C   UNL     1      -5.285  10.994  17.645  0.00  0.00    +0.000 C 
ATOM     12  C   UNL     1      -5.721  12.354  17.091  0.00  0.00    +0.000 C 
ENDBRANCH   1  11
BRANCH   5  13
ATOM     13  N   UNL     1       0.807  10.928  18.399  0.00  0.00    +0.000 N 
ATOM     14  H   UNL     1       0.931  11.149  17.405  0.00  0.00    +0.000 HD
BRANCH  13  15
ATOM     15  C   UNL     1       1.322   9.630  18.653  0.00  0.00    +0.000 A 
ATOM     16  C   UNL     1       1.978   8.849  17.688  0.00  0.00    +0.000 A 
ATOM     17  C   UNL     1       2.488   7.583  18.010  0.00  0.00    +0.000 A 
ATOM     18  C   UNL     1       2.358   7.096  19.310  0.00  0.00    +0.000 A 
ATOM     19  C   UNL     1       1.706   7.855  20.285  0.00  0.00    +0.000 A 
ATOM     20  C   UNL     1       1.212   9.121  19.956  0.00  0.00    +0.000 A 
BRANCH  18  21
ATOM     21  S   UNL     1       2.944   5.457  19.717  0.00  0.00    +0.000 S 
ATOM     22  O   UNL     1       4.391   5.513  19.707  0.00  0.00    +0.000 OA
ATOM     23  O   UNL     1       2.223   5.022  20.895  0.00  0.00    +0.000 OA
BRANCH  21  24
ATOM     24  N   UNL     1       2.444   4.513  18.397  0.00  0.00    +0.000 NA
ATOM     25  C   UNL     1       3.492   3.798  17.650  0.00  0.00    +0.000 C 
ATOM     26  C   UNL     1       1.210   3.728  18.572  0.00  0.00    +0.000 C 
ENDBRANCH  21  24
ENDBRANCH  18  21
ENDBRANCH  13  15
ENDBRANCH   5  13
BRANCH   7  27
ATOM     27  O   UNL     1      -1.923  13.490  21.240  0.00  0.00    +0.000 OA
BRANCH  27  28
ATOM     28  C   UNL     1      -1.651  12.919  22.540  0.00  0.00    +0.000 C 
ATOM     29  C   UNL     1      -1.321  14.052  23.520  0.00  0.00    +0.000 C 
ATOM     30  C   UNL     1      -2.512  15.003  23.684  0.00  0.00    +0.000 C 
ATOM     31  C   UNL     1      -3.778  14.278  24.154  0.00  0.00    +0.000 C 
ATOM     32  C   UNL     1      -4.102  13.091  23.236  0.00  0.00    +0.000 C 
ATOM     33  C   UNL     1      -2.906  12.162  22.994  0.00  0.00    +0.000 C 
BRANCH  31  34
ATOM     34  N   UNL     1      -3.620  13.851  25.546  0.00  0.00    +0.000 NA
ATOM     35  H   UNL     1      -2.869  14.364  26.003  0.00  0.00    +0.000 HD
ATOM     36  H   UNL     1      -3.352  12.868  25.577  0.00  0.00    +0.000 HD
ENDBRANCH  31  34
ENDBRANCH  27  28
ENDBRANCH   7  27
TORSDOF 8
ENDMDL
MODEL 2
REMARK VINA RESULT:      -7.6      0.837      1.339
REMARK  Name = 
REMARK  12 active torsions:
REMARK  status: ('A' for Active; 'I' for Inactive)
REMARK    1  A    between atoms: C_1  and  C_2
REMARK    2  A    between atoms: C_2  and  C_3
REMARK    3  A    between atoms: C_2  and  C_4
REMARK    4  A    between atoms: C_8  and  N_9
REMARK    5  A    between atoms: N_9  and  C_10
REMARK    6  A    between atoms: C_13  and  S_14
REMARK    7  A    between atoms: S_14  and  N_17
REMARK    8  A    between atoms: N_17  and  C_18
REMARK    9  A    between atoms: N_17  and  C_19
REMARK   10  A    between atoms: C_23  and  O_24
REMARK   11  A    between atoms: O_24  and  C_25
REMARK   12  A    between atoms: C_28  and  N_29
REMARK                            x       y       z     vdW  Elec       q    Type
REMARK                         _______ _______ _______ _____ _____    ______ ____
ROOT
ATOM      1  C   UNL     1      -3.565  10.739  17.649  0.00  0.00    +0.000 A 
ATOM      2  C   UNL     1      -2.691   9.935  16.886  0.00  0.00    +0.000 A 
ATOM      3  N   UNL     1      -1.412  10.036  17.252  0.00  0.00    +0.000 NA
ATOM      4  N   UNL     1      -1.429  10.900  18.308  0.00  0.00    +0.000 N 
ATOM      5  C   UNL     1      -0.329  11.310  19.108  0.00  0.00    +0.000 A 
ATOM      6  C   UNL     1      -0.565  12.177  20.107  0.00  0.00    +0.000 A 
ATOM      7  C   UNL     1      -1.964  12.623  20.262  0.00  0.00    +0.000 A 
ATOM      8  N   UNL     1      -2.995  12.256  19.567  0.00  0.00    +0.000 NA
ATOM      9  C   UNL     1      -2.733  11.360  18.563  0.00  0.00    +0.000 A 
ENDROOT
BRANCH   1  11
ATOM     10  C   UNL     1      -5.801  10.530  18.780  0.00  0.00    +0.000 C 
ATOM     11  C   UNL     1      -5.055  10.897  17.494  0.00  0.00    +0.000 C 
ATOM     12  C   UNL     1      -5.446  12.312  17.053  0.00  0.00    +0.000 C 
ENDBRANCH   1  11
BRANCH   5  13
ATOM     13  N   UNL     1       0.946  10.843  18.789  0.00  0.00    +0.000 N 
ATOM     14  H   UNL     1       1.224  11.175  17.860  0.00  0.00    +0.000 HD
BRANCH  13  15
ATOM     15  C   UNL     1       1.365   9.496  18.944  0.00  0.00    +0.000 A 
ATOM     16  C   UNL     1       1.197   8.760  20.128  0.00  0.00    +0.000 A 
ATOM     17  C   UNL     1       1.609   7.422  20.209  0.00  0.00    +0.000 A 
ATOM     18  C   UNL     1       2.180   6.806  19.096  0.00  0.00    +0.000 A 
ATOM     19  C   UNL     1       2.359   7.521  17.910  0.00  0.00    +0.000 A 
ATOM     20  C   UNL     1       1.933   8.851  17.835  0.00  0.00    +0.000 A 
BRANCH  18  21
ATOM     21  S   UNL     1       2.771   5.122  19.207  0.00  0.00    +0.000 S 
ATOM     22  O   UNL     1       3.080   4.877  20.601  0.00  0.00    +0.000 OA
ATOM     23  O   UNL     1       1.827   4.286  18.495  0.00  0.00    +0.000 OA
BRANCH  21  24
ATOM     24  N   UNL     1       4.231   5.151  18.341  0.00  0.00    +0.000 NA
ATOM     25  C   UNL     1       5.463   5.375  19.113  0.00  0.00    +0.000 C 
ATOM     26  C   UNL     1       4.384   4.154  17.267  0.00  0.00    +0.000 C 
ENDBRANCH  21  24
ENDBRANCH  18  21
ENDBRANCH  13  15
ENDBRANCH   5  13
BRANCH   7  27
ATOM     27  O   UNL     1      -2.016  13.493  21.300  0.00  0.00    +0.000 OA
BRANCH  27  28
ATOM     28  C   UNL     1      -1.754  12.978  22.625  0.00  0.00    +0.000 C 
ATOM     29  C   UNL     1      -1.316  14.137  23.530  0.00  0.00    +0.000 C 
ATOM     30  C   UNL     1      -2.427  15.184  23.662  0.00  0.00    +0.000 C 
ATOM     31  C   UNL     1      -3.732  14.587  24.200  0.00  0.00    +0.000 C 
ATOM     32  C   UNL     1      -4.168  13.378  23.360  0.00  0.00    +0.000 C 
ATOM     33  C   UNL     1      -3.052  12.347  23.149  0.00  0.00    +0.000 C 
BRANCH  31  34
ATOM     34  N   UNL     1      -3.572  14.230  25.611  0.00  0.00    +0.000 NA
ATOM     35  H   UNL     1      -4.282  13.562  25.902  0.00  0.00    +0.000 HD
ATOM     36  H   UNL     1      -3.703  15.056  26.193  0.00  0.00    +0.000 HD
ENDBRANCH  31  34
ENDBRANCH  27  28
ENDBRANCH   7  27
TORSDOF 8
ENDMDL
MODEL 3
REMARK VINA RESULT:      -7.4      0.808      1.603
REMARK  Name = 
REMARK  12 active torsions:
REMARK  status: ('A' for Active; 'I' for Inactive)
REMARK    1  A    between atoms: C_1  and  C_2
REMARK    2  A    between atoms: C_2  and  C_3
REMARK    3  A    between atoms: C_2  and  C_4
REMARK    4  A    between atoms: C_8  and  N_9
REMARK    5  A    between atoms: N_9  and  C_10
REMARK    6  A    between atoms: C_13  and  S_14
REMARK    7  A    between atoms: S_14  and  N_17
REMARK    8  A    between atoms: N_17  and  C_18
REMARK    9  A    between atoms: N_17  and  C_19
REMARK   10  A    between atoms: C_23  and  O_24
REMARK   11  A    between atoms: O_24  and  C_25
REMARK   12  A    between atoms: C_28  and  N_29
REMARK                            x       y       z     vdW  Elec       q    Type
REMARK                         _______ _______ _______ _____ _____    ______ ____
ROOT
ATOM      1  C   UNL     1      -3.902  11.469  18.162  0.00  0.00    +0.000 A 
ATOM      2  C   UNL     1      -3.249  10.720  17.159  0.00  0.00    +0.000 A 
ATOM      3  N   UNL     1      -1.928  10.639  17.324  0.00  0.00    +0.000 NA
ATOM      4  N   UNL     1      -1.688  11.318  18.481  0.00  0.00    +0.000 N 
ATOM      5  C   UNL     1      -0.443  11.488  19.144  0.00  0.00    +0.000 A 
ATOM      6  C   UNL     1      -0.426  12.202  20.282  0.00  0.00    +0.000 A 
ATOM      7  C   UNL     1      -1.725  12.747  20.725  0.00  0.00    +0.000 A 
ATOM      8  N   UNL     1      -2.882  12.596  20.161  0.00  0.00    +0.000 NA
ATOM      9  C   UNL     1      -2.877  11.853  19.009  0.00  0.00    +0.000 A 
ENDROOT
BRANCH   1  11
ATOM     10  C   UNL     1      -5.878  12.558  17.052  0.00  0.00    +0.000 C 
ATOM     11  C   UNL     1      -5.369  11.791  18.276  0.00  0.00    +0.000 C 
ATOM     12  C   UNL     1      -6.223  10.538  18.495  0.00  0.00    +0.000 C 
ENDBRANCH   1  11
BRANCH   5  13
ATOM     13  N   UNL     1       0.708  10.961  18.557  0.00  0.00    +0.000 N 
ATOM     14  H   UNL     1       0.673  11.075  17.539  0.00  0.00    +0.000 HD
BRANCH  13  15
ATOM     15  C   UNL     1       1.245   9.683  18.862  0.00  0.00    +0.000 A 
ATOM     16  C   UNL     1       1.115   9.063  20.115  0.00  0.00    +0.000 A 
ATOM     17  C   UNL     1       1.646   7.785  20.345  0.00  0.00    +0.000 A 
ATOM     18  C   UNL     1       2.300   7.112  19.313  0.00  0.00    +0.000 A 
ATOM     19  C   UNL     1       2.443   7.713  18.060  0.00  0.00    +0.000 A 
ATOM     20  C   UNL     1       1.899   8.982  17.837  0.00  0.00    +0.000 A 
BRANCH  18  21
ATOM     21  S   UNL     1       3.041   5.513  19.613  0.00  0.00    +0.000 S 
ATOM     22  O   UNL     1       4.475   5.688  19.509  0.00  0.00    +0.000 OA
ATOM     23  O   UNL     1       2.440   4.980  20.818  0.00  0.00    +0.000 OA
BRANCH  21  24
ATOM     24  N   UNL     1       2.527   4.578  18.291  0.00  0.00    +0.000 NA
ATOM     25  C   UNL     1       3.561   4.132  17.345  0.00  0.00    +0.000 C 
ATOM     26  C   UNL     1       1.499   3.558  18.561  0.00  0.00    +0.000 C 
ENDBRANCH  21  24
ENDBRANCH  18  21
ENDBRANCH  13  15
ENDBRANCH   5  13
BRANCH   7  27
ATOM     27  O   UNL     1      -1.521  13.439  21.872  0.00  0.00    +0.000 OA
BRANCH  27  28
ATOM     28  C   UNL     1      -2.207  14.701  22.029  0.00  0.00    +0.000 C 
ATOM     29  C   UNL     1      -3.647  14.429  22.483  0.00  0.00    +0.000 C 
ATOM     30  C   UNL     1      -3.672  13.728  23.846  0.00  0.00    +0.000 C 
ATOM     31  C   UNL     1      -2.941  14.529  24.929  0.00  0.00    +0.000 C 
ATOM     32  C   UNL     1      -1.516  14.883  24.481  0.00  0.00    +0.000 C 
ATOM     33  C   UNL     1      -1.454  15.519  23.087  0.00  0.00    +0.000 C 
BRANCH  31  34
ATOM     34  N   UNL     1      -3.711  15.730  25.264  0.00  0.00    +0.000 NA
ATOM     35  H   UNL     1      -3.357  16.166  26.113  0.00  0.00    +0.000 HD
ATOM     36  H   UNL     1      -4.678  15.476  25.458  0.00  0.00    +0.000 HD
ENDBRANCH  31  34
ENDBRANCH  27  28
ENDBRANCH   7  27
TORSDOF 8
ENDMDL
MODEL 4
REMARK VINA RESULT:      -7.3      2.419      4.266
REMARK  Name = 
REMARK  12 active torsions:
REMARK  status: ('A' for Active; 'I' for Inactive)
REMARK    1  A    between atoms: C_1  and  C_2
REMARK    2  A    between atoms: C_2  and  C_3
REMARK    3  A    between atoms: C_2  and  C_4
REMARK    4  A    between atoms: C_8  and  N_9
REMARK    5  A    between atoms: N_9  and  C_10
REMARK    6  A    between atoms: C_13  and  S_14
REMARK    7  A    between atoms: S_14  and  N_17
REMARK    8  A    between atoms: N_17  and  C_18
REMARK    9  A    between atoms: N_17  and  C_19
REMARK   10  A    between atoms: C_23  and  O_24
REMARK   11  A    between atoms: O_24  and  C_25
REMARK   12  A    between atoms: C_28  and  N_29
REMARK                            x       y       z     vdW  Elec       q    Type
REMARK                         _______ _______ _______ _____ _____    ______ ____
ROOT
ATOM      1  C   UNL     1       2.936  14.545  19.301  0.00  0.00    +0.000 A 
ATOM      2  C   UNL     1       3.499  13.703  18.317  0.00  0.00    +0.000 A 
ATOM      3  N   UNL     1       2.781  12.605  18.077  0.00  0.00    +0.000 NA
ATOM      4  N   UNL     1       1.693  12.725  18.890  0.00  0.00    +0.000 N 
ATOM      5  C   UNL     1       0.580  11.847  18.984  0.00  0.00    +0.000 A 
ATOM      6  C   UNL     1      -0.392  12.154  19.860  0.00  0.00    +0.000 A 
ATOM      7  C   UNL     1      -0.192  13.387  20.646  0.00  0.00    +0.000 A 
ATOM      8  N   UNL     1       0.795  14.222  20.574  0.00  0.00    +0.000 NA
ATOM      9  C   UNL     1       1.769  13.897  19.664  0.00  0.00    +0.000 A 
ENDROOT
BRANCH   1  11
ATOM     10  C   UNL     1       4.319  15.618  21.106  0.00  0.00    +0.000 C 
ATOM     11  C   UNL     1       3.485  15.839  19.840  0.00  0.00    +0.000 C 
ATOM     12  C   UNL     1       4.315  16.598  18.799  0.00  0.00    +0.000 C 
ENDBRANCH   1  11
BRANCH   5  13
ATOM     13  N   UNL     1       0.575  10.685  18.214  0.00  0.00    +0.000 N 
ATOM     14  H   UNL     1      -0.370  10.493  17.865  0.00  0.00    +0.000 HD
BRANCH  13  15
ATOM     15  C   UNL     1       1.181   9.463  18.608  0.00  0.00    +0.000 A 
ATOM     16  C   UNL     1       1.104   8.940  19.908  0.00  0.00    +0.000 A 
ATOM     17  C   UNL     1       1.704   7.713  20.227  0.00  0.00    +0.000 A 
ATOM     18  C   UNL     1       2.372   6.992  19.239  0.00  0.00    +0.000 A 
ATOM     19  C   UNL     1       2.463   7.496  17.939  0.00  0.00    +0.000 A 
ATOM     20  C   UNL     1       1.852   8.715  17.628  0.00  0.00    +0.000 A 
BRANCH  18  21
ATOM     21  S   UNL     1       3.198   5.460  19.649  0.00  0.00    +0.000 S 
ATOM     22  O   UNL     1       4.621   5.733  19.635  0.00  0.00    +0.000 OA
ATOM     23  O   UNL     1       2.553   4.926  20.830  0.00  0.00    +0.000 OA
BRANCH  21  24
ATOM     24  N   UNL     1       2.843   4.448  18.333  0.00  0.00    +0.000 NA
ATOM     25  C   UNL     1       3.910   3.541  17.879  0.00  0.00    +0.000 C 
ATOM     26  C   UNL     1       1.503   3.835  18.310  0.00  0.00    +0.000 C 
ENDBRANCH  21  24
ENDBRANCH  18  21
ENDBRANCH  13  15
ENDBRANCH   5  13
BRANCH   7  27
ATOM     27  O   UNL     1      -1.255  13.533  21.475  0.00  0.00    +0.000 OA
BRANCH  27  28
ATOM     28  C   UNL     1      -1.127  13.038  22.826  0.00  0.00    +0.000 C 
ATOM     29  C   UNL     1      -1.333  14.202  23.804  0.00  0.00    +0.000 C 
ATOM     30  C   UNL     1      -2.740  14.793  23.669  0.00  0.00    +0.000 C 
ATOM     31  C   UNL     1      -3.838  13.746  23.890  0.00  0.00    +0.000 C 
ATOM     32  C   UNL     1      -3.627  12.530  22.978  0.00  0.00    +0.000 C 
ATOM     33  C   UNL     1      -2.203  11.962  23.037  0.00  0.00    +0.000 C 
BRANCH  31  34
ATOM     34  N   UNL     1      -3.877  13.356  25.302  0.00  0.00    +0.000 NA
ATOM     35  H   UNL     1      -2.974  13.504  25.747  0.00  0.00    +0.000 HD
ATOM     36  H   UNL     1      -4.071  12.359  25.378  0.00  0.00    +0.000 HD
ENDBRANCH  31  34
ENDBRANCH  27  28
ENDBRANCH   7  27
TORSDOF 8
ENDMDL
MODEL 5
REMARK VINA RESULT:      -7.2      3.239      4.410
REMARK  Name = 
REMARK  12 active torsions:
REMARK  status: ('A' for Active; 'I' for Inactive)
REMARK    1  A    between atoms: C_1  and  C_2
REMARK    2  A    between atoms: C_2  and  C_3
REMARK    3  A    between atoms: C_2  and  C_4
REMARK    4  A    between atoms: C_8  and  N_9
REMARK    5  A    between atoms: N_9  and  C_10
REMARK    6  A    between atoms: C_13  and  S_14
REMARK    7  A    between atoms: S_14  and  N_17
REMARK    8  A    between atoms: N_17  and  C_18
REMARK    9  A    between atoms: N_17  and  C_19
REMARK   10  A    between atoms: C_23  and  O_24
REMARK   11  A    between atoms: O_24  and  C_25
REMARK   12  A    between atoms: C_28  and  N_29
REMARK                            x       y       z     vdW  Elec       q    Type
REMARK                         _______ _______ _______ _____ _____    ______ ____
ROOT
ATOM      1  C   UNL     1      -2.606  11.004  17.372  0.00  0.00    +0.000 A 
ATOM      2  C   UNL     1      -2.606   9.695  17.900  0.00  0.00    +0.000 A 
ATOM      3  N   UNL     1      -1.578   9.446  18.714  0.00  0.00    +0.000 NA
ATOM      4  N   UNL     1      -0.890  10.622  18.762  0.00  0.00    +0.000 N 
ATOM      5  C   UNL     1       0.265  10.918  19.535  0.00  0.00    +0.000 A 
ATOM      6  C   UNL     1       0.792  12.150  19.433  0.00  0.00    +0.000 A 
ATOM      7  C   UNL     1       0.106  13.075  18.510  0.00  0.00    +0.000 A 
ATOM      8  N   UNL     1      -0.958  12.849  17.807  0.00  0.00    +0.000 NA
ATOM      9  C   UNL     1      -1.487  11.591  17.936  0.00  0.00    +0.000 A 
ENDROOT
BRANCH   1  11
ATOM     10  C   UNL     1      -3.667  10.820  15.099  0.00  0.00    +0.000 C 
ATOM     11  C   UNL     1      -3.586  11.616  16.406  0.00  0.00    +0.000 C 
ATOM     12  C   UNL     1      -4.986  11.761  17.012  0.00  0.00    +0.000 C 
ENDBRANCH   1  11
BRANCH   5  13
ATOM     13  N   UNL     1       0.831   9.908  20.313  0.00  0.00    +0.000 N 
ATOM     14  H   UNL     1       1.396  10.312  21.066  0.00  0.00    +0.000 HD
BRANCH  13  15
ATOM     15  C   UNL     1       1.505   8.777  19.783  0.00  0.00    +0.000 A 
ATOM     16  C   UNL     1       1.690   7.579  20.491  0.00  0.00    +0.000 A 
ATOM     17  C   UNL     1       2.343   6.487  19.900  0.00  0.00    +0.000 A 
ATOM     18  C   UNL     1       2.803   6.584  18.587  0.00  0.00    +0.000 A 
ATOM     19  C   UNL     1       2.633   7.768  17.867  0.00  0.00    +0.000 A 
ATOM     20  C   UNL     1       1.969   8.847  18.460  0.00  0.00    +0.000 A 
BRANCH  18  21
ATOM     21  S   UNL     1       3.697   5.224  17.847  0.00  0.00    +0.000 S 
ATOM     22  O   UNL     1       2.719   4.205  17.522  0.00  0.00    +0.000 OA
ATOM     23  O   UNL     1       4.560   5.780  16.826  0.00  0.00    +0.000 OA
BRANCH  21  24
ATOM     24  N   UNL     1       4.664   4.641  19.116  0.00  0.00    +0.000 NA
ATOM     25  C   UNL     1       4.567   3.205  19.426  0.00  0.00    +0.000 C 
ATOM     26  C   UNL     1       6.037   5.167  19.199  0.00  0.00    +0.000 C 
ENDBRANCH  21  24
ENDBRANCH  18  21
ENDBRANCH  13  15
ENDBRANCH   5  13
BRANCH   7  27
ATOM     27  O   UNL     1       0.772  14.256  18.526  0.00  0.00    +0.000 OA
BRANCH  27  28
ATOM     28  C   UNL     1       1.989  14.332  19.301  0.00  0.00    +0.000 C 
ATOM     29  C   UNL     1       3.189  14.302  18.346  0.00  0.00    +0.000 C 
ATOM     30  C   UNL     1       3.174  15.512  17.405  0.00  0.00    +0.000 C 
ATOM     31  C   UNL     1       3.165  16.843  18.165  0.00  0.00    +0.000 C 
ATOM     32  C   UNL     1       2.017  16.884  19.184  0.00  0.00    +0.000 C 
ATOM     33  C   UNL     1       1.962  15.648  20.091  0.00  0.00    +0.000 C 
BRANCH  31  34
ATOM     34  N   UNL     1       4.462  17.058  18.810  0.00  0.00    +0.000 NA
ATOM     35  H   UNL     1       5.137  16.354  18.518  0.00  0.00    +0.000 HD
ATOM     36  H   UNL     1       4.366  16.957  19.819  0.00  0.00    +0.000 HD
ENDBRANCH  31  34
ENDBRANCH  27  28
ENDBRANCH   7  27
TORSDOF 8
ENDMDL
MODEL 6
REMARK VINA RESULT:      -7.1      3.117      4.277
REMARK  Name = 
REMARK  12 active torsions:
REMARK  status: ('A' for Active; 'I' for Inactive)
REMARK    1  A    between atoms: C_1  and  C_2
REMARK    2  A    between atoms: C_2  and  C_3
REMARK    3  A    between atoms: C_2  and  C_4
REMARK    4  A    between atoms: C_8  and  N_9
REMARK    5  A    between atoms: N_9  and  C_10
REMARK    6  A    between atoms: C_13  and  S_14
REMARK    7  A    between atoms: S_14  and  N_17
REMARK    8  A    between atoms: N_17  and  C_18
REMARK    9  A    between atoms: N_17  and  C_19
REMARK   10  A    between atoms: C_23  and  O_24
REMARK   11  A    between atoms: O_24  and  C_25
REMARK   12  A    between atoms: C_28  and  N_29
REMARK                            x       y       z     vdW  Elec       q    Type
REMARK                         _______ _______ _______ _____ _____    ______ ____
ROOT
ATOM      1  C   UNL     1      -2.493  10.973  17.363  0.00  0.00    +0.000 A 
ATOM      2  C   UNL     1      -2.532   9.692  17.956  0.00  0.00    +0.000 A 
ATOM      3  N   UNL     1      -1.546   9.475  18.829  0.00  0.00    +0.000 NA
ATOM      4  N   UNL     1      -0.848  10.646  18.851  0.00  0.00    +0.000 N 
ATOM      5  C   UNL     1       0.273  10.971  19.661  0.00  0.00    +0.000 A 
ATOM      6  C   UNL     1       0.818  12.192  19.523  0.00  0.00    +0.000 A 
ATOM      7  C   UNL     1       0.186  13.075  18.524  0.00  0.00    +0.000 A 
ATOM      8  N   UNL     1      -0.847  12.823  17.783  0.00  0.00    +0.000 NA
ATOM      9  C   UNL     1      -1.395  11.577  17.950  0.00  0.00    +0.000 A 
ENDROOT
BRANCH   1  11
ATOM     10  C   UNL     1      -3.439  10.691  15.051  0.00  0.00    +0.000 C 
ATOM     11  C   UNL     1      -3.420  11.544  16.323  0.00  0.00    +0.000 C 
ATOM     12  C   UNL     1      -4.847  11.721  16.851  0.00  0.00    +0.000 C 
ENDBRANCH   1  11
BRANCH   5  13
ATOM     13  N   UNL     1       0.791   9.996  20.514  0.00  0.00    +0.000 N 
ATOM     14  H   UNL     1       1.417  10.423  21.204  0.00  0.00    +0.000 HD
BRANCH  13  15
ATOM     15  C   UNL     1       1.353   8.769  20.074  0.00  0.00    +0.000 A 
ATOM     16  C   UNL     1       1.974   8.599  18.827  0.00  0.00    +0.000 A 
ATOM     17  C   UNL     1       2.534   7.366  18.463  0.00  0.00    +0.000 A 
ATOM     18  C   UNL     1       2.488   6.295  19.356  0.00  0.00    +0.000 A 
ATOM     19  C   UNL     1       1.871   6.442  20.601  0.00  0.00    +0.000 A 
ATOM     20  C   UNL     1       1.327   7.679  20.959  0.00  0.00    +0.000 A 
BRANCH  18  21
ATOM     21  S   UNL     1       3.138   4.700  18.878  0.00  0.00    +0.000 S 
ATOM     22  O   UNL     1       2.939   4.576  17.448  0.00  0.00    +0.000 OA
ATOM     23  O   UNL     1       4.459   4.581  19.459  0.00  0.00    +0.000 OA
BRANCH  21  24
ATOM     24  N   UNL     1       2.104   3.597  19.651  0.00  0.00    +0.000 NA
ATOM     25  C   UNL     1       1.156   2.859  18.801  0.00  0.00    +0.000 C 
ATOM     26  C   UNL     1       2.693   2.775  20.722  0.00  0.00    +0.000 C 
ENDBRANCH  21  24
ENDBRANCH  18  21
ENDBRANCH  13  15
ENDBRANCH   5  13
BRANCH   7  27
ATOM     27  O   UNL     1       0.864  14.249  18.512  0.00  0.00    +0.000 OA
BRANCH  27  28
ATOM     28  C   UNL     1       2.077  14.334  19.292  0.00  0.00    +0.000 C 
ATOM     29  C   UNL     1       3.282  14.282  18.344  0.00  0.00    +0.000 C 
ATOM     30  C   UNL     1       3.277  15.475  17.382  0.00  0.00    +0.000 C 
ATOM     31  C   UNL     1       3.269  16.820  18.118  0.00  0.00    +0.000 C 
ATOM     32  C   UNL     1       2.116  16.883  19.130  0.00  0.00    +0.000 C 
ATOM     33  C   UNL     1       2.051  15.664  20.059  0.00  0.00    +0.000 C 
BRANCH  31  34
ATOM     34  N   UNL     1       4.564  17.040  18.766  0.00  0.00    +0.000 NA
ATOM     35  H   UNL     1       5.295  16.492  18.319  0.00  0.00    +0.000 HD
ATOM     36  H   UNL     1       4.523  16.723  19.734  0.00  0.00    +0.000 HD
ENDBRANCH  31  34
ENDBRANCH  27  28
ENDBRANCH   7  27
TORSDOF 8
ENDMDL
MODEL 7
REMARK VINA RESULT:      -7.1      3.164      4.335
REMARK  Name = 
REMARK  12 active torsions:
REMARK  status: ('A' for Active; 'I' for Inactive)
REMARK    1  A    between atoms: C_1  and  C_2
REMARK    2  A    between atoms: C_2  and  C_3
REMARK    3  A    between atoms: C_2  and  C_4
REMARK    4  A    between atoms: C_8  and  N_9
REMARK    5  A    between atoms: N_9  and  C_10
REMARK    6  A    between atoms: C_13  and  S_14
REMARK    7  A    between atoms: S_14  and  N_17
REMARK    8  A    between atoms: N_17  and  C_18
REMARK    9  A    between atoms: N_17  and  C_19
REMARK   10  A    between atoms: C_23  and  O_24
REMARK   11  A    between atoms: O_24  and  C_25
REMARK   12  A    between atoms: C_28  and  N_29
REMARK                            x       y       z     vdW  Elec       q    Type
REMARK                         _______ _______ _______ _____ _____    ______ ____
ROOT
ATOM      1  C   UNL     1      -2.492  10.995  17.408  0.00  0.00    +0.000 A 
ATOM      2  C   UNL     1      -2.520   9.708  17.987  0.00  0.00    +0.000 A 
ATOM      3  N   UNL     1      -1.514   9.478  18.832  0.00  0.00    +0.000 NA
ATOM      4  N   UNL     1      -0.812  10.647  18.851  0.00  0.00    +0.000 N 
ATOM      5  C   UNL     1       0.329  10.959  19.637  0.00  0.00    +0.000 A 
ATOM      6  C   UNL     1       0.874  12.180  19.500  0.00  0.00    +0.000 A 
ATOM      7  C   UNL     1       0.220  13.076  18.526  0.00  0.00    +0.000 A 
ATOM      8  N   UNL     1      -0.831  12.836  17.808  0.00  0.00    +0.000 NA
ATOM      9  C   UNL     1      -1.378  11.589  17.974  0.00  0.00    +0.000 A 
ENDROOT
BRANCH   1  11
ATOM     10  C   UNL     1      -3.450  10.776  15.093  0.00  0.00    +0.000 C 
ATOM     11  C   UNL     1      -3.442  11.580  16.397  0.00  0.00    +0.000 C 
ATOM     12  C   UNL     1      -4.870  11.699  16.942  0.00  0.00    +0.000 C 
ENDBRANCH   1  11
BRANCH   5  13
ATOM     13  N   UNL     1       0.865   9.973  20.466  0.00  0.00    +0.000 N 
ATOM     14  H   UNL     1       1.513  10.390  21.141  0.00  0.00    +0.000 HD
BRANCH  13  15
ATOM     15  C   UNL     1       1.405   8.746  19.999  0.00  0.00    +0.000 A 
ATOM     16  C   UNL     1       2.006   8.589  18.741  0.00  0.00    +0.000 A 
ATOM     17  C   UNL     1       2.546   7.354  18.350  0.00  0.00    +0.000 A 
ATOM     18  C   UNL     1       2.499   6.271  19.227  0.00  0.00    +0.000 A 
ATOM     19  C   UNL     1       1.903   6.406  20.482  0.00  0.00    +0.000 A 
ATOM     20  C   UNL     1       1.379   7.644  20.867  0.00  0.00    +0.000 A 
BRANCH  18  21
ATOM     21  S   UNL     1       3.122   4.675  18.715  0.00  0.00    +0.000 S 
ATOM     22  O   UNL     1       3.251   3.870  19.912  0.00  0.00    +0.000 OA
ATOM     23  O   UNL     1       2.308   4.232  17.602  0.00  0.00    +0.000 OA
BRANCH  21  24
ATOM     24  N   UNL     1       4.683   5.019  18.140  0.00  0.00    +0.000 NA
ATOM     25  C   UNL     1       5.742   5.200  19.146  0.00  0.00    +0.000 C 
ATOM     26  C   UNL     1       5.128   4.279  16.947  0.00  0.00    +0.000 C 
ENDBRANCH  21  24
ENDBRANCH  18  21
ENDBRANCH  13  15
ENDBRANCH   5  13
BRANCH   7  27
ATOM     27  O   UNL     1       0.901  14.249  18.511  0.00  0.00    +0.000 OA
BRANCH  27  28
ATOM     28  C   UNL     1       2.124  14.327  19.277  0.00  0.00    +0.000 C 
ATOM     29  C   UNL     1       3.316  14.308  18.313  0.00  0.00    +0.000 C 
ATOM     30  C   UNL     1       3.288  15.523  17.378  0.00  0.00    +0.000 C 
ATOM     31  C   UNL     1       3.278  16.850  18.145  0.00  0.00    +0.000 C 
ATOM     32  C   UNL     1       2.138  16.880  19.173  0.00  0.00    +0.000 C 
ATOM     33  C   UNL     1       2.096  15.639  20.074  0.00  0.00    +0.000 C 
BRANCH  31  34
ATOM     34  N   UNL     1       4.579  17.068  18.781  0.00  0.00    +0.000 NA
ATOM     35  H   UNL     1       5.004  17.935  18.458  0.00  0.00    +0.000 HD
ATOM     36  H   UNL     1       5.221  16.322  18.517  0.00  0.00    +0.000 HD
ENDBRANCH  31  34
ENDBRANCH  27  28
ENDBRANCH   7  27
TORSDOF 8
ENDMDL
MODEL 8
REMARK VINA RESULT:      -7.1      2.491      4.416
REMARK  Name = 
REMARK  12 active torsions:
REMARK  status: ('A' for Active; 'I' for Inactive)
REMARK    1  A    between atoms: C_1  and  C_2
REMARK    2  A    between atoms: C_2  and  C_3
REMARK    3  A    between atoms: C_2  and  C_4
REMARK    4  A    between atoms: C_8  and  N_9
REMARK    5  A    between atoms: N_9  and  C_10
REMARK    6  A    between atoms: C_13  and  S_14
REMARK    7  A    between atoms: S_14  and  N_17
REMARK    8  A    between atoms: N_17  and  C_18
REMARK    9  A    between atoms: N_17  and  C_19
REMARK   10  A    between atoms: C_23  and  O_24
REMARK   11  A    between atoms: O_24  and  C_25
REMARK   12  A    between atoms: C_28  and  N_29
REMARK                            x       y       z     vdW  Elec       q    Type
REMARK                         _______ _______ _______ _____ _____    ______ ____
ROOT
ATOM      1  C   UNL     1       2.942  14.553  19.385  0.00  0.00    +0.000 A 
ATOM      2  C   UNL     1       3.403  13.797  18.285  0.00  0.00    +0.000 A 
ATOM      3  N   UNL     1       2.730  12.661  18.095  0.00  0.00    +0.000 NA
ATOM      4  N   UNL     1       1.772  12.667  19.066  0.00  0.00    +0.000 N 
ATOM      5  C   UNL     1       0.747  11.706  19.276  0.00  0.00    +0.000 A 
ATOM      6  C   UNL     1      -0.100  11.903  20.301  0.00  0.00    +0.000 A 
ATOM      7  C   UNL     1       0.136  13.112  21.115  0.00  0.00    +0.000 A 
ATOM      8  N   UNL     1       1.044  14.019  20.942  0.00  0.00    +0.000 NA
ATOM      9  C   UNL     1       1.888  13.806  19.882  0.00  0.00    +0.000 A 
ENDROOT
BRANCH   1  11
ATOM     10  C   UNL     1       4.335  15.659  21.161  0.00  0.00    +0.000 C 
ATOM     11  C   UNL     1       3.480  15.859  19.907  0.00  0.00    +0.000 C 
ATOM     12  C   UNL     1       4.283  16.620  18.847  0.00  0.00    +0.000 C 
ENDBRANCH   1  11
BRANCH   5  13
ATOM     13  N   UNL     1       0.700  10.582  18.453  0.00  0.00    +0.000 N 
ATOM     14  H   UNL     1      -0.259  10.413  18.134  0.00  0.00    +0.000 HD
BRANCH  13  15
ATOM     15  C   UNL     1       1.310   9.338  18.766  0.00  0.00    +0.000 A 
ATOM     16  C   UNL     1       1.246   8.737  20.033  0.00  0.00    +0.000 A 
ATOM     17  C   UNL     1       1.848   7.493  20.271  0.00  0.00    +0.000 A 
ATOM     18  C   UNL     1       2.507   6.834  19.233  0.00  0.00    +0.000 A 
ATOM     19  C   UNL     1       2.585   7.416  17.966  0.00  0.00    +0.000 A 
ATOM     20  C   UNL     1       1.971   8.651  17.736  0.00  0.00    +0.000 A 
BRANCH  18  21
ATOM     21  S   UNL     1       3.336   5.280  19.541  0.00  0.00    +0.000 S 
ATOM     22  O   UNL     1       4.759   5.550  19.512  0.00  0.00    +0.000 OA
ATOM     23  O   UNL     1       2.715   4.684  20.705  0.00  0.00    +0.000 OA
BRANCH  21  24
ATOM     24  N   UNL     1       2.950   4.342  18.180  0.00  0.00    +0.000 NA
ATOM     25  C   UNL     1       4.072   3.863  17.356  0.00  0.00    +0.000 C 
ATOM     26  C   UNL     1       1.876   3.347  18.343  0.00  0.00    +0.000 C 
ENDBRANCH  21  24
ENDBRANCH  18  21
ENDBRANCH  13  15
ENDBRANCH   5  13
BRANCH   7  27
ATOM     27  O   UNL     1      -0.796  13.144  22.099  0.00  0.00    +0.000 OA
BRANCH  27  28
ATOM     28  C   UNL     1      -2.074  13.747  21.798  0.00  0.00    +0.000 C 
ATOM     29  C   UNL     1      -3.182  12.718  22.059  0.00  0.00    +0.000 C 
ATOM     30  C   UNL     1      -3.212  12.304  23.534  0.00  0.00    +0.000 C 
ATOM     31  C   UNL     1      -3.401  13.501  24.473  0.00  0.00    +0.000 C 
ATOM     32  C   UNL     1      -2.351  14.587  24.194  0.00  0.00    +0.000 C 
ATOM     33  C   UNL     1      -2.246  14.968  22.712  0.00  0.00    +0.000 C 
BRANCH  31  34
ATOM     34  N   UNL     1      -4.762  14.027  24.344  0.00  0.00    +0.000 NA
ATOM     35  H   UNL     1      -4.816  14.988  24.673  0.00  0.00    +0.000 HD
ATOM     36  H   UNL     1      -5.396  13.489  24.933  0.00  0.00    +0.000 HD
ENDBRANCH  31  34
ENDBRANCH  27  28
ENDBRANCH   7  27
TORSDOF 8
ENDMDL
MODEL 9
REMARK VINA RESULT:      -7.1      0.974      1.459
REMARK  Name = 
REMARK  12 active torsions:
REMARK  status: ('A' for Active; 'I' for Inactive)
REMARK    1  A    between atoms: C_1  and  C_2
REMARK    2  A    between atoms: C_2  and  C_3
REMARK    3  A    between atoms: C_2  and  C_4
REMARK    4  A    between atoms: C_8  and  N_9
REMARK    5  A    between atoms: N_9  and  C_10
REMARK    6  A    between atoms: C_13  and  S_14
REMARK    7  A    between atoms: S_14  and  N_17
REMARK    8  A    between atoms: N_17  and  C_18
REMARK    9  A    between atoms: N_17  and  C_19
REMARK   10  A    between atoms: C_23  and  O_24
REMARK   11  A    between atoms: O_24  and  C_25
REMARK   12  A    between atoms: C_28  and  N_29
REMARK                            x       y       z     vdW  Elec       q    Type
REMARK                         _______ _______ _______ _____ _____    ______ ____
ROOT
ATOM      1  C   UNL     1      -3.539  10.724  17.624  0.00  0.00    +0.000 A 
ATOM      2  C   UNL     1      -2.644   9.898  16.909  0.00  0.00    +0.000 A 
ATOM      3  N   UNL     1      -1.369  10.051  17.269  0.00  0.00    +0.000 NA
ATOM      4  N   UNL     1      -1.407  10.975  18.272  0.00  0.00    +0.000 N 
ATOM      5  C   UNL     1      -0.319  11.458  19.046  0.00  0.00    +0.000 A 
ATOM      6  C   UNL     1      -0.578  12.377  19.992  0.00  0.00    +0.000 A 
ATOM      7  C   UNL     1      -1.987  12.796  20.121  0.00  0.00    +0.000 A 
ATOM      8  N   UNL     1      -3.008  12.365  19.450  0.00  0.00    +0.000 NA
ATOM      9  C   UNL     1      -2.723  11.418  18.500  0.00  0.00    +0.000 A 
ENDROOT
BRANCH   1  11
ATOM     10  C   UNL     1      -5.773  10.459  18.748  0.00  0.00    +0.000 C 
ATOM     11  C   UNL     1      -5.032  10.836  17.462  0.00  0.00    +0.000 C 
ATOM     12  C   UNL     1      -5.463  12.233  17.005  0.00  0.00    +0.000 C 
ENDBRANCH   1  11
BRANCH   5  13
ATOM     13  N   UNL     1       0.967  11.006  18.754  0.00  0.00    +0.000 N 
ATOM     14  H   UNL     1       1.291  11.402  17.865  0.00  0.00    +0.000 HD
BRANCH  13  15
ATOM     15  C   UNL     1       1.371   9.647  18.830  0.00  0.00    +0.000 A 
ATOM     16  C   UNL     1       1.963   8.949  17.765  0.00  0.00    +0.000 A 
ATOM     17  C   UNL     1       2.364   7.614  17.914  0.00  0.00    +0.000 A 
ATOM     18  C   UNL     1       2.189   6.971  19.139  0.00  0.00    +0.000 A 
ATOM     19  C   UNL     1       1.599   7.646  20.210  0.00  0.00    +0.000 A 
ATOM     20  C   UNL     1       1.214   8.981  20.056  0.00  0.00    +0.000 A 
BRANCH  18  21
ATOM     21  S   UNL     1       2.634   5.249  19.320  0.00  0.00    +0.000 S 
ATOM     22  O   UNL     1       2.887   5.026  20.729  0.00  0.00    +0.000 OA
ATOM     23  O   UNL     1       1.640   4.470  18.610  0.00  0.00    +0.000 OA
BRANCH  21  24
ATOM     24  N   UNL     1       4.111   5.126  18.492  0.00  0.00    +0.000 NA
ATOM     25  C   UNL     1       5.339   5.247  19.294  0.00  0.00    +0.000 C 
ATOM     26  C   UNL     1       4.197   4.102  17.438  0.00  0.00    +0.000 C 
ENDBRANCH  21  24
ENDBRANCH  18  21
ENDBRANCH  13  15
ENDBRANCH   5  13
BRANCH   7  27
ATOM     27  O   UNL     1      -2.061  13.725  21.106  0.00  0.00    +0.000 OA
BRANCH  27  28
ATOM     28  C   UNL     1      -3.323  13.882  21.791  0.00  0.00    +0.000 C 
ATOM     29  C   UNL     1      -3.358  12.927  22.992  0.00  0.00    +0.000 C 
ATOM     30  C   UNL     1      -2.252  13.265  23.997  0.00  0.00    +0.000 C 
ATOM     31  C   UNL     1      -2.339  14.711  24.497  0.00  0.00    +0.000 C 
ATOM     32  C   UNL     1      -2.377  15.697  23.320  0.00  0.00    +0.000 C 
ATOM     33  C   UNL     1      -3.427  15.340  22.260  0.00  0.00    +0.000 C 
BRANCH  31  34
ATOM     34  N   UNL     1      -3.507  14.869  25.366  0.00  0.00    +0.000 NA
ATOM     35  H   UNL     1      -3.382  15.646  26.011  0.00  0.00    +0.000 HD
ATOM     36  H   UNL     1      -3.622  14.037  25.944  0.00  0.00    +0.000 HD
ENDBRANCH  31  34
ENDBRANCH  27  28
ENDBRANCH   7  27
TORSDOF 8
ENDMDL
