MODEL 1
REMARK VINA RESULT:      -6.8      0.000      0.000
REMARK  Name = 
REMARK  12 active torsions:
REMARK  status: ('A' for Active; 'I' for Inactive)
REMARK    1  A    between atoms: C_1  and  O_2
REMARK    2  A    between atoms: O_2  and  C_3
REMARK    3  A    between atoms: C_5  and  N_6
REMARK    4  A    between atoms: C_7  and  C_9
REMARK    5  A    between atoms: C_9  and  C_10
REMARK    6  A    between atoms: C_9  and  C_17
REMARK    7  A    between atoms: C_17  and  C_18
REMARK    8  A    between atoms: C_17  and  C_19
REMARK    9  A    between atoms: C_21  and  O_22
REMARK   10  A    between atoms: O_22  and  C_23
REMARK   11  A    between atoms: C_24  and  O_25
REMARK   12  A    between atoms: O_25  and  C_26
REMARK                            x       y       z     vdW  Elec       q    Type
REMARK                         _______ _______ _______ _____ _____    ______ ____
ROOT
ATOM      1  N   UNL     1       3.819   6.823  16.898  0.00  0.00    +0.000 N 
ATOM      2  C   UNL     1       4.899   6.723  16.072  0.00  0.00    +0.000 C 
ATOM      3  O   UNL     1       4.986   7.513  15.124  0.00  0.00    +0.000 OA
ATOM      4  H   UNL     1       3.124   7.500  16.612  0.00  0.00    +0.000 HD
ENDROOT
BRANCH   1   7
ATOM      5  C   UNL     1       2.341   5.859  20.136  0.00  0.00    +0.000 A 
ATOM      6  C   UNL     1       2.820   6.653  19.080  0.00  0.00    +0.000 A 
ATOM      7  C   UNL     1       3.561   6.084  18.058  0.00  0.00    +0.000 A 
ATOM      8  C   UNL     1       3.899   4.741  18.112  0.00  0.00    +0.000 A 
ATOM      9  C   UNL     1       3.539   3.957  19.217  0.00  0.00    +0.000 A 
ATOM     10  C   UNL     1       2.737   4.505  20.248  0.00  0.00    +0.000 A 
BRANCH   5  12
ATOM     11  C   UNL     1       1.274   7.815  20.942  0.00  0.00    +0.000 C 
ATOM     12  O   UNL     1       1.500   6.408  21.073  0.00  0.00    +0.000 OA
ENDBRANCH   5  12
BRANCH   9  13
ATOM     13  O   UNL     1       4.041   2.685  19.095  0.00  0.00    +0.000 OA
ATOM     14  C   UNL     1       3.437   1.763  18.204  0.00  0.00    +0.000 C 
ENDBRANCH   9  13
BRANCH  10  15
ATOM     15  O   UNL     1       2.441   3.663  21.283  0.00  0.00    +0.000 OA
ATOM     16  C   UNL     1       1.298   2.824  21.241  0.00  0.00    +0.000 C 
ENDBRANCH  10  15
ENDBRANCH   1   7
BRANCH   2  17
ATOM     17  C   UNL     1       5.912   5.578  16.292  0.00  0.00    +0.000 C 
BRANCH  17  18
ATOM     18  C   UNL     1       6.182   4.919  14.938  0.00  0.00    +0.000 A 
ATOM     19  C   UNL     1       5.275   3.994  14.391  0.00  0.00    +0.000 A 
ATOM     20  C   UNL     1       5.553   3.351  13.183  0.00  0.00    +0.000 A 
ATOM     21  C   UNL     1       6.744   3.621  12.516  0.00  0.00    +0.000 A 
ATOM     22 CL   UNL     1       7.097   2.814  11.037  0.00  0.00    +0.000 Cl
ATOM     23  C   UNL     1       7.655   4.534  13.041  0.00  0.00    +0.000 A 
ATOM     24  C   UNL     1       7.372   5.187  14.244  0.00  0.00    +0.000 A 
ENDBRANCH  17  18
BRANCH  17  25
ATOM     25  C   UNL     1       7.212   6.100  16.976  0.00  0.00    +0.000 C 
ATOM     26  C   UNL     1       7.052   7.548  17.458  0.00  0.00    +0.000 C 
ATOM     27  C   UNL     1       7.602   5.231  18.180  0.00  0.00    +0.000 C 
ENDBRANCH  17  25
ENDBRANCH   2  17
TORSDOF 7
ENDMDL
MODEL 2
REMARK VINA RESULT:      -6.8      0.803      1.240
REMARK  Name = 
REMARK  12 active torsions:
REMARK  status: ('A' for Active; 'I' for Inactive)
REMARK    1  A    between atoms: C_1  and  O_2
REMARK    2  A    between atoms: O_2  and  C_3
REMARK    3  A    between atoms: C_5  and  N_6
REMARK    4  A    between atoms: C_7  and  C_9
REMARK    5  A    between atoms: C_9  and  C_10
REMARK    6  A    between atoms: C_9  and  C_17
REMARK    7  A    between atoms: C_17  and  C_18
REMARK    8  A    between atoms: C_17  and  C_19
REMARK    9  A    between atoms: C_21  and  O_22
REMARK   10  A    between atoms: O_22  and  C_23
REMARK   11  A    between atoms: C_24  and  O_25
REMARK   12  A    between atoms: O_25  and  C_26
REMARK                            x       y       z     vdW  Elec       q    Type
REMARK                         _______ _______ _______ _____ _____    ______ ____
ROOT
ATOM      1  N   UNL     1       3.749   6.881  17.085  0.00  0.00    +0.000 N 
ATOM      2  C   UNL     1       4.961   6.722  16.480  0.00  0.00    +0.000 C 
ATOM      3  O   UNL     1       5.341   7.596  15.692  0.00  0.00    +0.000 OA
ATOM      4  H   UNL     1       3.217   7.682  16.770  0.00  0.00    +0.000 HD
ENDROOT
BRANCH   1   7
ATOM      5  C   UNL     1       1.896   5.861  20.105  0.00  0.00    +0.000 A 
ATOM      6  C   UNL     1       2.701   6.614  19.234  0.00  0.00    +0.000 A 
ATOM      7  C   UNL     1       3.165   6.057  18.053  0.00  0.00    +0.000 A 
ATOM      8  C   UNL     1       2.900   4.729  17.763  0.00  0.00    +0.000 A 
ATOM      9  C   UNL     1       2.206   3.922  18.675  0.00  0.00    +0.000 A 
ATOM     10  C   UNL     1       1.678   4.483  19.865  0.00  0.00    +0.000 A 
BRANCH   5  12
ATOM     11  C   UNL     1       1.240   7.888  21.140  0.00  0.00    +0.000 C 
ATOM     12  O   UNL     1       1.336   6.462  21.206  0.00  0.00    +0.000 OA
ENDBRANCH   5  12
BRANCH   9  13
ATOM     13  O   UNL     1       2.125   2.629  18.219  0.00  0.00    +0.000 OA
ATOM     14  C   UNL     1       3.223   1.747  18.380  0.00  0.00    +0.000 C 
ENDBRANCH   9  13
BRANCH  10  15
ATOM     15  O   UNL     1       1.018   3.616  20.690  0.00  0.00    +0.000 OA
ATOM     16  C   UNL     1       1.714   2.859  21.665  0.00  0.00    +0.000 C 
ENDBRANCH  10  15
ENDBRANCH   1   7
BRANCH   2  17
ATOM     17  C   UNL     1       5.761   5.424  16.726  0.00  0.00    +0.000 C 
BRANCH  17  18
ATOM     18  C   UNL     1       6.123   4.827  15.366  0.00  0.00    +0.000 A 
ATOM     19  C   UNL     1       7.354   5.118  14.753  0.00  0.00    +0.000 A 
ATOM     20  C   UNL     1       7.656   4.617  13.485  0.00  0.00    +0.000 A 
ATOM     21  C   UNL     1       6.726   3.828  12.814  0.00  0.00    +0.000 A 
ATOM     22 CL   UNL     1       7.089   3.228  11.243  0.00  0.00    +0.000 Cl
ATOM     23  C   UNL     1       5.501   3.528  13.405  0.00  0.00    +0.000 A 
ATOM     24  C   UNL     1       5.203   4.019  14.679  0.00  0.00    +0.000 A 
ENDBRANCH  17  18
BRANCH  17  25
ATOM     25  C   UNL     1       7.011   5.693  17.617  0.00  0.00    +0.000 C 
ATOM     26  C   UNL     1       7.439   7.165  17.556  0.00  0.00    +0.000 C 
ATOM     27  C   UNL     1       6.746   5.328  19.085  0.00  0.00    +0.000 C 
ENDBRANCH  17  25
ENDBRANCH   2  17
TORSDOF 7
ENDMDL
MODEL 3
REMARK VINA RESULT:      -6.7      6.184      9.459
REMARK  Name = 
REMARK  12 active torsions:
REMARK  status: ('A' for Active; 'I' for Inactive)
REMARK    1  A    between atoms: C_1  and  O_2
REMARK    2  A    between atoms: O_2  and  C_3
REMARK    3  A    between atoms: C_5  and  N_6
REMARK    4  A    between atoms: C_7  and  C_9
REMARK    5  A    between atoms: C_9  and  C_10
REMARK    6  A    between atoms: C_9  and  C_17
REMARK    7  A    between atoms: C_17  and  C_18
REMARK    8  A    between atoms: C_17  and  C_19
REMARK    9  A    between atoms: C_21  and  O_22
REMARK   10  A    between atoms: O_22  and  C_23
REMARK   11  A    between atoms: C_24  and  O_25
REMARK   12  A    between atoms: O_25  and  C_26
REMARK                            x       y       z     vdW  Elec       q    Type
REMARK                         _______ _______ _______ _____ _____    ______ ____
ROOT
ATOM      1  N   UNL     1      -0.725  12.514  19.370  0.00  0.00    +0.000 N 
ATOM      2  C   UNL     1       0.194  11.788  20.069  0.00  0.00    +0.000 C 
ATOM      3  O   UNL     1       1.307  12.288  20.268  0.00  0.00    +0.000 OA
ATOM      4  H   UNL     1      -0.382  13.390  18.997  0.00  0.00    +0.000 HD
ENDROOT
BRANCH   1   7
ATOM      5  C   UNL     1      -4.399  12.394  19.644  0.00  0.00    +0.000 A 
ATOM      6  C   UNL     1      -3.046  12.502  20.002  0.00  0.00    +0.000 A 
ATOM      7  C   UNL     1      -2.053  12.171  19.095  0.00  0.00    +0.000 A 
ATOM      8  C   UNL     1      -2.392  11.657  17.854  0.00  0.00    +0.000 A 
ATOM      9  C   UNL     1      -3.733  11.422  17.520  0.00  0.00    +0.000 A 
ATOM     10  C   UNL     1      -4.767  11.801  18.411  0.00  0.00    +0.000 A 
BRANCH   5  12
ATOM     11  C   UNL     1      -5.013  12.833  21.889  0.00  0.00    +0.000 C 
ATOM     12  O   UNL     1      -5.371  12.847  20.503  0.00  0.00    +0.000 OA
ENDBRANCH   5  12
BRANCH   9  13
ATOM     13  O   UNL     1      -3.832  10.842  16.279  0.00  0.00    +0.000 OA
ATOM     14  C   UNL     1      -2.712  10.186  15.708  0.00  0.00    +0.000 C 
ENDBRANCH   9  13
BRANCH  10  15
ATOM     15  O   UNL     1      -6.040  11.531  17.996  0.00  0.00    +0.000 OA
ATOM     16  C   UNL     1      -6.839  12.527  17.380  0.00  0.00    +0.000 C 
ENDBRANCH  10  15
ENDBRANCH   1   7
BRANCH   2  17
ATOM     17  C   UNL     1      -0.155  10.345  20.497  0.00  0.00    +0.000 C 
BRANCH  17  18
ATOM     18  C   UNL     1       0.771   9.391  19.742  0.00  0.00    +0.000 A 
ATOM     19  C   UNL     1       1.414   8.331  20.405  0.00  0.00    +0.000 A 
ATOM     20  C   UNL     1       2.304   7.498  19.724  0.00  0.00    +0.000 A 
ATOM     21  C   UNL     1       2.566   7.723  18.375  0.00  0.00    +0.000 A 
ATOM     22 CL   UNL     1       3.678   6.709  17.540  0.00  0.00    +0.000 Cl
ATOM     23  C   UNL     1       1.939   8.767  17.701  0.00  0.00    +0.000 A 
ATOM     24  C   UNL     1       1.039   9.594  18.379  0.00  0.00    +0.000 A 
ENDBRANCH  17  18
BRANCH  17  25
ATOM     25  C   UNL     1      -0.058  10.178  22.044  0.00  0.00    +0.000 C 
ATOM     26  C   UNL     1      -0.805  11.299  22.779  0.00  0.00    +0.000 C 
ATOM     27  C   UNL     1      -0.638   8.832  22.502  0.00  0.00    +0.000 C 
ENDBRANCH  17  25
ENDBRANCH   2  17
TORSDOF 7
ENDMDL
MODEL 4
REMARK VINA RESULT:      -6.6      6.136      9.164
REMARK  Name = 
REMARK  12 active torsions:
REMARK  status: ('A' for Active; 'I' for Inactive)
REMARK    1  A    between atoms: C_1  and  O_2
REMARK    2  A    between atoms: O_2  and  C_3
REMARK    3  A    between atoms: C_5  and  N_6
REMARK    4  A    between atoms: C_7  and  C_9
REMARK    5  A    between atoms: C_9  and  C_10
REMARK    6  A    between atoms: C_9  and  C_17
REMARK    7  A    between atoms: C_17  and  C_18
REMARK    8  A    between atoms: C_17  and  C_19
REMARK    9  A    between atoms: C_21  and  O_22
REMARK   10  A    between atoms: O_22  and  C_23
REMARK   11  A    between atoms: C_24  and  O_25
REMARK   12  A    between atoms: O_25  and  C_26
REMARK                            x       y       z     vdW  Elec       q    Type
REMARK                         _______ _______ _______ _____ _____    ______ ____
ROOT
ATOM      1  N   UNL     1      -0.473  12.249  18.179  0.00  0.00    +0.000 N 
ATOM      2  C   UNL     1       0.506  11.750  18.988  0.00  0.00    +0.000 C 
ATOM      3  O   UNL     1       1.643  12.227  18.894  0.00  0.00    +0.000 OA
ATOM      4  H   UNL     1      -0.158  12.929  17.499  0.00  0.00    +0.000 HD
ENDROOT
BRANCH   1   7
ATOM      5  C   UNL     1      -4.016  12.104  19.188  0.00  0.00    +0.000 A 
ATOM      6  C   UNL     1      -2.617  12.210  19.267  0.00  0.00    +0.000 A 
ATOM      7  C   UNL     1      -1.829  11.906  18.170  0.00  0.00    +0.000 A 
ATOM      8  C   UNL     1      -2.413  11.421  17.011  0.00  0.00    +0.000 A 
ATOM      9  C   UNL     1      -3.794  11.188  16.949  0.00  0.00    +0.000 A 
ATOM     10  C   UNL     1      -4.625  11.540  18.041  0.00  0.00    +0.000 A 
BRANCH   5  12
ATOM     11  C   UNL     1      -4.467  13.828  20.749  0.00  0.00    +0.000 C 
ATOM     12  O   UNL     1      -4.793  12.531  20.237  0.00  0.00    +0.000 OA
ENDBRANCH   5  12
BRANCH   9  13
ATOM     13  O   UNL     1      -4.141  10.638  15.740  0.00  0.00    +0.000 OA
ATOM     14  C   UNL     1      -3.136  10.203  14.840  0.00  0.00    +0.000 C 
ENDBRANCH   9  13
BRANCH  10  15
ATOM     15  O   UNL     1      -5.957  11.274  17.885  0.00  0.00    +0.000 OA
ATOM     16  C   UNL     1      -6.599  10.275  18.659  0.00  0.00    +0.000 C 
ENDBRANCH  10  15
ENDBRANCH   1   7
BRANCH   2  17
ATOM     17  C   UNL     1       0.182  10.556  19.913  0.00  0.00    +0.000 C 
BRANCH  17  18
ATOM     18  C   UNL     1       1.052   9.375  19.481  0.00  0.00    +0.000 A 
ATOM     19  C   UNL     1       1.453   9.223  18.142  0.00  0.00    +0.000 A 
ATOM     20  C   UNL     1       2.199   8.113  17.742  0.00  0.00    +0.000 A 
ATOM     21  C   UNL     1       2.542   7.139  18.675  0.00  0.00    +0.000 A 
ATOM     22 CL   UNL     1       3.443   5.759  18.178  0.00  0.00    +0.000 Cl
ATOM     23  C   UNL     1       2.155   7.271  20.006  0.00  0.00    +0.000 A 
ATOM     24  C   UNL     1       1.418   8.388  20.410  0.00  0.00    +0.000 A 
ENDBRANCH  17  18
BRANCH  17  25
ATOM     25  C   UNL     1       0.381  10.934  21.411  0.00  0.00    +0.000 C 
ATOM     26  C   UNL     1       0.037  12.406  21.671  0.00  0.00    +0.000 C 
ATOM     27  C   UNL     1      -0.489  10.066  22.332  0.00  0.00    +0.000 C 
ENDBRANCH  17  25
ENDBRANCH   2  17
TORSDOF 7
ENDMDL
MODEL 5
REMARK VINA RESULT:      -6.6      5.991      9.623
REMARK  Name = 
REMARK  12 active torsions:
REMARK  status: ('A' for Active; 'I' for Inactive)
REMARK    1  A    between atoms: C_1  and  O_2
REMARK    2  A    between atoms: O_2  and  C_3
REMARK    3  A    between atoms: C_5  and  N_6
REMARK    4  A    between atoms: C_7  and  C_9
REMARK    5  A    between atoms: C_9  and  C_10
REMARK    6  A    between atoms: C_9  and  C_17
REMARK    7  A    between atoms: C_17  and  C_18
REMARK    8  A    between atoms: C_17  and  C_19
REMARK    9  A    between atoms: C_21  and  O_22
REMARK   10  A    between atoms: O_22  and  C_23
REMARK   11  A    between atoms: C_24  and  O_25
REMARK   12  A    between atoms: O_25  and  C_26
REMARK                            x       y       z     vdW  Elec       q    Type
REMARK                         _______ _______ _______ _____ _____    ______ ____
ROOT
ATOM      1  N   UNL     1      -0.314  12.658  19.789  0.00  0.00    +0.000 N 
ATOM      2  C   UNL     1       0.445  11.773  20.497  0.00  0.00    +0.000 C 
ATOM      3  O   UNL     1       1.550  12.147  20.908  0.00  0.00    +0.000 OA
ATOM      4  H   UNL     1       0.136  13.541  19.589  0.00  0.00    +0.000 HD
ENDROOT
BRANCH   1   7
ATOM      5  C   UNL     1      -3.053  11.565  17.576  0.00  0.00    +0.000 A 
ATOM      6  C   UNL     1      -1.788  11.998  18.006  0.00  0.00    +0.000 A 
ATOM      7  C   UNL     1      -1.610  12.467  19.297  0.00  0.00    +0.000 A 
ATOM      8  C   UNL     1      -2.697  12.585  20.147  0.00  0.00    +0.000 A 
ATOM      9  C   UNL     1      -3.990  12.278  19.700  0.00  0.00    +0.000 A 
ATOM     10  C   UNL     1      -4.189  11.748  18.402  0.00  0.00    +0.000 A 
BRANCH   5  12
ATOM     11  C   UNL     1      -2.532   9.722  16.183  0.00  0.00    +0.000 C 
ATOM     12  O   UNL     1      -3.191  10.982  16.340  0.00  0.00    +0.000 OA
ENDBRANCH   5  12
BRANCH   9  13
ATOM     13  O   UNL     1      -4.918  12.540  20.679  0.00  0.00    +0.000 OA
ATOM     14  C   UNL     1      -5.133  13.870  21.119  0.00  0.00    +0.000 C 
ENDBRANCH   9  13
BRANCH  10  15
ATOM     15  O   UNL     1      -5.485  11.482  18.059  0.00  0.00    +0.000 OA
ATOM     16  C   UNL     1      -6.277  12.444  17.383  0.00  0.00    +0.000 C 
ENDBRANCH  10  15
ENDBRANCH   1   7
BRANCH   2  17
ATOM     17  C   UNL     1      -0.058  10.323  20.673  0.00  0.00    +0.000 C 
BRANCH  17  18
ATOM     18  C   UNL     1       0.843   9.407  19.843  0.00  0.00    +0.000 A 
ATOM     19  C   UNL     1       1.448   8.275  20.417  0.00  0.00    +0.000 A 
ATOM     20  C   UNL     1       2.316   7.474  19.671  0.00  0.00    +0.000 A 
ATOM     21  C   UNL     1       2.592   7.803  18.347  0.00  0.00    +0.000 A 
ATOM     22 CL   UNL     1       3.677   6.829  17.434  0.00  0.00    +0.000 Cl
ATOM     23  C   UNL     1       2.002   8.920  17.761  0.00  0.00    +0.000 A 
ATOM     24  C   UNL     1       1.125   9.715  18.503  0.00  0.00    +0.000 A 
ENDBRANCH  17  18
BRANCH  17  25
ATOM     25  C   UNL     1      -0.101   9.921  22.178  0.00  0.00    +0.000 C 
ATOM     26  C   UNL     1      -0.957  10.896  22.997  0.00  0.00    +0.000 C 
ATOM     27  C   UNL     1      -0.666   8.506  22.367  0.00  0.00    +0.000 C 
ENDBRANCH  17  25
ENDBRANCH   2  17
TORSDOF 7
ENDMDL
MODEL 6
REMARK VINA RESULT:      -6.6      0.966      2.862
REMARK  Name = 
REMARK  12 active torsions:
REMARK  status: ('A' for Active; 'I' for Inactive)
REMARK    1  A    between atoms: C_1  and  O_2
REMARK    2  A    between atoms: O_2  and  C_3
REMARK    3  A    between atoms: C_5  and  N_6
REMARK    4  A    between atoms: C_7  and  C_9
REMARK    5  A    between atoms: C_9  and  C_10
REMARK    6  A    between atoms: C_9  and  C_17
REMARK    7  A    between atoms: C_17  and  C_18
REMARK    8  A    between atoms: C_17  and  C_19
REMARK    9  A    between atoms: C_21  and  O_22
REMARK   10  A    between atoms: O_22  and  C_23
REMARK   11  A    between atoms: C_24  and  O_25
REMARK   12  A    between atoms: O_25  and  C_26
REMARK                            x       y       z     vdW  Elec       q    Type
REMARK                         _______ _______ _______ _____ _____    ______ ____
ROOT
ATOM      1  N   UNL     1       3.913   7.123  17.334  0.00  0.00    +0.000 N 
ATOM      2  C   UNL     1       5.166   6.837  16.876  0.00  0.00    +0.000 C 
ATOM      3  O   UNL     1       5.783   7.721  16.270  0.00  0.00    +0.000 OA
ATOM      4  H   UNL     1       3.557   8.030  17.065  0.00  0.00    +0.000 HD
ENDROOT
BRANCH   1   7
ATOM      5  C   UNL     1       2.270   4.075  18.601  0.00  0.00    +0.000 A 
ATOM      6  C   UNL     1       2.896   4.978  17.726  0.00  0.00    +0.000 A 
ATOM      7  C   UNL     1       3.077   6.301  18.097  0.00  0.00    +0.000 A 
ATOM      8  C   UNL     1       2.570   6.757  19.303  0.00  0.00    +0.000 A 
ATOM      9  C   UNL     1       1.832   5.906  20.136  0.00  0.00    +0.000 A 
ATOM     10  C   UNL     1       1.679   4.537  19.802  0.00  0.00    +0.000 A 
BRANCH   5  12
ATOM     11  C   UNL     1       3.470   2.136  17.962  0.00  0.00    +0.000 C 
ATOM     12  O   UNL     1       2.212   2.741  18.278  0.00  0.00    +0.000 OA
ENDBRANCH   5  12
BRANCH   9  13
ATOM     13  O   UNL     1       1.364   6.584  21.235  0.00  0.00    +0.000 OA
ATOM     14  C   UNL     1       1.245   7.997  21.202  0.00  0.00    +0.000 C 
ENDBRANCH   9  13
BRANCH  10  15
ATOM     15  O   UNL     1       0.942   3.789  20.677  0.00  0.00    +0.000 OA
ATOM     16  C   UNL     1       1.568   2.941  21.625  0.00  0.00    +0.000 C 
ENDBRANCH  10  15
ENDBRANCH   1   7
BRANCH   2  17
ATOM     17  C   UNL     1       5.721   5.406  17.044  0.00  0.00    +0.000 C 
BRANCH  17  18
ATOM     18  C   UNL     1       6.078   4.871  15.657  0.00  0.00    +0.000 A 
ATOM     19  C   UNL     1       7.317   5.173  15.062  0.00  0.00    +0.000 A 
ATOM     20  C   UNL     1       7.615   4.731  13.772  0.00  0.00    +0.000 A 
ATOM     21  C   UNL     1       6.674   3.991  13.060  0.00  0.00    +0.000 A 
ATOM     22 CL   UNL     1       7.034   3.464  11.462  0.00  0.00    +0.000 Cl
ATOM     23  C   UNL     1       5.443   3.682  13.632  0.00  0.00    +0.000 A 
ATOM     24  C   UNL     1       5.148   4.114  14.928  0.00  0.00    +0.000 A 
ENDBRANCH  17  18
BRANCH  17  25
ATOM     25  C   UNL     1       6.930   5.383  18.027  0.00  0.00    +0.000 C 
ATOM     26  C   UNL     1       7.654   6.736  18.060  0.00  0.00    +0.000 C 
ATOM     27  C   UNL     1       6.488   5.038  19.456  0.00  0.00    +0.000 C 
ENDBRANCH  17  25
ENDBRANCH   2  17
TORSDOF 7
ENDMDL
MODEL 7
REMARK VINA RESULT:      -6.5      2.698      5.294
REMARK  Name = 
REMARK  12 active torsions:
REMARK  status: ('A' for Active; 'I' for Inactive)
REMARK    1  A    between atoms: C_1  and  O_2
REMARK    2  A    between atoms: O_2  and  C_3
REMARK    3  A    between atoms: C_5  and  N_6
REMARK    4  A    between atoms: C_7  and  C_9
REMARK    5  A    between atoms: C_9  and  C_10
REMARK    6  A    between atoms: C_9  and  C_17
REMARK    7  A    between atoms: C_17  and  C_18
REMARK    8  A    between atoms: C_17  and  C_19
REMARK    9  A    between atoms: C_21  and  O_22
REMARK   10  A    between atoms: O_22  and  C_23
REMARK   11  A    between atoms: C_24  and  O_25
REMARK   12  A    between atoms: O_25  and  C_26
REMARK                            x       y       z     vdW  Elec       q    Type
REMARK                         _______ _______ _______ _____ _____    ______ ____
ROOT
ATOM      1  N   UNL     1       3.089   6.438  20.467  0.00  0.00    +0.000 N 
ATOM      2  C   UNL     1       3.418   5.376  19.677  0.00  0.00    +0.000 C 
ATOM      3  O   UNL     1       4.306   4.609  20.066  0.00  0.00    +0.000 OA
ATOM      4  H   UNL     1       3.668   6.554  21.288  0.00  0.00    +0.000 HD
ENDROOT
BRANCH   1   7
ATOM      5  C   UNL     1       0.205   8.636  21.133  0.00  0.00    +0.000 A 
ATOM      6  C   UNL     1       1.081   7.541  21.203  0.00  0.00    +0.000 A 
ATOM      7  C   UNL     1       2.076   7.379  20.253  0.00  0.00    +0.000 A 
ATOM      8  C   UNL     1       2.162   8.257  19.184  0.00  0.00    +0.000 A 
ATOM      9  C   UNL     1       1.221   9.284  19.024  0.00  0.00    +0.000 A 
ATOM     10  C   UNL     1       0.227   9.499  20.010  0.00  0.00    +0.000 A 
BRANCH   5  12
ATOM     11  C   UNL     1      -0.168   9.552  23.285  0.00  0.00    +0.000 C 
ATOM     12  O   UNL     1      -0.692   8.857  22.149  0.00  0.00    +0.000 OA
ENDBRANCH   5  12
BRANCH   9  13
ATOM     13  O   UNL     1       1.452   9.979  17.863  0.00  0.00    +0.000 OA
ATOM     14  C   UNL     1       2.270  11.137  17.876  0.00  0.00    +0.000 C 
ENDBRANCH   9  13
BRANCH  10  15
ATOM     15  O   UNL     1      -0.644  10.523  19.765  0.00  0.00    +0.000 OA
ATOM     16  C   UNL     1      -0.438  11.810  20.322  0.00  0.00    +0.000 C 
ENDBRANCH  10  15
ENDBRANCH   1   7
BRANCH   2  17
ATOM     17  C   UNL     1       2.743   5.229  18.295  0.00  0.00    +0.000 C 
BRANCH  17  18
ATOM     18  C   UNL     1       3.844   5.180  17.234  0.00  0.00    +0.000 A 
ATOM     19  C   UNL     1       4.315   3.952  16.737  0.00  0.00    +0.000 A 
ATOM     20  C   UNL     1       5.361   3.911  15.812  0.00  0.00    +0.000 A 
ATOM     21  C   UNL     1       5.949   5.097  15.382  0.00  0.00    +0.000 A 
ATOM     22 CL   UNL     1       7.251   5.045  14.258  0.00  0.00    +0.000 Cl
ATOM     23  C   UNL     1       5.496   6.322  15.862  0.00  0.00    +0.000 A 
ATOM     24  C   UNL     1       4.443   6.365  16.779  0.00  0.00    +0.000 A 
ENDBRANCH  17  18
BRANCH  17  25
ATOM     25  C   UNL     1       1.812   3.980  18.253  0.00  0.00    +0.000 C 
ATOM     26  C   UNL     1       1.083   3.776  19.588  0.00  0.00    +0.000 C 
ATOM     27  C   UNL     1       0.759   4.099  17.142  0.00  0.00    +0.000 C 
ENDBRANCH  17  25
ENDBRANCH   2  17
TORSDOF 7
ENDMDL
MODEL 8
REMARK VINA RESULT:      -6.5      2.908      4.193
REMARK  Name = 
REMARK  12 active torsions:
REMARK  status: ('A' for Active; 'I' for Inactive)
REMARK    1  A    between atoms: C_1  and  O_2
REMARK    2  A    between atoms: O_2  and  C_3
REMARK    3  A    between atoms: C_5  and  N_6
REMARK    4  A    between atoms: C_7  and  C_9
REMARK    5  A    between atoms: C_9  and  C_10
REMARK    6  A    between atoms: C_9  and  C_17
REMARK    7  A    between atoms: C_17  and  C_18
REMARK    8  A    between atoms: C_17  and  C_19
REMARK    9  A    between atoms: C_21  and  O_22
REMARK   10  A    between atoms: O_22  and  C_23
REMARK   11  A    between atoms: C_24  and  O_25
REMARK   12  A    between atoms: O_25  and  C_26
REMARK                            x       y       z     vdW  Elec       q    Type
REMARK                         _______ _______ _______ _____ _____    ______ ____
ROOT
ATOM      1  N   UNL     1       3.584   7.577  16.670  0.00  0.00    +0.000 N 
ATOM      2  C   UNL     1       4.816   7.009  16.525  0.00  0.00    +0.000 C 
ATOM      3  O   UNL     1       5.268   6.873  15.382  0.00  0.00    +0.000 OA
ATOM      4  H   UNL     1       3.101   7.774  15.804  0.00  0.00    +0.000 HD
ENDROOT
BRANCH   1   7
ATOM      5  C   UNL     1       1.466   9.378  19.092  0.00  0.00    +0.000 A 
ATOM      6  C   UNL     1       2.340   9.132  18.019  0.00  0.00    +0.000 A 
ATOM      7  C   UNL     1       2.922   7.885  17.863  0.00  0.00    +0.000 A 
ATOM      8  C   UNL     1       2.706   6.896  18.810  0.00  0.00    +0.000 A 
ATOM      9  C   UNL     1       1.940   7.157  19.954  0.00  0.00    +0.000 A 
ATOM     10  C   UNL     1       1.292   8.407  20.108  0.00  0.00    +0.000 A 
BRANCH   5  12
ATOM     11  C   UNL     1      -0.545  10.552  18.662  0.00  0.00    +0.000 C 
ATOM     12  O   UNL     1       0.795  10.574  19.164  0.00  0.00    +0.000 OA
ENDBRANCH   5  12
BRANCH   9  13
ATOM     13  O   UNL     1       1.922   6.065  20.787  0.00  0.00    +0.000 OA
ATOM     14  C   UNL     1       1.370   4.838  20.342  0.00  0.00    +0.000 C 
ENDBRANCH   9  13
BRANCH  10  15
ATOM     15  O   UNL     1       0.569   8.566  21.257  0.00  0.00    +0.000 OA
ATOM     16  C   UNL     1       1.120   9.223  22.386  0.00  0.00    +0.000 C 
ENDBRANCH  10  15
ENDBRANCH   1   7
BRANCH   2  17
ATOM     17  C   UNL     1       5.549   6.472  17.775  0.00  0.00    +0.000 C 
BRANCH  17  18
ATOM     18  C   UNL     1       5.073   5.040  18.024  0.00  0.00    +0.000 A 
ATOM     19  C   UNL     1       4.554   4.258  16.976  0.00  0.00    +0.000 A 
ATOM     20  C   UNL     1       4.067   2.973  17.219  0.00  0.00    +0.000 A 
ATOM     21  C   UNL     1       4.087   2.460  18.514  0.00  0.00    +0.000 A 
ATOM     22 CL   UNL     1       3.468   0.883  18.817  0.00  0.00    +0.000 Cl
ATOM     23  C   UNL     1       4.597   3.218  19.564  0.00  0.00    +0.000 A 
ATOM     24  C   UNL     1       5.095   4.501  19.320  0.00  0.00    +0.000 A 
ENDBRANCH  17  18
BRANCH  17  25
ATOM     25  C   UNL     1       7.095   6.572  17.606  0.00  0.00    +0.000 C 
ATOM     26  C   UNL     1       7.561   8.032  17.540  0.00  0.00    +0.000 C 
ATOM     27  C   UNL     1       7.833   5.882  18.763  0.00  0.00    +0.000 C 
ENDBRANCH  17  25
ENDBRANCH   2  17
TORSDOF 7
ENDMDL
MODEL 9
REMARK VINA RESULT:      -6.4      6.083      9.413
REMARK  Name = 
REMARK  12 active torsions:
REMARK  status: ('A' for Active; 'I' for Inactive)
REMARK    1  A    between atoms: C_1  and  O_2
REMARK    2  A    between atoms: O_2  and  C_3
REMARK    3  A    between atoms: C_5  and  N_6
REMARK    4  A    between atoms: C_7  and  C_9
REMARK    5  A    between atoms: C_9  and  C_10
REMARK    6  A    between atoms: C_9  and  C_17
REMARK    7  A    between atoms: C_17  and  C_18
REMARK    8  A    between atoms: C_17  and  C_19
REMARK    9  A    between atoms: C_21  and  O_22
REMARK   10  A    between atoms: O_22  and  C_23
REMARK   11  A    between atoms: C_24  and  O_25
REMARK   12  A    between atoms: O_25  and  C_26
REMARK                            x       y       z     vdW  Elec       q    Type
REMARK                         _______ _______ _______ _____ _____    ______ ____
ROOT
ATOM      1  N   UNL     1      -0.258  12.425  18.211  0.00  0.00    +0.000 N 
ATOM      2  C   UNL     1       0.663  11.843  19.032  0.00  0.00    +0.000 C 
ATOM      3  O   UNL     1       1.826  12.260  18.996  0.00  0.00    +0.000 OA
ATOM      4  H   UNL     1       0.116  13.113  17.571  0.00  0.00    +0.000 HD
ENDROOT
BRANCH   1   7
ATOM      5  C   UNL     1      -3.457  11.003  17.054  0.00  0.00    +0.000 A 
ATOM      6  C   UNL     1      -2.143  11.500  17.038  0.00  0.00    +0.000 A 
ATOM      7  C   UNL     1      -1.630  12.158  18.143  0.00  0.00    +0.000 A 
ATOM      8  C   UNL     1      -2.437  12.396  19.244  0.00  0.00    +0.000 A 
ATOM      9  C   UNL     1      -3.787  12.020  19.235  0.00  0.00    +0.000 A 
ATOM     10  C   UNL     1      -4.320  11.302  18.136  0.00  0.00    +0.000 A 
BRANCH   5  12
ATOM     11  C   UNL     1      -3.037  10.178  14.874  0.00  0.00    +0.000 C 
ATOM     12  O   UNL     1      -3.911  10.242  16.005  0.00  0.00    +0.000 OA
ENDBRANCH   5  12
BRANCH   9  13
ATOM     13  O   UNL     1      -4.412  12.421  20.391  0.00  0.00    +0.000 OA
ATOM     14  C   UNL     1      -4.959  13.725  20.490  0.00  0.00    +0.000 C 
ENDBRANCH   9  13
BRANCH  10  15
ATOM     15  O   UNL     1      -5.646  10.982  18.221  0.00  0.00    +0.000 OA
ATOM     16  C   UNL     1      -6.644  11.854  17.717  0.00  0.00    +0.000 C 
ENDBRANCH  10  15
ENDBRANCH   1   7
BRANCH   2  17
ATOM     17  C   UNL     1       0.243  10.633  19.896  0.00  0.00    +0.000 C 
BRANCH  17  18
ATOM     18  C   UNL     1       1.077   9.428  19.459  0.00  0.00    +0.000 A 
ATOM     19  C   UNL     1       1.446   9.254  18.113  0.00  0.00    +0.000 A 
ATOM     20  C   UNL     1       2.157   8.123  17.709  0.00  0.00    +0.000 A 
ATOM     21  C   UNL     1       2.499   7.151  18.645  0.00  0.00    +0.000 A 
ATOM     22 CL   UNL     1       3.358   5.746  18.144  0.00  0.00    +0.000 Cl
ATOM     23  C   UNL     1       2.143   7.305  19.982  0.00  0.00    +0.000 A 
ATOM     24  C   UNL     1       1.441   8.442  20.390  0.00  0.00    +0.000 A 
ENDBRANCH  17  18
BRANCH  17  25
ATOM     25  C   UNL     1       0.391  10.947  21.415  0.00  0.00    +0.000 C 
ATOM     26  C   UNL     1       0.088  12.421  21.717  0.00  0.00    +0.000 C 
ATOM     27  C   UNL     1      -0.548  10.078  22.264  0.00  0.00    +0.000 C 
ENDBRANCH  17  25
ENDBRANCH   2  17
TORSDOF 7
ENDMDL
