MODEL 1
REMARK VINA RESULT:      -7.4      0.000      0.000
REMARK  Name = 
REMARK  7 active torsions:
REMARK  status: ('A' for Active; 'I' for Inactive)
REMARK    1  A    between atoms: C_1  and  C_2
REMARK    2  A    between atoms: C_2  and  C_3
REMARK    3  A    between atoms: C_8  and  O_9
REMARK    4  A    between atoms: C_16  and  C_17
REMARK    5  A    between atoms: C_18  and  O_19
REMARK    6  A    between atoms: O_19  and  S_20
REMARK    7  A    between atoms: S_20  and  N_21
REMARK                            x       y       z     vdW  Elec       q    Type
REMARK                         _______ _______ _______ _____ _____    ______ ____
ROOT
ATOM      1  C   UNL     1       4.302   4.195  17.097  0.00  0.00    +0.000 A 
ATOM      2  C   UNL     1       3.988   5.498  17.505  0.00  0.00    +0.000 A 
ATOM      3  C   UNL     1       3.115   5.767  18.577  0.00  0.00    +0.000 A 
ATOM      4  C   UNL     1       2.588   4.677  19.301  0.00  0.00    +0.000 A 
ATOM      5  C   UNL     1       2.891   3.367  18.892  0.00  0.00    +0.000 A 
ATOM      6  C   UNL     1       3.730   3.132  17.799  0.00  0.00    +0.000 A 
ATOM      7  C   UNL     1       1.644   4.864  20.467  0.00  0.00    +0.000 C 
ATOM      8  C   UNL     1       1.562   6.299  20.992  0.00  0.00    +0.000 C 
ATOM      9  C   UNL     1       1.479   7.279  19.819  0.00  0.00    +0.000 C 
ATOM     10  C   UNL     1       2.806   7.200  19.005  0.00  0.00    +0.000 C 
ATOM     11  C   UNL     1       2.811   8.221  17.840  0.00  0.00    +0.000 C 
ATOM     12  C   UNL     1       2.453   9.649  18.287  0.00  0.00    +0.000 C 
ATOM     13  C   UNL     1       1.118   9.687  19.043  0.00  0.00    +0.000 C 
ATOM     14  C   UNL     1      -0.046   9.333  18.080  0.00  0.00    +0.000 C 
ATOM     15  C   UNL     1       0.817  11.023  19.768  0.00  0.00    +0.000 C 
ATOM     16  C   UNL     1      -0.132  10.595  20.910  0.00  0.00    +0.000 C 
ATOM     17  C   UNL     1       0.038   9.079  21.103  0.00  0.00    +0.000 C 
ATOM     18  C   UNL     1       1.252   8.733  20.253  0.00  0.00    +0.000 C 
ENDROOT
BRANCH   1  20
ATOM     19  C   UNL     1       5.601   5.269  15.205  0.00  0.00    +0.000 C 
ATOM     20  C   UNL     1       5.236   3.982  15.930  0.00  0.00    +0.000 C 
ENDBRANCH   1  20
BRANCH   6  21
ATOM     21  O   UNL     1       4.008   1.851  17.411  0.00  0.00    +0.000 OA
ATOM     22  H   UNL     1       3.598   1.241  18.049  0.00  0.00    +0.000 HD
ENDBRANCH   6  21
BRANCH  15  23
ATOM     23  O   UNL     1       0.229  11.992  18.908  0.00  0.00    +0.000 OA
BRANCH  23  24
ATOM     24  S   UNL     1       0.938  13.449  18.782  0.00  0.00    +0.000 S 
ATOM     25  O   UNL     1      -0.022  14.395  18.272  0.00  0.00    +0.000 OA
ATOM     26  O   UNL     1       1.702  13.687  19.987  0.00  0.00    +0.000 OA
BRANCH  24  27
ATOM     27  N   UNL     1       2.056  13.216  17.563  0.00  0.00    +0.000 NA
ATOM     28  H   UNL     1       2.332  12.242  17.472  0.00  0.00    +0.000 HD
ATOM     29  H   UNL     1       2.816  13.890  17.614  0.00  0.00    +0.000 HD
ENDBRANCH  24  27
ENDBRANCH  23  24
ENDBRANCH  15  23
TORSDOF 5
ENDMDL
MODEL 2
REMARK VINA RESULT:      -7.3      1.029      1.224
REMARK  Name = 
REMARK  7 active torsions:
REMARK  status: ('A' for Active; 'I' for Inactive)
REMARK    1  A    between atoms: C_1  and  C_2
REMARK    2  A    between atoms: C_2  and  C_3
REMARK    3  A    between atoms: C_8  and  O_9
REMARK    4  A    between atoms: C_16  and  C_17
REMARK    5  A    between atoms: C_18  and  O_19
REMARK    6  A    between atoms: O_19  and  S_20
REMARK    7  A    between atoms: S_20  and  N_21
REMARK                            x       y       z     vdW  Elec       q    Type
REMARK                         _______ _______ _______ _____ _____    ______ ____
ROOT
ATOM      1  C   UNL     1       4.216   4.541  17.077  0.00  0.00    +0.000 A 
ATOM      2  C   UNL     1       3.858   5.842  17.455  0.00  0.00    +0.000 A 
ATOM      3  C   UNL     1       3.014   6.108  18.550  0.00  0.00    +0.000 A 
ATOM      4  C   UNL     1       2.566   5.020  19.329  0.00  0.00    +0.000 A 
ATOM      5  C   UNL     1       2.913   3.712  18.951  0.00  0.00    +0.000 A 
ATOM      6  C   UNL     1       3.720   3.478  17.834  0.00  0.00    +0.000 A 
ATOM      7  C   UNL     1       1.658   5.204  20.524  0.00  0.00    +0.000 C 
ATOM      8  C   UNL     1       1.530   6.650  21.006  0.00  0.00    +0.000 C 
ATOM      9  C   UNL     1       1.358   7.585  19.806  0.00  0.00    +0.000 C 
ATOM     10  C   UNL     1       2.656   7.538  18.944  0.00  0.00    +0.000 C 
ATOM     11  C   UNL     1       2.570   8.520  17.748  0.00  0.00    +0.000 C 
ATOM     12  C   UNL     1       2.163   9.944  18.163  0.00  0.00    +0.000 C 
ATOM     13  C   UNL     1       0.858   9.948  18.968  0.00  0.00    +0.000 C 
ATOM     14  C   UNL     1      -0.325   9.509  18.063  0.00  0.00    +0.000 C 
ATOM     15  C   UNL     1       0.522  11.292  19.661  0.00  0.00    +0.000 C 
ATOM     16  C   UNL     1      -0.363  10.861  20.852  0.00  0.00    +0.000 C 
ATOM     17  C   UNL     1      -0.116   9.361  21.086  0.00  0.00    +0.000 C 
ATOM     18  C   UNL     1       1.081   9.042  20.201  0.00  0.00    +0.000 C 
ENDROOT
BRANCH   1  20
ATOM     19  C   UNL     1       5.528   5.628  15.202  0.00  0.00    +0.000 C 
ATOM     20  C   UNL     1       5.116   4.332  15.882  0.00  0.00    +0.000 C 
ENDBRANCH   1  20
BRANCH   6  21
ATOM     21  O   UNL     1       4.043   2.198  17.476  0.00  0.00    +0.000 OA
ATOM     22  H   UNL     1       3.331   1.849  16.912  0.00  0.00    +0.000 HD
ENDBRANCH   6  21
BRANCH  15  23
ATOM     23  O   UNL     1      -0.141  12.205  18.794  0.00  0.00    +0.000 OA
BRANCH  23  24
ATOM     24  S   UNL     1      -0.303  13.749  19.270  0.00  0.00    +0.000 S 
ATOM     25  O   UNL     1       0.503  13.965  20.445  0.00  0.00    +0.000 OA
ATOM     26  O   UNL     1      -0.219  14.596  18.101  0.00  0.00    +0.000 OA
BRANCH  24  27
ATOM     27  N   UNL     1      -1.894  13.819  19.777  0.00  0.00    +0.000 NA
ATOM     28  H   UNL     1      -1.985  13.694  20.782  0.00  0.00    +0.000 HD
ATOM     29  H   UNL     1      -2.500  13.240  19.201  0.00  0.00    +0.000 HD
ENDBRANCH  24  27
ENDBRANCH  23  24
ENDBRANCH  15  23
TORSDOF 5
ENDMDL
MODEL 3
REMARK VINA RESULT:      -7.0      3.680      7.506
REMARK  Name = 
REMARK  7 active torsions:
REMARK  status: ('A' for Active; 'I' for Inactive)
REMARK    1  A    between atoms: C_1  and  C_2
REMARK    2  A    between atoms: C_2  and  C_3
REMARK    3  A    between atoms: C_8  and  O_9
REMARK    4  A    between atoms: C_16  and  C_17
REMARK    5  A    between atoms: C_18  and  O_19
REMARK    6  A    between atoms: O_19  and  S_20
REMARK    7  A    between atoms: S_20  and  N_21
REMARK                            x       y       z     vdW  Elec       q    Type
REMARK                         _______ _______ _______ _____ _____    ______ ____
ROOT
ATOM      1  C   UNL     1       1.079  10.986  19.780  0.00  0.00    +0.000 A 
ATOM      2  C   UNL     1       1.633   9.959  19.004  0.00  0.00    +0.000 A 
ATOM      3  C   UNL     1       1.715   8.628  19.456  0.00  0.00    +0.000 A 
ATOM      4  C   UNL     1       1.162   8.313  20.716  0.00  0.00    +0.000 A 
ATOM      5  C   UNL     1       0.614   9.339  21.503  0.00  0.00    +0.000 A 
ATOM      6  C   UNL     1       0.583  10.659  21.043  0.00  0.00    +0.000 A 
ATOM      7  C   UNL     1       1.202   6.914  21.287  0.00  0.00    +0.000 C 
ATOM      8  C   UNL     1       1.588   5.829  20.279  0.00  0.00    +0.000 C 
ATOM      9  C   UNL     1       2.767   6.305  19.428  0.00  0.00    +0.000 C 
ATOM     10  C   UNL     1       2.311   7.530  18.579  0.00  0.00    +0.000 C 
ATOM     11  C   UNL     1       3.445   8.016  17.642  0.00  0.00    +0.000 C 
ATOM     12  C   UNL     1       4.061   6.885  16.801  0.00  0.00    +0.000 C 
ATOM     13  C   UNL     1       4.539   5.723  17.679  0.00  0.00    +0.000 C 
ATOM     14  C   UNL     1       5.734   6.178  18.559  0.00  0.00    +0.000 C 
ATOM     15  C   UNL     1       4.912   4.432  16.907  0.00  0.00    +0.000 C 
ATOM     16  C   UNL     1       4.695   3.320  17.959  0.00  0.00    +0.000 C 
ATOM     17  C   UNL     1       3.792   3.901  19.060  0.00  0.00    +0.000 C 
ATOM     18  C   UNL     1       3.314   5.226  18.484  0.00  0.00    +0.000 C 
ENDROOT
BRANCH   1  20
ATOM     19  C   UNL     1       2.197  12.718  18.307  0.00  0.00    +0.000 C 
ATOM     20  C   UNL     1       1.036  12.393  19.235  0.00  0.00    +0.000 C 
ENDBRANCH   1  20
BRANCH   6  21
ATOM     21  O   UNL     1       0.051  11.646  21.827  0.00  0.00    +0.000 OA
ATOM     22  H   UNL     1      -0.723  12.017  21.369  0.00  0.00    +0.000 HD
ENDBRANCH   6  21
BRANCH  15  23
ATOM     23  O   UNL     1       6.246   4.457  16.411  0.00  0.00    +0.000 OA
BRANCH  23  24
ATOM     24  S   UNL     1       6.489   4.890  14.864  0.00  0.00    +0.000 S 
ATOM     25  O   UNL     1       5.409   5.744  14.441  0.00  0.00    +0.000 OA
ATOM     26  O   UNL     1       7.880   5.256  14.709  0.00  0.00    +0.000 OA
BRANCH  24  27
ATOM     27  N   UNL     1       6.296   3.450  14.040  0.00  0.00    +0.000 NA
ATOM     28  H   UNL     1       6.393   3.564  13.034  0.00  0.00    +0.000 HD
ATOM     29  H   UNL     1       5.472   2.942  14.352  0.00  0.00    +0.000 HD
ENDBRANCH  24  27
ENDBRANCH  23  24
ENDBRANCH  15  23
TORSDOF 5
ENDMDL
MODEL 4
REMARK VINA RESULT:      -7.0      3.773      8.295
REMARK  Name = 
REMARK  7 active torsions:
REMARK  status: ('A' for Active; 'I' for Inactive)
REMARK    1  A    between atoms: C_1  and  C_2
REMARK    2  A    between atoms: C_2  and  C_3
REMARK    3  A    between atoms: C_8  and  O_9
REMARK    4  A    between atoms: C_16  and  C_17
REMARK    5  A    between atoms: C_18  and  O_19
REMARK    6  A    between atoms: O_19  and  S_20
REMARK    7  A    between atoms: S_20  and  N_21
REMARK                            x       y       z     vdW  Elec       q    Type
REMARK                         _______ _______ _______ _____ _____    ______ ____
ROOT
ATOM      1  C   UNL     1      -0.361   9.901  21.494  0.00  0.00    +0.000 A 
ATOM      2  C   UNL     1       0.548   8.877  21.197  0.00  0.00    +0.000 A 
ATOM      3  C   UNL     1       1.286   8.843  19.999  0.00  0.00    +0.000 A 
ATOM      4  C   UNL     1       1.144   9.917  19.094  0.00  0.00    +0.000 A 
ATOM      5  C   UNL     1       0.228  10.943  19.381  0.00  0.00    +0.000 A 
ATOM      6  C   UNL     1      -0.521  10.928  20.561  0.00  0.00    +0.000 A 
ATOM      7  C   UNL     1       1.894   9.971  17.782  0.00  0.00    +0.000 C 
ATOM      8  C   UNL     1       3.034   8.958  17.662  0.00  0.00    +0.000 C 
ATOM      9  C   UNL     1       2.578   7.595  18.188  0.00  0.00    +0.000 C 
ATOM     10  C   UNL     1       2.280   7.720  19.713  0.00  0.00    +0.000 C 
ATOM     11  C   UNL     1       1.879   6.353  20.320  0.00  0.00    +0.000 C 
ATOM     12  C   UNL     1       2.870   5.227  19.982  0.00  0.00    +0.000 C 
ATOM     13  C   UNL     1       3.097   5.108  18.469  0.00  0.00    +0.000 C 
ATOM     14  C   UNL     1       1.795   4.631  17.773  0.00  0.00    +0.000 C 
ATOM     15  C   UNL     1       4.282   4.198  18.056  0.00  0.00    +0.000 C 
ATOM     16  C   UNL     1       4.692   4.761  16.677  0.00  0.00    +0.000 C 
ATOM     17  C   UNL     1       4.110   6.181  16.570  0.00  0.00    +0.000 C 
ATOM     18  C   UNL     1       3.612   6.481  17.977  0.00  0.00    +0.000 C 
ENDROOT
BRANCH   1  20
ATOM     19  C   UNL     1      -1.498  11.246  23.316  0.00  0.00    +0.000 C 
ATOM     20  C   UNL     1      -1.128   9.866  22.795  0.00  0.00    +0.000 C 
ENDBRANCH   1  20
BRANCH   6  21
ATOM     21  O   UNL     1      -1.413  11.931  20.820  0.00  0.00    +0.000 OA
ATOM     22  H   UNL     1      -1.428  12.088  21.781  0.00  0.00    +0.000 HD
ENDBRANCH   6  21
BRANCH  15  23
ATOM     23  O   UNL     1       3.920   2.823  17.997  0.00  0.00    +0.000 OA
BRANCH  23  24
ATOM     24  S   UNL     1       3.964   1.949  19.365  0.00  0.00    +0.000 S 
ATOM     25  O   UNL     1       5.031   2.438  20.200  0.00  0.00    +0.000 OA
ATOM     26  O   UNL     1       2.609   1.790  19.846  0.00  0.00    +0.000 OA
BRANCH  24  27
ATOM     27  N   UNL     1       4.444   0.441  18.830  0.00  0.00    +0.000 NA
ATOM     28  H   UNL     1       4.382  -0.266  19.558  0.00  0.00    +0.000 HD
ATOM     29  H   UNL     1       5.325   0.482  18.325  0.00  0.00    +0.000 HD
ENDBRANCH  24  27
ENDBRANCH  23  24
ENDBRANCH  15  23
TORSDOF 5
ENDMDL
MODEL 5
REMARK VINA RESULT:      -6.9      1.215      1.358
REMARK  Name = 
REMARK  7 active torsions:
REMARK  status: ('A' for Active; 'I' for Inactive)
REMARK    1  A    between atoms: C_1  and  C_2
REMARK    2  A    between atoms: C_2  and  C_3
REMARK    3  A    between atoms: C_8  and  O_9
REMARK    4  A    between atoms: C_16  and  C_17
REMARK    5  A    between atoms: C_18  and  O_19
REMARK    6  A    between atoms: O_19  and  S_20
REMARK    7  A    between atoms: S_20  and  N_21
REMARK                            x       y       z     vdW  Elec       q    Type
REMARK                         _______ _______ _______ _____ _____    ______ ____
ROOT
ATOM      1  C   UNL     1       4.452   5.389  16.847  0.00  0.00    +0.000 A 
ATOM      2  C   UNL     1       3.972   6.618  17.321  0.00  0.00    +0.000 A 
ATOM      3  C   UNL     1       3.114   6.719  18.432  0.00  0.00    +0.000 A 
ATOM      4  C   UNL     1       2.778   5.538  19.128  0.00  0.00    +0.000 A 
ATOM      5  C   UNL     1       3.249   4.302  18.654  0.00  0.00    +0.000 A 
ATOM      6  C   UNL     1       4.067   4.231  17.523  0.00  0.00    +0.000 A 
ATOM      7  C   UNL     1       1.865   5.544  20.333  0.00  0.00    +0.000 C 
ATOM      8  C   UNL     1       1.600   6.931  20.921  0.00  0.00    +0.000 C 
ATOM      9  C   UNL     1       1.330   7.931  19.794  0.00  0.00    +0.000 C 
ATOM     10  C   UNL     1       2.620   8.075  18.931  0.00  0.00    +0.000 C 
ATOM     11  C   UNL     1       2.432   9.128  17.811  0.00  0.00    +0.000 C 
ATOM     12  C   UNL     1       1.891  10.471  18.330  0.00  0.00    +0.000 C 
ATOM     13  C   UNL     1       0.597  10.289  19.132  0.00  0.00    +0.000 C 
ATOM     14  C   UNL     1      -0.543   9.805  18.197  0.00  0.00    +0.000 C 
ATOM     15  C   UNL     1       0.137  11.539  19.923  0.00  0.00    +0.000 C 
ATOM     16  C   UNL     1      -0.694  10.937  21.078  0.00  0.00    +0.000 C 
ATOM     17  C   UNL     1      -0.301   9.455  21.201  0.00  0.00    +0.000 C 
ATOM     18  C   UNL     1       0.915   9.320  20.296  0.00  0.00    +0.000 C 
ENDROOT
BRANCH   1  20
ATOM     19  C   UNL     1       6.838   5.339  15.997  0.00  0.00    +0.000 C 
ATOM     20  C   UNL     1       5.359   5.357  15.641  0.00  0.00    +0.000 C 
ENDBRANCH   1  20
BRANCH   6  21
ATOM     21  O   UNL     1       4.510   3.018  17.072  0.00  0.00    +0.000 OA
ATOM     22  H   UNL     1       3.992   2.775  16.285  0.00  0.00    +0.000 HD
ENDBRANCH   6  21
BRANCH  15  23
ATOM     23  O   UNL     1      -0.618  12.444  19.125  0.00  0.00    +0.000 OA
BRANCH  23  24
ATOM     24  S   UNL     1      -0.591  14.023  19.507  0.00  0.00    +0.000 S 
ATOM     25  O   UNL     1      -0.287  14.786  18.323  0.00  0.00    +0.000 OA
ATOM     26  O   UNL     1      -1.734  14.307  20.346  0.00  0.00    +0.000 OA
BRANCH  24  27
ATOM     27  N   UNL     1       0.750  14.144  20.496  0.00  0.00    +0.000 NA
ATOM     28  H   UNL     1       0.696  14.942  21.125  0.00  0.00    +0.000 HD
ATOM     29  H   UNL     1       1.616  14.049  19.972  0.00  0.00    +0.000 HD
ENDBRANCH  24  27
ENDBRANCH  23  24
ENDBRANCH  15  23
TORSDOF 5
ENDMDL
MODEL 6
REMARK VINA RESULT:      -6.9      2.540      3.902
REMARK  Name = 
REMARK  7 active torsions:
REMARK  status: ('A' for Active; 'I' for Inactive)
REMARK    1  A    between atoms: C_1  and  C_2
REMARK    2  A    between atoms: C_2  and  C_3
REMARK    3  A    between atoms: C_8  and  O_9
REMARK    4  A    between atoms: C_16  and  C_17
REMARK    5  A    between atoms: C_18  and  O_19
REMARK    6  A    between atoms: O_19  and  S_20
REMARK    7  A    between atoms: S_20  and  N_21
REMARK                            x       y       z     vdW  Elec       q    Type
REMARK                         _______ _______ _______ _____ _____    ______ ____
ROOT
ATOM      1  C   UNL     1       3.150   3.995  20.244  0.00  0.00    +0.000 A 
ATOM      2  C   UNL     1       2.221   5.033  20.391  0.00  0.00    +0.000 A 
ATOM      3  C   UNL     1       2.283   6.219  19.633  0.00  0.00    +0.000 A 
ATOM      4  C   UNL     1       3.286   6.331  18.647  0.00  0.00    +0.000 A 
ATOM      5  C   UNL     1       4.227   5.297  18.500  0.00  0.00    +0.000 A 
ATOM      6  C   UNL     1       4.163   4.150  19.296  0.00  0.00    +0.000 A 
ATOM      7  C   UNL     1       3.433   7.563  17.783  0.00  0.00    +0.000 C 
ATOM      8  C   UNL     1       2.241   8.520  17.836  0.00  0.00    +0.000 C 
ATOM      9  C   UNL     1       1.777   8.694  19.284  0.00  0.00    +0.000 C 
ATOM     10  C   UNL     1       1.246   7.325  19.808  0.00  0.00    +0.000 C 
ATOM     11  C   UNL     1       0.695   7.451  21.251  0.00  0.00    +0.000 C 
ATOM     12  C   UNL     1      -0.314   8.601  21.414  0.00  0.00    +0.000 C 
ATOM     13  C   UNL     1       0.266   9.936  20.931  0.00  0.00    +0.000 C 
ATOM     14  C   UNL     1       1.431  10.375  21.858  0.00  0.00    +0.000 C 
ATOM     15  C   UNL     1      -0.765  11.085  20.796  0.00  0.00    +0.000 C 
ATOM     16  C   UNL     1      -0.127  12.005  19.731  0.00  0.00    +0.000 C 
ATOM     17  C   UNL     1       0.922  11.171  18.975  0.00  0.00    +0.000 C 
ATOM     18  C   UNL     1       0.673   9.747  19.450  0.00  0.00    +0.000 C 
ENDROOT
BRANCH   1  20
ATOM     19  C   UNL     1       1.662   2.605  21.753  0.00  0.00    +0.000 C 
ATOM     20  C   UNL     1       3.028   2.757  21.101  0.00  0.00    +0.000 C 
ENDBRANCH   1  20
BRANCH   6  21
ATOM     21  O   UNL     1       5.091   3.157  19.144  0.00  0.00    +0.000 OA
ATOM     22  H   UNL     1       4.817   2.396  19.685  0.00  0.00    +0.000 HD
ENDBRANCH   6  21
BRANCH  15  23
ATOM     23  O   UNL     1      -0.996  11.760  22.028  0.00  0.00    +0.000 OA
BRANCH  23  24
ATOM     24  S   UNL     1      -2.455  12.426  22.284  0.00  0.00    +0.000 S 
ATOM     25  O   UNL     1      -3.158  12.514  21.029  0.00  0.00    +0.000 OA
ATOM     26  O   UNL     1      -3.033  11.814  23.460  0.00  0.00    +0.000 OA
BRANCH  24  27
ATOM     27  N   UNL     1      -2.078  13.995  22.718  0.00  0.00    +0.000 NA
ATOM     28  H   UNL     1      -1.161  14.279  22.382  0.00  0.00    +0.000 HD
ATOM     29  H   UNL     1      -2.264  14.171  23.702  0.00  0.00    +0.000 HD
ENDBRANCH  24  27
ENDBRANCH  23  24
ENDBRANCH  15  23
TORSDOF 5
ENDMDL
MODEL 7
REMARK VINA RESULT:      -6.7      3.740      7.627
REMARK  Name = 
REMARK  7 active torsions:
REMARK  status: ('A' for Active; 'I' for Inactive)
REMARK    1  A    between atoms: C_1  and  C_2
REMARK    2  A    between atoms: C_2  and  C_3
REMARK    3  A    between atoms: C_8  and  O_9
REMARK    4  A    between atoms: C_16  and  C_17
REMARK    5  A    between atoms: C_18  and  O_19
REMARK    6  A    between atoms: O_19  and  S_20
REMARK    7  A    between atoms: S_20  and  N_21
REMARK                            x       y       z     vdW  Elec       q    Type
REMARK                         _______ _______ _______ _____ _____    ______ ____
ROOT
ATOM      1  C   UNL     1       0.623  10.485  20.802  0.00  0.00    +0.000 A 
ATOM      2  C   UNL     1       1.175   9.771  19.730  0.00  0.00    +0.000 A 
ATOM      3  C   UNL     1       1.530   8.412  19.826  0.00  0.00    +0.000 A 
ATOM      4  C   UNL     1       1.260   7.734  21.034  0.00  0.00    +0.000 A 
ATOM      5  C   UNL     1       0.715   8.445  22.116  0.00  0.00    +0.000 A 
ATOM      6  C   UNL     1       0.410   9.804  22.002  0.00  0.00    +0.000 A 
ATOM      7  C   UNL     1       1.604   6.275  21.233  0.00  0.00    +0.000 C 
ATOM      8  C   UNL     1       1.961   5.526  19.948  0.00  0.00    +0.000 C 
ATOM      9  C   UNL     1       2.889   6.385  19.086  0.00  0.00    +0.000 C 
ATOM     10  C   UNL     1       2.116   7.661  18.633  0.00  0.00    +0.000 C 
ATOM     11  C   UNL     1       2.983   8.540  17.698  0.00  0.00    +0.000 C 
ATOM     12  C   UNL     1       3.600   7.753  16.529  0.00  0.00    +0.000 C 
ATOM     13  C   UNL     1       4.390   6.534  17.022  0.00  0.00    +0.000 C 
ATOM     14  C   UNL     1       5.642   6.999  17.813  0.00  0.00    +0.000 C 
ATOM     15  C   UNL     1       4.807   5.534  15.914  0.00  0.00    +0.000 C 
ATOM     16  C   UNL     1       4.943   4.199  16.680  0.00  0.00    +0.000 C 
ATOM     17  C   UNL     1       4.174   4.350  18.003  0.00  0.00    +0.000 C 
ATOM     18  C   UNL     1       3.413   5.658  17.840  0.00  0.00    +0.000 C 
ENDROOT
BRANCH   1  20
ATOM     19  C   UNL     1      -0.529  12.230  19.372  0.00  0.00    +0.000 C 
ATOM     20  C   UNL     1       0.278  11.945  20.629  0.00  0.00    +0.000 C 
ENDBRANCH   1  20
BRANCH   6  21
ATOM     21  O   UNL     1      -0.113  10.482  23.069  0.00  0.00    +0.000 OA
ATOM     22  H   UNL     1      -0.589  11.261  22.733  0.00  0.00    +0.000 HD
ENDBRANCH   6  21
BRANCH  15  23
ATOM     23  O   UNL     1       6.013   5.912  15.261  0.00  0.00    +0.000 OA
BRANCH  23  24
ATOM     24  S   UNL     1       7.079   4.751  14.869  0.00  0.00    +0.000 S 
ATOM     25  O   UNL     1       7.870   4.430  16.030  0.00  0.00    +0.000 OA
ATOM     26  O   UNL     1       6.389   3.745  14.092  0.00  0.00    +0.000 OA
BRANCH  24  27
ATOM     27  N   UNL     1       8.106   5.531  13.807  0.00  0.00    +0.000 NA
ATOM     28  H   UNL     1       9.077   5.255  13.934  0.00  0.00    +0.000 HD
ATOM     29  H   UNL     1       7.929   6.531  13.775  0.00  0.00    +0.000 HD
ENDBRANCH  24  27
ENDBRANCH  23  24
ENDBRANCH  15  23
TORSDOF 5
ENDMDL
MODEL 8
REMARK VINA RESULT:      -6.5      2.715      4.238
REMARK  Name = 
REMARK  7 active torsions:
REMARK  status: ('A' for Active; 'I' for Inactive)
REMARK    1  A    between atoms: C_1  and  C_2
REMARK    2  A    between atoms: C_2  and  C_3
REMARK    3  A    between atoms: C_8  and  O_9
REMARK    4  A    between atoms: C_16  and  C_17
REMARK    5  A    between atoms: C_18  and  O_19
REMARK    6  A    between atoms: O_19  and  S_20
REMARK    7  A    between atoms: S_20  and  N_21
REMARK                            x       y       z     vdW  Elec       q    Type
REMARK                         _______ _______ _______ _____ _____    ______ ____
ROOT
ATOM      1  C   UNL     1       2.610   4.820  20.581  0.00  0.00    +0.000 A 
ATOM      2  C   UNL     1       1.713   5.894  20.657  0.00  0.00    +0.000 A 
ATOM      3  C   UNL     1       1.772   6.995  19.782  0.00  0.00    +0.000 A 
ATOM      4  C   UNL     1       2.737   6.980  18.752  0.00  0.00    +0.000 A 
ATOM      5  C   UNL     1       3.646   5.911  18.675  0.00  0.00    +0.000 A 
ATOM      6  C   UNL     1       3.587   4.851  19.584  0.00  0.00    +0.000 A 
ATOM      7  C   UNL     1       2.878   8.115  17.763  0.00  0.00    +0.000 C 
ATOM      8  C   UNL     1       1.713   9.105  17.764  0.00  0.00    +0.000 C 
ATOM      9  C   UNL     1       1.311   9.436  19.204  0.00  0.00    +0.000 C 
ATOM     10  C   UNL     1       0.770   8.141  19.883  0.00  0.00    +0.000 C 
ATOM     11  C   UNL     1       0.281   8.427  21.325  0.00  0.00    +0.000 C 
ATOM     12  C   UNL     1      -0.692   9.615  21.410  0.00  0.00    +0.000 C 
ATOM     13  C   UNL     1      -0.101  10.878  20.772  0.00  0.00    +0.000 C 
ATOM     14  C   UNL     1       1.110  11.375  21.606  0.00  0.00    +0.000 C 
ATOM     15  C   UNL     1      -1.109  12.036  20.561  0.00  0.00    +0.000 C 
ATOM     16  C   UNL     1      -0.493  12.826  19.385  0.00  0.00    +0.000 C 
ATOM     17  C   UNL     1       0.504  11.893  18.678  0.00  0.00    +0.000 C 
ATOM     18  C   UNL     1       0.241  10.530  19.304  0.00  0.00    +0.000 C 
ENDROOT
BRANCH   1  20
ATOM     19  C   UNL     1       1.311   2.763  21.287  0.00  0.00    +0.000 C 
ATOM     20  C   UNL     1       2.494   3.679  21.563  0.00  0.00    +0.000 C 
ENDBRANCH   1  20
BRANCH   6  21
ATOM     21  O   UNL     1       4.484   3.823  19.498  0.00  0.00    +0.000 OA
ATOM     22  H   UNL     1       4.110   3.137  18.918  0.00  0.00    +0.000 HD
ENDBRANCH   6  21
BRANCH  15  23
ATOM     23  O   UNL     1      -1.274  12.837  21.726  0.00  0.00    +0.000 OA
BRANCH  23  24
ATOM     24  S   UNL     1      -2.776  13.077  22.296  0.00  0.00    +0.000 S 
ATOM     25  O   UNL     1      -2.807  14.316  23.030  0.00  0.00    +0.000 OA
ATOM     26  O   UNL     1      -3.716  12.773  21.239  0.00  0.00    +0.000 OA
BRANCH  24  27
ATOM     27  N   UNL     1      -2.945  11.860  23.428  0.00  0.00    +0.000 NA
ATOM     28  H   UNL     1      -2.148  11.227  23.438  0.00  0.00    +0.000 HD
ATOM     29  H   UNL     1      -3.860  11.421  23.378  0.00  0.00    +0.000 HD
ENDBRANCH  24  27
ENDBRANCH  23  24
ENDBRANCH  15  23
TORSDOF 5
ENDMDL
MODEL 9
REMARK VINA RESULT:      -6.4      8.975     10.497
REMARK  Name = 
REMARK  7 active torsions:
REMARK  status: ('A' for Active; 'I' for Inactive)
REMARK    1  A    between atoms: C_1  and  C_2
REMARK    2  A    between atoms: C_2  and  C_3
REMARK    3  A    between atoms: C_8  and  O_9
REMARK    4  A    between atoms: C_16  and  C_17
REMARK    5  A    between atoms: C_18  and  O_19
REMARK    6  A    between atoms: O_19  and  S_20
REMARK    7  A    between atoms: S_20  and  N_21
REMARK                            x       y       z     vdW  Elec       q    Type
REMARK                         _______ _______ _______ _____ _____    ______ ____
ROOT
ATOM      1  C   UNL     1      11.302  14.659  17.583  0.00  0.00    +0.000 A 
ATOM      2  C   UNL     1      10.861  14.685  18.913  0.00  0.00    +0.000 A 
ATOM      3  C   UNL     1      10.327  13.551  19.557  0.00  0.00    +0.000 A 
ATOM      4  C   UNL     1      10.296  12.332  18.847  0.00  0.00    +0.000 A 
ATOM      5  C   UNL     1      10.728  12.301  17.510  0.00  0.00    +0.000 A 
ATOM      6  C   UNL     1      11.215  13.453  16.887  0.00  0.00    +0.000 A 
ATOM      7  C   UNL     1       9.743  11.061  19.452  0.00  0.00    +0.000 C 
ATOM      8  C   UNL     1       9.525  11.122  20.965  0.00  0.00    +0.000 C 
ATOM      9  C   UNL     1       8.876  12.455  21.344  0.00  0.00    +0.000 C 
ATOM     10  C   UNL     1       9.869  13.610  21.011  0.00  0.00    +0.000 C 
ATOM     11  C   UNL     1       9.295  14.984  21.438  0.00  0.00    +0.000 C 
ATOM     12  C   UNL     1       8.798  15.006  22.893  0.00  0.00    +0.000 C 
ATOM     13  C   UNL     1       7.788  13.884  23.164  0.00  0.00    +0.000 C 
ATOM     14  C   UNL     1       6.485  14.138  22.359  0.00  0.00    +0.000 C 
ATOM     15  C   UNL     1       7.450  13.656  24.659  0.00  0.00    +0.000 C 
ATOM     16  C   UNL     1       7.016  12.174  24.698  0.00  0.00    +0.000 C 
ATOM     17  C   UNL     1       7.555  11.505  23.422  0.00  0.00    +0.000 C 
ATOM     18  C   UNL     1       8.491  12.548  22.827  0.00  0.00    +0.000 C 
ENDROOT
BRANCH   1  20
ATOM     19  C   UNL     1      10.921  17.114  17.086  0.00  0.00    +0.000 C 
ATOM     20  C   UNL     1      11.851  15.918  16.955  0.00  0.00    +0.000 C 
ENDBRANCH   1  20
BRANCH   6  21
ATOM     21  O   UNL     1      11.625  13.406  15.583  0.00  0.00    +0.000 OA
ATOM     22  H   UNL     1      11.746  14.318  15.266  0.00  0.00    +0.000 HD
ENDBRANCH   6  21
BRANCH  15  23
ATOM     23  O   UNL     1       6.432  14.533  25.129  0.00  0.00    +0.000 OA
BRANCH  23  24
ATOM     24  S   UNL     1       6.074  14.525  26.714  0.00  0.00    +0.000 S 
ATOM     25  O   UNL     1       4.833  13.819  26.910  0.00  0.00    +0.000 OA
ATOM     26  O   UNL     1       7.277  14.207  27.450  0.00  0.00    +0.000 OA
BRANCH  24  27
ATOM     27  N   UNL     1       5.749  16.133  27.030  0.00  0.00    +0.000 NA
ATOM     28  H   UNL     1       5.860  16.720  26.207  0.00  0.00    +0.000 HD
ATOM     29  H   UNL     1       6.220  16.455  27.872  0.00  0.00    +0.000 HD
ENDBRANCH  24  27
ENDBRANCH  23  24
ENDBRANCH  15  23
TORSDOF 5
ENDMDL
