MODEL 1
REMARK VINA RESULT:      -7.7      0.000      0.000
REMARK  Name = 
REMARK  8 active torsions:
REMARK  status: ('A' for Active; 'I' for Inactive)
REMARK    1  A    between atoms: C_1  and  C_2
REMARK    2  A    between atoms: C_2  and  C_3
REMARK    3  A    between atoms: C_3  and  C_4
REMARK    4  A    between atoms: C_8  and  C_9
REMARK    5  A    between atoms: N_11  and  C_12
REMARK    6  A    between atoms: C_16  and  O_17
REMARK    7  A    between atoms: O_17  and  C_18
REMARK    8  A    between atoms: N_20  and  C_21
REMARK                            x       y       z     vdW  Elec       q    Type
REMARK                         _______ _______ _______ _____ _____    ______ ____
ROOT
ATOM      1  C   UNL     1       2.573   5.520  20.296  0.00  0.00    +0.000 C 
ATOM      2  C   UNL     1       1.523   4.577  19.704  0.00  0.00    +0.000 C 
ATOM      3  C   UNL     1       1.472   4.625  18.188  0.00  0.00    +0.000 C 
ATOM      4  C   UNL     1       2.837   4.292  17.610  0.00  0.00    +0.000 C 
ATOM      5  C   UNL     1       3.908   5.289  18.067  0.00  0.00    +0.000 C 
ATOM      6  C   UNL     1       3.942   5.447  19.595  0.00  0.00    +0.000 C 
ENDROOT
BRANCH   1   9
ATOM      7  C   UNL     1       1.801   7.955  19.817  0.00  0.00    +0.000 C 
ATOM      8  O   UNL     1       2.247   8.042  18.680  0.00  0.00    +0.000 OA
ATOM      9  N   UNL     1       2.008   6.839  20.606  0.00  0.00    +0.000 N 
ATOM     10  H   UNL     1       1.479   6.846  21.468  0.00  0.00    +0.000 HD
BRANCH   7  15
ATOM     11  C   UNL     1       0.286  10.094  19.968  0.00  0.00    +0.000 A 
ATOM     12  N   UNL     1      -0.378  10.845  20.947  0.00  0.00    +0.000 NA
ATOM     13  N   UNL     1      -0.166  10.389  22.163  0.00  0.00    +0.000 NA
ATOM     14  S   UNL     1       0.804   9.045  22.178  0.00  0.00    +0.000 S 
ATOM     15  C   UNL     1       1.005   9.004  20.459  0.00  0.00    +0.000 A 
BRANCH  11  16
ATOM     16  C   UNL     1       0.102  10.585  18.564  0.00  0.00    +0.000 C 
BRANCH  16  18
ATOM     17  C   UNL     1      -2.297  10.318  17.785  0.00  0.00    +0.000 C 
ATOM     18  C   UNL     1      -0.901   9.718  17.789  0.00  0.00    +0.000 C 
ENDBRANCH  16  18
ENDBRANCH  11  16
ENDBRANCH   7  15
ENDBRANCH   1   9
BRANCH   5  19
ATOM     19  O   UNL     1       5.202   4.804  17.601  0.00  0.00    +0.000 OA
BRANCH  19  20
ATOM     20  C   UNL     1       5.497   5.179  16.317  0.00  0.00    +0.000 C 
ATOM     21  O   UNL     1       5.315   6.320  15.908  0.00  0.00    +0.000 OA
ATOM     22  N   UNL     1       5.951   4.112  15.573  0.00  0.00    +0.000 N 
ATOM     23  H   UNL     1       5.876   3.204  16.012  0.00  0.00    +0.000 HD
BRANCH  22  24
ATOM     24  C   UNL     1       6.379   4.187  14.225  0.00  0.00    +0.000 A 
ATOM     25  C   UNL     1       5.786   3.426  13.209  0.00  0.00    +0.000 A 
ATOM     26  C   UNL     1       6.236   3.494  11.889  0.00  0.00    +0.000 A 
ATOM     27  C   UNL     1       7.288   4.338  11.559  0.00  0.00    +0.000 A 
ATOM     28  C   UNL     1       7.879   5.119  12.552  0.00  0.00    +0.000 A 
ATOM     29  C   UNL     1       7.423   5.052  13.878  0.00  0.00    +0.000 A 
ENDBRANCH  22  24
ENDBRANCH  19  20
ENDBRANCH   5  19
TORSDOF 7
ENDMDL
MODEL 2
REMARK VINA RESULT:      -7.6      5.102      7.163
REMARK  Name = 
REMARK  8 active torsions:
REMARK  status: ('A' for Active; 'I' for Inactive)
REMARK    1  A    between atoms: C_1  and  C_2
REMARK    2  A    between atoms: C_2  and  C_3
REMARK    3  A    between atoms: C_3  and  C_4
REMARK    4  A    between atoms: C_8  and  C_9
REMARK    5  A    between atoms: N_11  and  C_12
REMARK    6  A    between atoms: C_16  and  O_17
REMARK    7  A    between atoms: O_17  and  C_18
REMARK    8  A    between atoms: N_20  and  C_21
REMARK                            x       y       z     vdW  Elec       q    Type
REMARK                         _______ _______ _______ _____ _____    ______ ____
ROOT
ATOM      1  C   UNL     1       6.441   4.296  18.087  0.00  0.00    +0.000 C 
ATOM      2  C   UNL     1       6.486   4.334  16.557  0.00  0.00    +0.000 C 
ATOM      3  C   UNL     1       6.357   5.739  15.996  0.00  0.00    +0.000 C 
ATOM      4  C   UNL     1       7.453   6.627  16.559  0.00  0.00    +0.000 C 
ATOM      5  C   UNL     1       7.376   6.731  18.087  0.00  0.00    +0.000 C 
ATOM      6  C   UNL     1       7.334   5.353  18.763  0.00  0.00    +0.000 C 
ENDROOT
BRANCH   1   9
ATOM      7  C   UNL     1       4.556   3.220  19.517  0.00  0.00    +0.000 C 
ATOM      8  O   UNL     1       5.213   2.295  19.975  0.00  0.00    +0.000 OA
ATOM      9  N   UNL     1       5.075   4.102  18.587  0.00  0.00    +0.000 N 
ATOM     10  H   UNL     1       4.470   4.890  18.392  0.00  0.00    +0.000 HD
BRANCH   7  15
ATOM     11  C   UNL     1       2.166   4.295  19.345  0.00  0.00    +0.000 A 
ATOM     12  N   UNL     1       0.942   4.249  20.024  0.00  0.00    +0.000 NA
ATOM     13  N   UNL     1       0.984   3.475  21.088  0.00  0.00    +0.000 NA
ATOM     14  S   UNL     1       2.465   2.763  21.298  0.00  0.00    +0.000 S 
ATOM     15  C   UNL     1       3.170   3.498  19.899  0.00  0.00    +0.000 A 
BRANCH  11  16
ATOM     16  C   UNL     1       2.186   5.184  18.139  0.00  0.00    +0.000 C 
BRANCH  16  18
ATOM     17  C   UNL     1       3.587   7.252  17.700  0.00  0.00    +0.000 C 
ATOM     18  C   UNL     1       2.458   6.647  18.518  0.00  0.00    +0.000 C 
ENDBRANCH  16  18
ENDBRANCH  11  16
ENDBRANCH   7  15
ENDBRANCH   1   9
BRANCH   5  19
ATOM     19  O   UNL     1       8.550   7.463  18.547  0.00  0.00    +0.000 OA
BRANCH  19  20
ATOM     20  C   UNL     1       8.414   8.823  18.464  0.00  0.00    +0.000 C 
ATOM     21  O   UNL     1       7.601   9.359  17.720  0.00  0.00    +0.000 OA
ATOM     22  N   UNL     1       9.333   9.470  19.263  0.00  0.00    +0.000 N 
ATOM     23  H   UNL     1      10.045   8.885  19.678  0.00  0.00    +0.000 HD
BRANCH  22  24
ATOM     24  C   UNL     1       9.418  10.874  19.428  0.00  0.00    +0.000 A 
ATOM     25  C   UNL     1       9.585  11.746  18.345  0.00  0.00    +0.000 A 
ATOM     26  C   UNL     1       9.690  13.125  18.528  0.00  0.00    +0.000 A 
ATOM     27  C   UNL     1       9.621  13.661  19.807  0.00  0.00    +0.000 A 
ATOM     28  C   UNL     1       9.436  12.813  20.898  0.00  0.00    +0.000 A 
ATOM     29  C   UNL     1       9.326  11.426  20.712  0.00  0.00    +0.000 A 
ENDBRANCH  22  24
ENDBRANCH  19  20
ENDBRANCH   5  19
TORSDOF 7
ENDMDL
MODEL 3
REMARK VINA RESULT:      -7.6      0.514      1.099
REMARK  Name = 
REMARK  8 active torsions:
REMARK  status: ('A' for Active; 'I' for Inactive)
REMARK    1  A    between atoms: C_1  and  C_2
REMARK    2  A    between atoms: C_2  and  C_3
REMARK    3  A    between atoms: C_3  and  C_4
REMARK    4  A    between atoms: C_8  and  C_9
REMARK    5  A    between atoms: N_11  and  C_12
REMARK    6  A    between atoms: C_16  and  O_17
REMARK    7  A    between atoms: O_17  and  C_18
REMARK    8  A    between atoms: N_20  and  C_21
REMARK                            x       y       z     vdW  Elec       q    Type
REMARK                         _______ _______ _______ _____ _____    ______ ____
ROOT
ATOM      1  C   UNL     1       2.612   5.360  20.221  0.00  0.00    +0.000 C 
ATOM      2  C   UNL     1       1.599   4.528  19.431  0.00  0.00    +0.000 C 
ATOM      3  C   UNL     1       1.718   4.720  17.930  0.00  0.00    +0.000 C 
ATOM      4  C   UNL     1       3.125   4.378  17.471  0.00  0.00    +0.000 C 
ATOM      5  C   UNL     1       4.176   5.275  18.136  0.00  0.00    +0.000 C 
ATOM      6  C   UNL     1       4.047   5.288  19.666  0.00  0.00    +0.000 C 
ENDROOT
BRANCH   1   9
ATOM      7  C   UNL     1       1.877   7.827  19.867  0.00  0.00    +0.000 C 
ATOM      8  O   UNL     1       2.326   7.965  18.736  0.00  0.00    +0.000 OA
ATOM      9  N   UNL     1       2.066   6.669  20.597  0.00  0.00    +0.000 N 
ATOM     10  H   UNL     1       1.536   6.640  21.459  0.00  0.00    +0.000 HD
BRANCH   7  15
ATOM     11  C   UNL     1       0.140   9.778  20.136  0.00  0.00    +0.000 A 
ATOM     12  N   UNL     1      -0.399  10.571  21.157  0.00  0.00    +0.000 NA
ATOM     13  N   UNL     1       0.131  10.310  22.333  0.00  0.00    +0.000 NA
ATOM     14  S   UNL     1       1.262   9.100  22.266  0.00  0.00    +0.000 S 
ATOM     15  C   UNL     1       1.096   8.853  20.560  0.00  0.00    +0.000 A 
BRANCH  11  16
ATOM     16  C   UNL     1      -0.407  10.052  18.769  0.00  0.00    +0.000 C 
BRANCH  16  18
ATOM     17  C   UNL     1      -2.102  11.833  18.146  0.00  0.00    +0.000 C 
ATOM     18  C   UNL     1      -0.665  11.550  18.552  0.00  0.00    +0.000 C 
ENDBRANCH  16  18
ENDBRANCH  11  16
ENDBRANCH   7  15
ENDBRANCH   1   9
BRANCH   5  19
ATOM     19  O   UNL     1       5.494   4.774  17.765  0.00  0.00    +0.000 OA
BRANCH  19  20
ATOM     20  C   UNL     1       5.919   5.208  16.537  0.00  0.00    +0.000 C 
ATOM     21  O   UNL     1       6.112   6.393  16.289  0.00  0.00    +0.000 OA
ATOM     22  N   UNL     1       6.031   4.163  15.645  0.00  0.00    +0.000 N 
ATOM     23  H   UNL     1       5.667   3.274  15.960  0.00  0.00    +0.000 HD
BRANCH  22  24
ATOM     24  C   UNL     1       6.490   4.281  14.310  0.00  0.00    +0.000 A 
ATOM     25  C   UNL     1       7.463   5.216  13.934  0.00  0.00    +0.000 A 
ATOM     26  C   UNL     1       7.886   5.335  12.609  0.00  0.00    +0.000 A 
ATOM     27  C   UNL     1       7.346   4.509  11.633  0.00  0.00    +0.000 A 
ATOM     28  C   UNL     1       6.391   3.558  11.990  0.00  0.00    +0.000 A 
ATOM     29  C   UNL     1       5.969   3.437  13.323  0.00  0.00    +0.000 A 
ENDBRANCH  22  24
ENDBRANCH  19  20
ENDBRANCH   5  19
TORSDOF 7
ENDMDL
MODEL 4
REMARK VINA RESULT:      -7.4      1.046      1.374
REMARK  Name = 
REMARK  8 active torsions:
REMARK  status: ('A' for Active; 'I' for Inactive)
REMARK    1  A    between atoms: C_1  and  C_2
REMARK    2  A    between atoms: C_2  and  C_3
REMARK    3  A    between atoms: C_3  and  C_4
REMARK    4  A    between atoms: C_8  and  C_9
REMARK    5  A    between atoms: N_11  and  C_12
REMARK    6  A    between atoms: C_16  and  O_17
REMARK    7  A    between atoms: O_17  and  C_18
REMARK    8  A    between atoms: N_20  and  C_21
REMARK                            x       y       z     vdW  Elec       q    Type
REMARK                         _______ _______ _______ _____ _____    ______ ____
ROOT
ATOM      1  C   UNL     1       2.496   5.224  20.608  0.00  0.00    +0.000 C 
ATOM      2  C   UNL     1       1.397   4.199  20.319  0.00  0.00    +0.000 C 
ATOM      3  C   UNL     1       1.146   4.003  18.835  0.00  0.00    +0.000 C 
ATOM      4  C   UNL     1       2.429   3.582  18.140  0.00  0.00    +0.000 C 
ATOM      5  C   UNL     1       3.531   4.639  18.286  0.00  0.00    +0.000 C 
ATOM      6  C   UNL     1       3.762   5.039  19.751  0.00  0.00    +0.000 C 
ENDROOT
BRANCH   1   9
ATOM      7  C   UNL     1       1.927   7.668  19.928  0.00  0.00    +0.000 C 
ATOM      8  O   UNL     1       2.557   7.691  18.879  0.00  0.00    +0.000 OA
ATOM      9  N   UNL     1       1.950   6.576  20.777  0.00  0.00    +0.000 N 
ATOM     10  H   UNL     1       1.287   6.639  21.539  0.00  0.00    +0.000 HD
BRANCH   7  15
ATOM     11  C   UNL     1       0.786  10.032  19.875  0.00  0.00    +0.000 A 
ATOM     12  N   UNL     1      -0.115  10.782  20.643  0.00  0.00    +0.000 NA
ATOM     13  N   UNL     1      -0.486  10.156  21.739  0.00  0.00    +0.000 NA
ATOM     14  S   UNL     1       0.200   8.654  21.878  0.00  0.00    +0.000 S 
ATOM     15  C   UNL     1       1.086   8.772  20.395  0.00  0.00    +0.000 A 
BRANCH  11  16
ATOM     16  C   UNL     1       1.266  10.707  18.627  0.00  0.00    +0.000 C 
BRANCH  16  18
ATOM     17  C   UNL     1       2.432  12.958  18.714  0.00  0.00    +0.000 C 
ATOM     18  C   UNL     1       1.097  12.231  18.707  0.00  0.00    +0.000 C 
ENDBRANCH  16  18
ENDBRANCH  11  16
ENDBRANCH   7  15
ENDBRANCH   1   9
BRANCH   5  19
ATOM     19  O   UNL     1       4.761   4.084  17.735  0.00  0.00    +0.000 OA
BRANCH  19  20
ATOM     20  C   UNL     1       5.111   4.623  16.525  0.00  0.00    +0.000 C 
ATOM     21  O   UNL     1       4.814   5.769  16.206  0.00  0.00    +0.000 OA
ATOM     22  N   UNL     1       5.765   3.704  15.734  0.00  0.00    +0.000 N 
ATOM     23  H   UNL     1       5.775   2.753  16.079  0.00  0.00    +0.000 HD
BRANCH  22  24
ATOM     24  C   UNL     1       6.292   3.970  14.447  0.00  0.00    +0.000 A 
ATOM     25  C   UNL     1       5.848   3.294  13.303  0.00  0.00    +0.000 A 
ATOM     26  C   UNL     1       6.395   3.552  12.045  0.00  0.00    +0.000 A 
ATOM     27  C   UNL     1       7.395   4.504  11.907  0.00  0.00    +0.000 A 
ATOM     28  C   UNL     1       7.838   5.203  13.030  0.00  0.00    +0.000 A 
ATOM     29  C   UNL     1       7.284   4.945  14.294  0.00  0.00    +0.000 A 
ENDBRANCH  22  24
ENDBRANCH  19  20
ENDBRANCH   5  19
TORSDOF 7
ENDMDL
MODEL 5
REMARK VINA RESULT:      -7.3      3.810      5.796
REMARK  Name = 
REMARK  8 active torsions:
REMARK  status: ('A' for Active; 'I' for Inactive)
REMARK    1  A    between atoms: C_1  and  C_2
REMARK    2  A    between atoms: C_2  and  C_3
REMARK    3  A    between atoms: C_3  and  C_4
REMARK    4  A    between atoms: C_8  and  C_9
REMARK    5  A    between atoms: N_11  and  C_12
REMARK    6  A    between atoms: C_16  and  O_17
REMARK    7  A    between atoms: O_17  and  C_18
REMARK    8  A    between atoms: N_20  and  C_21
REMARK                            x       y       z     vdW  Elec       q    Type
REMARK                         _______ _______ _______ _____ _____    ______ ____
ROOT
ATOM      1  C   UNL     1       0.396  10.710  19.443  0.00  0.00    +0.000 C 
ATOM      2  C   UNL     1       0.715  10.333  20.892  0.00  0.00    +0.000 C 
ATOM      3  C   UNL     1       0.812   8.833  21.105  0.00  0.00    +0.000 C 
ATOM      4  C   UNL     1       1.866   8.244  20.183  0.00  0.00    +0.000 C 
ATOM      5  C   UNL     1       1.528   8.479  18.706  0.00  0.00    +0.000 C 
ATOM      6  C   UNL     1       1.245   9.957  18.402  0.00  0.00    +0.000 C 
ENDROOT
BRANCH   1   9
ATOM      7  C   UNL     1      -1.921  11.888  19.424  0.00  0.00    +0.000 C 
ATOM      8  O   UNL     1      -1.588  12.902  20.023  0.00  0.00    +0.000 OA
ATOM      9  N   UNL     1      -1.049  10.835  19.217  0.00  0.00    +0.000 N 
ATOM     10  H   UNL     1      -1.412  10.120  18.601  0.00  0.00    +0.000 HD
BRANCH   7  15
ATOM     11  C   UNL     1      -3.739  10.907  17.803  0.00  0.00    +0.000 A 
ATOM     12  N   UNL     1      -5.126  10.969  17.619  0.00  0.00    +0.000 NA
ATOM     13  N   UNL     1      -5.712  11.781  18.471  0.00  0.00    +0.000 NA
ATOM     14  S   UNL     1      -4.641  12.473  19.530  0.00  0.00    +0.000 S 
ATOM     15  C   UNL     1      -3.256  11.679  18.861  0.00  0.00    +0.000 A 
BRANCH  11  16
ATOM     16  C   UNL     1      -3.013  10.016  16.841  0.00  0.00    +0.000 C 
BRANCH  16  18
ATOM     17  C   UNL     1      -3.449  10.087  14.343  0.00  0.00    +0.000 C 
ATOM     18  C   UNL     1      -2.726  10.733  15.514  0.00  0.00    +0.000 C 
ENDBRANCH  16  18
ENDBRANCH  11  16
ENDBRANCH   7  15
ENDBRANCH   1   9
BRANCH   5  19
ATOM     19  O   UNL     1       2.662   8.027  17.909  0.00  0.00    +0.000 OA
BRANCH  19  20
ATOM     20  C   UNL     1       3.023   6.729  18.155  0.00  0.00    +0.000 C 
ATOM     21  O   UNL     1       4.188   6.394  18.339  0.00  0.00    +0.000 OA
ATOM     22  N   UNL     1       1.933   5.886  18.106  0.00  0.00    +0.000 N 
ATOM     23  H   UNL     1       1.072   6.297  17.771  0.00  0.00    +0.000 HD
BRANCH  22  24
ATOM     24  C   UNL     1       1.973   4.494  18.362  0.00  0.00    +0.000 A 
ATOM     25  C   UNL     1       2.487   3.578  17.435  0.00  0.00    +0.000 A 
ATOM     26  C   UNL     1       2.496   2.206  17.694  0.00  0.00    +0.000 A 
ATOM     27  C   UNL     1       1.997   1.725  18.896  0.00  0.00    +0.000 A 
ATOM     28  C   UNL     1       1.498   2.621  19.841  0.00  0.00    +0.000 A 
ATOM     29  C   UNL     1       1.493   4.001  19.581  0.00  0.00    +0.000 A 
ENDBRANCH  22  24
ENDBRANCH  19  20
ENDBRANCH   5  19
TORSDOF 7
ENDMDL
MODEL 6
REMARK VINA RESULT:      -7.3      3.802      6.396
REMARK  Name = 
REMARK  8 active torsions:
REMARK  status: ('A' for Active; 'I' for Inactive)
REMARK    1  A    between atoms: C_1  and  C_2
REMARK    2  A    between atoms: C_2  and  C_3
REMARK    3  A    between atoms: C_3  and  C_4
REMARK    4  A    between atoms: C_8  and  C_9
REMARK    5  A    between atoms: N_11  and  C_12
REMARK    6  A    between atoms: C_16  and  O_17
REMARK    7  A    between atoms: O_17  and  C_18
REMARK    8  A    between atoms: N_20  and  C_21
REMARK                            x       y       z     vdW  Elec       q    Type
REMARK                         _______ _______ _______ _____ _____    ______ ____
ROOT
ATOM      1  C   UNL     1      -0.560  11.456  21.177  0.00  0.00    +0.000 C 
ATOM      2  C   UNL     1      -0.792  11.472  22.690  0.00  0.00    +0.000 C 
ATOM      3  C   UNL     1      -0.907  10.081  23.286  0.00  0.00    +0.000 C 
ATOM      4  C   UNL     1       0.342   9.276  22.973  0.00  0.00    +0.000 C 
ATOM      5  C   UNL     1       0.554   9.114  21.463  0.00  0.00    +0.000 C 
ATOM      6  C   UNL     1       0.525  10.460  20.724  0.00  0.00    +0.000 C 
ENDROOT
BRANCH   1   9
ATOM      7  C   UNL     1      -2.596  12.579  20.016  0.00  0.00    +0.000 C 
ATOM      8  O   UNL     1      -2.378  13.725  20.388  0.00  0.00    +0.000 OA
ATOM      9  N   UNL     1      -1.822  11.511  20.431  0.00  0.00    +0.000 N 
ATOM     10  H   UNL     1      -2.032  10.646  19.950  0.00  0.00    +0.000 HD
BRANCH   7  15
ATOM     11  C   UNL     1      -3.702  11.649  17.824  0.00  0.00    +0.000 A 
ATOM     12  N   UNL     1      -4.986  11.430  17.306  0.00  0.00    +0.000 NA
ATOM     13  N   UNL     1      -5.935  11.836  18.121  0.00  0.00    +0.000 NA
ATOM     14  S   UNL     1      -5.336  12.464  19.533  0.00  0.00    +0.000 S 
ATOM     15  C   UNL     1      -3.679  12.215  19.100  0.00  0.00    +0.000 A 
BRANCH  11  16
ATOM     16  C   UNL     1      -2.579  11.230  16.926  0.00  0.00    +0.000 C 
BRANCH  16  18
ATOM     17  C   UNL     1      -2.966  10.045  14.717  0.00  0.00    +0.000 C 
ATOM     18  C   UNL     1      -2.880   9.897  16.227  0.00  0.00    +0.000 C 
ENDBRANCH  16  18
ENDBRANCH  11  16
ENDBRANCH   7  15
ENDBRANCH   1   9
BRANCH   5  19
ATOM     19  O   UNL     1       1.848   8.475  21.256  0.00  0.00    +0.000 OA
BRANCH  19  20
ATOM     20  C   UNL     1       1.915   7.733  20.106  0.00  0.00    +0.000 C 
ATOM     21  O   UNL     1       1.699   8.216  19.000  0.00  0.00    +0.000 OA
ATOM     22  N   UNL     1       2.188   6.410  20.376  0.00  0.00    +0.000 N 
ATOM     23  H   UNL     1       2.165   6.145  21.351  0.00  0.00    +0.000 HD
BRANCH  22  24
ATOM     24  C   UNL     1       2.364   5.402  19.397  0.00  0.00    +0.000 A 
ATOM     25  C   UNL     1       1.458   4.346  19.240  0.00  0.00    +0.000 A 
ATOM     26  C   UNL     1       1.659   3.348  18.285  0.00  0.00    +0.000 A 
ATOM     27  C   UNL     1       2.773   3.394  17.459  0.00  0.00    +0.000 A 
ATOM     28  C   UNL     1       3.679   4.448  17.585  0.00  0.00    +0.000 A 
ATOM     29  C   UNL     1       3.473   5.453  18.543  0.00  0.00    +0.000 A 
ENDBRANCH  22  24
ENDBRANCH  19  20
ENDBRANCH   5  19
TORSDOF 7
ENDMDL
MODEL 7
REMARK VINA RESULT:      -7.3      0.982      1.603
REMARK  Name = 
REMARK  8 active torsions:
REMARK  status: ('A' for Active; 'I' for Inactive)
REMARK    1  A    between atoms: C_1  and  C_2
REMARK    2  A    between atoms: C_2  and  C_3
REMARK    3  A    between atoms: C_3  and  C_4
REMARK    4  A    between atoms: C_8  and  C_9
REMARK    5  A    between atoms: N_11  and  C_12
REMARK    6  A    between atoms: C_16  and  O_17
REMARK    7  A    between atoms: O_17  and  C_18
REMARK    8  A    between atoms: N_20  and  C_21
REMARK                            x       y       z     vdW  Elec       q    Type
REMARK                         _______ _______ _______ _____ _____    ______ ____
ROOT
ATOM      1  C   UNL     1       2.623   5.493  20.196  0.00  0.00    +0.000 C 
ATOM      2  C   UNL     1       1.631   4.575  19.477  0.00  0.00    +0.000 C 
ATOM      3  C   UNL     1       1.742   4.653  17.966  0.00  0.00    +0.000 C 
ATOM      4  C   UNL     1       3.156   4.313  17.529  0.00  0.00    +0.000 C 
ATOM      5  C   UNL     1       4.185   5.287  18.117  0.00  0.00    +0.000 C 
ATOM      6  C   UNL     1       4.058   5.416  19.642  0.00  0.00    +0.000 C 
ENDROOT
BRANCH   1   9
ATOM      7  C   UNL     1       1.897   7.934  19.674  0.00  0.00    +0.000 C 
ATOM      8  O   UNL     1       2.421   8.022  18.571  0.00  0.00    +0.000 OA
ATOM      9  N   UNL     1       2.043   6.813  20.471  0.00  0.00    +0.000 N 
ATOM     10  H   UNL     1       1.456   6.820  21.294  0.00  0.00    +0.000 HD
BRANCH   7  15
ATOM     11  C   UNL     1       0.761  10.292  19.883  0.00  0.00    +0.000 A 
ATOM     12  N   UNL     1      -0.131  10.957  20.734  0.00  0.00    +0.000 NA
ATOM     13  N   UNL     1      -0.495  10.219  21.760  0.00  0.00    +0.000 NA
ATOM     14  S   UNL     1       0.189   8.709  21.732  0.00  0.00    +0.000 S 
ATOM     15  C   UNL     1       1.062   8.983  20.263  0.00  0.00    +0.000 A 
BRANCH  11  16
ATOM     16  C   UNL     1       1.232  11.096  18.709  0.00  0.00    +0.000 C 
BRANCH  16  18
ATOM     17  C   UNL     1       1.334  13.614  18.427  0.00  0.00    +0.000 C 
ATOM     18  C   UNL     1       1.902  12.405  19.152  0.00  0.00    +0.000 C 
ENDBRANCH  16  18
ENDBRANCH  11  16
ENDBRANCH   7  15
ENDBRANCH   1   9
BRANCH   5  19
ATOM     19  O   UNL     1       5.515   4.793  17.781  0.00  0.00    +0.000 OA
BRANCH  19  20
ATOM     20  C   UNL     1       5.954   5.199  16.549  0.00  0.00    +0.000 C 
ATOM     21  O   UNL     1       6.216   6.371  16.298  0.00  0.00    +0.000 OA
ATOM     22  N   UNL     1       5.996   4.149  15.658  0.00  0.00    +0.000 N 
ATOM     23  H   UNL     1       5.582   3.283  15.977  0.00  0.00    +0.000 HD
BRANCH  22  24
ATOM     24  C   UNL     1       6.449   4.238  14.319  0.00  0.00    +0.000 A 
ATOM     25  C   UNL     1       7.435   5.151  13.923  0.00  0.00    +0.000 A 
ATOM     26  C   UNL     1       7.854   5.241  12.594  0.00  0.00    +0.000 A 
ATOM     27  C   UNL     1       7.295   4.409  11.634  0.00  0.00    +0.000 A 
ATOM     28  C   UNL     1       6.326   3.480  12.010  0.00  0.00    +0.000 A 
ATOM     29  C   UNL     1       5.909   3.387  13.348  0.00  0.00    +0.000 A 
ENDBRANCH  22  24
ENDBRANCH  19  20
ENDBRANCH   5  19
TORSDOF 7
ENDMDL
MODEL 8
REMARK VINA RESULT:      -7.2      4.444      6.591
REMARK  Name = 
REMARK  8 active torsions:
REMARK  status: ('A' for Active; 'I' for Inactive)
REMARK    1  A    between atoms: C_1  and  C_2
REMARK    2  A    between atoms: C_2  and  C_3
REMARK    3  A    between atoms: C_3  and  C_4
REMARK    4  A    between atoms: C_8  and  C_9
REMARK    5  A    between atoms: N_11  and  C_12
REMARK    6  A    between atoms: C_16  and  O_17
REMARK    7  A    between atoms: O_17  and  C_18
REMARK    8  A    between atoms: N_20  and  C_21
REMARK                            x       y       z     vdW  Elec       q    Type
REMARK                         _______ _______ _______ _____ _____    ______ ____
ROOT
ATOM      1  C   UNL     1      -0.372  11.272  20.924  0.00  0.00    +0.000 C 
ATOM      2  C   UNL     1      -0.437  11.143  22.447  0.00  0.00    +0.000 C 
ATOM      3  C   UNL     1      -0.400   9.702  22.922  0.00  0.00    +0.000 C 
ATOM      4  C   UNL     1       0.854   9.016  22.407  0.00  0.00    +0.000 C 
ATOM      5  C   UNL     1       0.907   8.999  20.875  0.00  0.00    +0.000 C 
ATOM      6  C   UNL     1       0.715  10.398  20.270  0.00  0.00    +0.000 C 
ENDROOT
BRANCH   1   9
ATOM      7  C   UNL     1      -2.382  12.292  19.629  0.00  0.00    +0.000 C 
ATOM      8  O   UNL     1      -1.957  13.437  19.554  0.00  0.00    +0.000 OA
ATOM      9  N   UNL     1      -1.710  11.302  20.321  0.00  0.00    +0.000 N 
ATOM     10  H   UNL     1      -2.103  10.378  20.195  0.00  0.00    +0.000 HD
BRANCH   7  15
ATOM     11  C   UNL     1      -3.920  10.852  18.063  0.00  0.00    +0.000 A 
ATOM     12  N   UNL     1      -5.280  10.730  17.749  0.00  0.00    +0.000 NA
ATOM     13  N   UNL     1      -6.025  11.609  18.383  0.00  0.00    +0.000 NA
ATOM     14  S   UNL     1      -5.140  12.587  19.387  0.00  0.00    +0.000 S 
ATOM     15  C   UNL     1      -3.625  11.844  18.999  0.00  0.00    +0.000 A 
BRANCH  11  16
ATOM     16  C   UNL     1      -3.019   9.892  17.348  0.00  0.00    +0.000 C 
BRANCH  16  18
ATOM     17  C   UNL     1      -3.143  10.275  14.844  0.00  0.00    +0.000 C 
ATOM     18  C   UNL     1      -2.362  10.540  16.120  0.00  0.00    +0.000 C 
ENDBRANCH  16  18
ENDBRANCH  11  16
ENDBRANCH   7  15
ENDBRANCH   1   9
BRANCH   5  19
ATOM     19  O   UNL     1       2.207   8.472  20.476  0.00  0.00    +0.000 OA
BRANCH  19  20
ATOM     20  C   UNL     1       2.130   7.303  19.767  0.00  0.00    +0.000 C 
ATOM     21  O   UNL     1       2.027   7.282  18.545  0.00  0.00    +0.000 OA
ATOM     22  N   UNL     1       2.126   6.207  20.602  0.00  0.00    +0.000 N 
ATOM     23  H   UNL     1       2.041   6.406  21.590  0.00  0.00    +0.000 HD
BRANCH  22  24
ATOM     24  C   UNL     1       2.100   4.859  20.170  0.00  0.00    +0.000 A 
ATOM     25  C   UNL     1       3.236   4.213  19.666  0.00  0.00    +0.000 A 
ATOM     26  C   UNL     1       3.187   2.890  19.223  0.00  0.00    +0.000 A 
ATOM     27  C   UNL     1       1.994   2.183  19.287  0.00  0.00    +0.000 A 
ATOM     28  C   UNL     1       0.856   2.800  19.803  0.00  0.00    +0.000 A 
ATOM     29  C   UNL     1       0.908   4.129  20.252  0.00  0.00    +0.000 A 
ENDBRANCH  22  24
ENDBRANCH  19  20
ENDBRANCH   5  19
TORSDOF 7
ENDMDL
MODEL 9
REMARK VINA RESULT:      -7.2      3.124      8.721
REMARK  Name = 
REMARK  8 active torsions:
REMARK  status: ('A' for Active; 'I' for Inactive)
REMARK    1  A    between atoms: C_1  and  C_2
REMARK    2  A    between atoms: C_2  and  C_3
REMARK    3  A    between atoms: C_3  and  C_4
REMARK    4  A    between atoms: C_8  and  C_9
REMARK    5  A    between atoms: N_11  and  C_12
REMARK    6  A    between atoms: C_16  and  O_17
REMARK    7  A    between atoms: O_17  and  C_18
REMARK    8  A    between atoms: N_20  and  C_21
REMARK                            x       y       z     vdW  Elec       q    Type
REMARK                         _______ _______ _______ _____ _____    ______ ____
ROOT
ATOM      1  C   UNL     1       2.486   3.616  18.225  0.00  0.00    +0.000 C 
ATOM      2  C   UNL     1       2.746   2.410  19.131  0.00  0.00    +0.000 C 
ATOM      3  C   UNL     1       3.266   2.802  20.503  0.00  0.00    +0.000 C 
ATOM      4  C   UNL     1       2.287   3.745  21.181  0.00  0.00    +0.000 C 
ATOM      5  C   UNL     1       2.089   5.036  20.377  0.00  0.00    +0.000 C 
ATOM      6  C   UNL     1       1.716   4.758  18.913  0.00  0.00    +0.000 C 
ENDROOT
BRANCH   1   9
ATOM      7  C   UNL     1       4.341   5.138  17.227  0.00  0.00    +0.000 C 
ATOM      8  O   UNL     1       3.915   6.205  17.649  0.00  0.00    +0.000 OA
ATOM      9  N   UNL     1       3.661   3.949  17.410  0.00  0.00    +0.000 N 
ATOM     10  H   UNL     1       4.185   3.132  17.126  0.00  0.00    +0.000 HD
BRANCH   7  15
ATOM     11  C   UNL     1       6.943   5.018  16.890  0.00  0.00    +0.000 A 
ATOM     12  N   UNL     1       7.860   4.809  15.852  0.00  0.00    +0.000 NA
ATOM     13  N   UNL     1       7.274   4.665  14.683  0.00  0.00    +0.000 NA
ATOM     14  S   UNL     1       5.622   4.749  14.784  0.00  0.00    +0.000 S 
ATOM     15  C   UNL     1       5.604   5.000  16.497  0.00  0.00    +0.000 A 
BRANCH  11  16
ATOM     16  C   UNL     1       7.556   5.215  18.243  0.00  0.00    +0.000 C 
BRANCH  16  18
ATOM     17  C   UNL     1       7.304   7.624  17.493  0.00  0.00    +0.000 C 
ATOM     18  C   UNL     1       7.984   6.673  18.463  0.00  0.00    +0.000 C 
ENDBRANCH  16  18
ENDBRANCH  11  16
ENDBRANCH   7  15
ENDBRANCH   1   9
BRANCH   5  19
ATOM     19  O   UNL     1       1.023   5.801  21.013  0.00  0.00    +0.000 OA
BRANCH  19  20
ATOM     20  C   UNL     1       1.149   7.155  20.851  0.00  0.00    +0.000 C 
ATOM     21  O   UNL     1       2.161   7.670  20.388  0.00  0.00    +0.000 OA
ATOM     22  N   UNL     1       0.041   7.824  21.323  0.00  0.00    +0.000 N 
ATOM     23  H   UNL     1      -0.629   7.263  21.832  0.00  0.00    +0.000 HD
BRANCH  22  24
ATOM     24  C   UNL     1      -0.151   9.226  21.256  0.00  0.00    +0.000 A 
ATOM     25  C   UNL     1      -0.195   9.917  20.039  0.00  0.00    +0.000 A 
ATOM     26  C   UNL     1      -0.361  11.302  19.992  0.00  0.00    +0.000 A 
ATOM     27  C   UNL     1      -0.495  12.023  21.170  0.00  0.00    +0.000 A 
ATOM     28  C   UNL     1      -0.473  11.352  22.393  0.00  0.00    +0.000 A 
ATOM     29  C   UNL     1      -0.310   9.959  22.438  0.00  0.00    +0.000 A 
ENDBRANCH  22  24
ENDBRANCH  19  20
ENDBRANCH   5  19
TORSDOF 7
ENDMDL
