MODEL 1
REMARK VINA RESULT:      -7.8      0.000      0.000
REMARK  Name = 
REMARK  8 active torsions:
REMARK  status: ('A' for Active; 'I' for Inactive)
REMARK    1  A    between atoms: C_1  and  C_2
REMARK    2  A    between atoms: C_2  and  C_3
REMARK    3  A    between atoms: C_7  and  N_8
REMARK    4  A    between atoms: C_15  and  S_16
REMARK    5  A    between atoms: S_16  and  C_17
REMARK    6  A    between atoms: C_17  and  C_18
REMARK    7  A    between atoms: C_18  and  C_19
REMARK    8  A    between atoms: C_25  and  C_26
REMARK                            x       y       z     vdW  Elec       q    Type
REMARK                         _______ _______ _______ _____ _____    ______ ____
ROOT
ATOM      1  C   UNL     1       3.525   1.115  18.686  0.00  0.00    +0.000 C 
ATOM      2  C   UNL     1       3.674   2.619  18.949  0.00  0.00    +0.000 C 
ATOM      3  C   UNL     1       3.786   2.848  20.463  0.00  0.00    +0.000 C 
ATOM      4  C   UNL     1       4.873   3.172  18.160  0.00  0.00    +0.000 C 
ATOM      5  C   UNL     1       4.886   4.686  18.042  0.00  0.00    +0.000 A 
ATOM      6  C   UNL     1       3.677   5.399  18.234  0.00  0.00    +0.000 A 
ATOM      7  C   UNL     1       3.698   6.811  18.228  0.00  0.00    +0.000 A 
ATOM      8  N   UNL     1       4.853   7.479  17.952  0.00  0.00    +0.000 NA
ATOM      9  C   UNL     1       5.986   6.786  17.643  0.00  0.00    +0.000 A 
ATOM     10  C   UNL     1       6.061   5.389  17.708  0.00  0.00    +0.000 A 
ATOM     11  C   UNL     1       2.418   4.619  18.541  0.00  0.00    +0.000 C 
ATOM     12  O   UNL     1       2.485   3.201  18.430  0.00  0.00    +0.000 OA
ENDROOT
BRANCH   7  13
ATOM     13  N   UNL     1       2.609   7.573  18.587  0.00  0.00    +0.000 N 
ATOM     14  C   UNL     1       1.936   8.422  17.593  0.00  0.00    +0.000 C 
ATOM     15  C   UNL     1       1.696   9.809  18.238  0.00  0.00    +0.000 C 
ATOM     16  O   UNL     1       0.988   9.728  19.493  0.00  0.00    +0.000 OA
ATOM     17  C   UNL     1       1.664   8.852  20.416  0.00  0.00    +0.000 C 
ATOM     18  C   UNL     1       1.798   7.447  19.803  0.00  0.00    +0.000 C 
ENDBRANCH   7  13
BRANCH  10  19
ATOM     19  C   UNL     1       7.307   4.622  17.393  0.00  0.00    +0.000 C 
ATOM     20  N   UNL     1       7.555   4.290  16.090  0.00  0.00    +0.000 N 
ATOM     21  O   UNL     1       8.118   4.321  18.259  0.00  0.00    +0.000 OA
ATOM     22  H   UNL     1       6.807   4.245  15.412  0.00  0.00    +0.000 HD
ATOM     23  H   UNL     1       8.343   3.664  15.940  0.00  0.00    +0.000 HD
ENDBRANCH  10  19
BRANCH   9  24
ATOM     24  S   UNL     1       7.334   7.743  16.925  0.00  0.00    +0.000 S 
BRANCH  24  25
ATOM     25  C   UNL     1       8.221   8.438  18.365  0.00  0.00    +0.000 C 
BRANCH  25  26
ATOM     26  C   UNL     1       8.164   9.971  18.226  0.00  0.00    +0.000 C 
BRANCH  26  27
ATOM     27  C   UNL     1       9.367  10.684  18.794  0.00  0.00    +0.000 A 
ATOM     28  C   UNL     1      10.432  11.064  17.966  0.00  0.00    +0.000 A 
ATOM     29  C   UNL     1      11.531  11.747  18.494  0.00  0.00    +0.000 A 
ATOM     30  C   UNL     1      11.576  12.058  19.851  0.00  0.00    +0.000 A 
ATOM     31  C   UNL     1      10.520  11.691  20.683  0.00  0.00    +0.000 A 
ATOM     32  C   UNL     1       9.421  11.007  20.158  0.00  0.00    +0.000 A 
ENDBRANCH  26  27
ENDBRANCH  25  26
ENDBRANCH  24  25
ENDBRANCH   9  24
TORSDOF 6
ENDMDL
MODEL 2
REMARK VINA RESULT:      -7.4      4.151      7.993
REMARK  Name = 
REMARK  8 active torsions:
REMARK  status: ('A' for Active; 'I' for Inactive)
REMARK    1  A    between atoms: C_1  and  C_2
REMARK    2  A    between atoms: C_2  and  C_3
REMARK    3  A    between atoms: C_7  and  N_8
REMARK    4  A    between atoms: C_15  and  S_16
REMARK    5  A    between atoms: S_16  and  C_17
REMARK    6  A    between atoms: C_17  and  C_18
REMARK    7  A    between atoms: C_18  and  C_19
REMARK    8  A    between atoms: C_25  and  C_26
REMARK                            x       y       z     vdW  Elec       q    Type
REMARK                         _______ _______ _______ _____ _____    ______ ____
ROOT
ATOM      1  C   UNL     1       1.893   2.594  22.047  0.00  0.00    +0.000 C 
ATOM      2  C   UNL     1       2.038   3.411  20.756  0.00  0.00    +0.000 C 
ATOM      3  C   UNL     1       1.038   2.881  19.720  0.00  0.00    +0.000 C 
ATOM      4  C   UNL     1       1.859   4.908  21.063  0.00  0.00    +0.000 C 
ATOM      5  C   UNL     1       2.351   5.825  19.957  0.00  0.00    +0.000 A 
ATOM      6  C   UNL     1       3.279   5.323  19.011  0.00  0.00    +0.000 A 
ATOM      7  C   UNL     1       3.663   6.133  17.921  0.00  0.00    +0.000 A 
ATOM      8  N   UNL     1       3.214   7.416  17.828  0.00  0.00    +0.000 NA
ATOM      9  C   UNL     1       2.422   7.936  18.808  0.00  0.00    +0.000 A 
ATOM     10  C   UNL     1       1.936   7.170  19.874  0.00  0.00    +0.000 A 
ATOM     11  C   UNL     1       3.750   3.892  19.149  0.00  0.00    +0.000 C 
ATOM     12  O   UNL     1       3.378   3.194  20.334  0.00  0.00    +0.000 OA
ENDROOT
BRANCH   7  13
ATOM     13  N   UNL     1       4.412   5.658  16.867  0.00  0.00    +0.000 N 
ATOM     14  C   UNL     1       4.127   4.338  16.289  0.00  0.00    +0.000 C 
ATOM     15  C   UNL     1       5.475   3.597  16.109  0.00  0.00    +0.000 C 
ATOM     16  O   UNL     1       6.435   4.359  15.346  0.00  0.00    +0.000 OA
ATOM     17  C   UNL     1       6.646   5.660  15.929  0.00  0.00    +0.000 C 
ATOM     18  C   UNL     1       5.314   6.426  16.001  0.00  0.00    +0.000 C 
ENDBRANCH   7  13
BRANCH  10  19
ATOM     19  C   UNL     1       1.047   7.726  20.943  0.00  0.00    +0.000 C 
ATOM     20  N   UNL     1       1.611   8.486  21.929  0.00  0.00    +0.000 N 
ATOM     21  O   UNL     1      -0.165   7.549  20.932  0.00  0.00    +0.000 OA
ATOM     22  H   UNL     1       2.595   8.410  22.147  0.00  0.00    +0.000 HD
ATOM     23  H   UNL     1       0.993   8.735  22.697  0.00  0.00    +0.000 HD
ENDBRANCH  10  19
BRANCH   9  24
ATOM     24  S   UNL     1       2.206   9.725  18.793  0.00  0.00    +0.000 S 
BRANCH  24  25
ATOM     25  C   UNL     1       0.737  10.000  17.740  0.00  0.00    +0.000 C 
BRANCH  25  26
ATOM     26  C   UNL     1      -0.460  10.199  18.688  0.00  0.00    +0.000 C 
BRANCH  26  27
ATOM     27  C   UNL     1      -1.764  10.482  17.982  0.00  0.00    +0.000 A 
ATOM     28  C   UNL     1      -2.655  11.443  18.481  0.00  0.00    +0.000 A 
ATOM     29  C   UNL     1      -3.848  11.719  17.808  0.00  0.00    +0.000 A 
ATOM     30  C   UNL     1      -4.162  11.040  16.632  0.00  0.00    +0.000 A 
ATOM     31  C   UNL     1      -3.281  10.088  16.124  0.00  0.00    +0.000 A 
ATOM     32  C   UNL     1      -2.088   9.809  16.796  0.00  0.00    +0.000 A 
ENDBRANCH  26  27
ENDBRANCH  25  26
ENDBRANCH  24  25
ENDBRANCH   9  24
TORSDOF 6
ENDMDL
MODEL 3
REMARK VINA RESULT:      -7.3      6.461     10.677
REMARK  Name = 
REMARK  8 active torsions:
REMARK  status: ('A' for Active; 'I' for Inactive)
REMARK    1  A    between atoms: C_1  and  C_2
REMARK    2  A    between atoms: C_2  and  C_3
REMARK    3  A    between atoms: C_7  and  N_8
REMARK    4  A    between atoms: C_15  and  S_16
REMARK    5  A    between atoms: S_16  and  C_17
REMARK    6  A    between atoms: C_17  and  C_18
REMARK    7  A    between atoms: C_18  and  C_19
REMARK    8  A    between atoms: C_25  and  C_26
REMARK                            x       y       z     vdW  Elec       q    Type
REMARK                         _______ _______ _______ _____ _____    ______ ____
ROOT
ATOM      1  C   UNL     1      -7.565  12.722  18.324  0.00  0.00    +0.000 C 
ATOM      2  C   UNL     1      -6.386  12.386  19.246  0.00  0.00    +0.000 C 
ATOM      3  C   UNL     1      -6.786  11.215  20.154  0.00  0.00    +0.000 C 
ATOM      4  C   UNL     1      -5.130  12.101  18.405  0.00  0.00    +0.000 C 
ATOM      5  C   UNL     1      -3.837  12.133  19.202  0.00  0.00    +0.000 A 
ATOM      6  C   UNL     1      -3.813  12.816  20.442  0.00  0.00    +0.000 A 
ATOM      7  C   UNL     1      -2.647  12.765  21.238  0.00  0.00    +0.000 A 
ATOM      8  N   UNL     1      -1.528  12.139  20.776  0.00  0.00    +0.000 NA
ATOM      9  C   UNL     1      -1.517  11.593  19.527  0.00  0.00    +0.000 A 
ATOM     10  C   UNL     1      -2.657  11.535  18.716  0.00  0.00    +0.000 A 
ATOM     11  C   UNL     1      -5.077  13.495  20.920  0.00  0.00    +0.000 C 
ATOM     12  O   UNL     1      -6.164  13.569  20.003  0.00  0.00    +0.000 OA
ENDROOT
BRANCH   7  13
ATOM     13  N   UNL     1      -2.605  13.243  22.528  0.00  0.00    +0.000 N 
ATOM     14  C   UNL     1      -3.063  12.407  23.647  0.00  0.00    +0.000 C 
ATOM     15  C   UNL     1      -3.964  13.280  24.554  0.00  0.00    +0.000 C 
ATOM     16  O   UNL     1      -3.317  14.497  24.980  0.00  0.00    +0.000 OA
ATOM     17  C   UNL     1      -2.848  15.259  23.851  0.00  0.00    +0.000 C 
ATOM     18  C   UNL     1      -1.868  14.414  23.018  0.00  0.00    +0.000 C 
ENDBRANCH   7  13
BRANCH  10  19
ATOM     19  C   UNL     1      -2.660  10.916  17.352  0.00  0.00    +0.000 C 
ATOM     20  N   UNL     1      -2.354  11.706  16.279  0.00  0.00    +0.000 N 
ATOM     21  O   UNL     1      -2.889   9.725  17.183  0.00  0.00    +0.000 OA
ATOM     22  H   UNL     1      -2.454  12.710  16.325  0.00  0.00    +0.000 HD
ATOM     23  H   UNL     1      -2.490  11.276  15.367  0.00  0.00    +0.000 HD
ENDBRANCH  10  19
BRANCH   9  24
ATOM     24  S   UNL     1       0.099  11.142  18.869  0.00  0.00    +0.000 S 
BRANCH  24  25
ATOM     25  C   UNL     1       0.434   9.487  19.570  0.00  0.00    +0.000 C 
BRANCH  25  26
ATOM     26  C   UNL     1       1.788   9.027  18.998  0.00  0.00    +0.000 C 
BRANCH  26  27
ATOM     27  C   UNL     1       2.048   7.547  19.149  0.00  0.00    +0.000 A 
ATOM     28  C   UNL     1       1.796   6.896  20.365  0.00  0.00    +0.000 A 
ATOM     29  C   UNL     1       2.014   5.522  20.490  0.00  0.00    +0.000 A 
ATOM     30  C   UNL     1       2.484   4.785  19.405  0.00  0.00    +0.000 A 
ATOM     31  C   UNL     1       2.731   5.421  18.190  0.00  0.00    +0.000 A 
ATOM     32  C   UNL     1       2.515   6.795  18.062  0.00  0.00    +0.000 A 
ENDBRANCH  26  27
ENDBRANCH  25  26
ENDBRANCH  24  25
ENDBRANCH   9  24
TORSDOF 6
ENDMDL
MODEL 4
REMARK VINA RESULT:      -7.1      3.832      7.834
REMARK  Name = 
REMARK  8 active torsions:
REMARK  status: ('A' for Active; 'I' for Inactive)
REMARK    1  A    between atoms: C_1  and  C_2
REMARK    2  A    between atoms: C_2  and  C_3
REMARK    3  A    between atoms: C_7  and  N_8
REMARK    4  A    between atoms: C_15  and  S_16
REMARK    5  A    between atoms: S_16  and  C_17
REMARK    6  A    between atoms: C_17  and  C_18
REMARK    7  A    between atoms: C_18  and  C_19
REMARK    8  A    between atoms: C_25  and  C_26
REMARK                            x       y       z     vdW  Elec       q    Type
REMARK                         _______ _______ _______ _____ _____    ______ ____
ROOT
ATOM      1  C   UNL     1       3.264   2.095  21.446  0.00  0.00    +0.000 C 
ATOM      2  C   UNL     1       3.322   2.985  20.197  0.00  0.00    +0.000 C 
ATOM      3  C   UNL     1       2.498   2.327  19.082  0.00  0.00    +0.000 C 
ATOM      4  C   UNL     1       2.847   4.406  20.546  0.00  0.00    +0.000 C 
ATOM      5  C   UNL     1       3.217   5.450  19.506  0.00  0.00    +0.000 A 
ATOM      6  C   UNL     1       4.273   5.175  18.603  0.00  0.00    +0.000 A 
ATOM      7  C   UNL     1       4.556   6.093  17.569  0.00  0.00    +0.000 A 
ATOM      8  N   UNL     1       3.878   7.273  17.495  0.00  0.00    +0.000 NA
ATOM      9  C   UNL     1       2.950   7.589  18.442  0.00  0.00    +0.000 A 
ATOM     10  C   UNL     1       2.560   6.696  19.447  0.00  0.00    +0.000 A 
ATOM     11  C   UNL     1       4.997   3.852  18.718  0.00  0.00    +0.000 C 
ATOM     12  O   UNL     1       4.700   3.042  19.851  0.00  0.00    +0.000 OA
ENDROOT
BRANCH   7  13
ATOM     13  N   UNL     1       5.437   5.816  16.548  0.00  0.00    +0.000 N 
ATOM     14  C   UNL     1       4.952   5.660  15.169  0.00  0.00    +0.000 C 
ATOM     15  C   UNL     1       5.621   4.399  14.570  0.00  0.00    +0.000 C 
ATOM     16  O   UNL     1       7.060   4.429  14.668  0.00  0.00    +0.000 OA
ATOM     17  C   UNL     1       7.484   4.627  16.031  0.00  0.00    +0.000 C 
ATOM     18  C   UNL     1       6.899   5.941  16.577  0.00  0.00    +0.000 C 
ENDBRANCH   7  13
BRANCH  10  19
ATOM     19  C   UNL     1       1.525   7.025  20.477  0.00  0.00    +0.000 C 
ATOM     20  N   UNL     1       1.824   7.966  21.423  0.00  0.00    +0.000 N 
ATOM     21  O   UNL     1       0.416   6.506  20.469  0.00  0.00    +0.000 OA
ATOM     22  H   UNL     1       2.783   8.190  21.651  0.00  0.00    +0.000 HD
ATOM     23  H   UNL     1       1.143   8.066  22.172  0.00  0.00    +0.000 HD
ENDBRANCH  10  19
BRANCH   9  24
ATOM     24  S   UNL     1       2.401   9.305  18.478  0.00  0.00    +0.000 S 
BRANCH  24  25
ATOM     25  C   UNL     1       0.677   9.248  17.870  0.00  0.00    +0.000 C 
BRANCH  25  26
ATOM     26  C   UNL     1      -0.048  10.466  18.472  0.00  0.00    +0.000 C 
BRANCH  26  27
ATOM     27  C   UNL     1      -1.492  10.591  18.051  0.00  0.00    +0.000 A 
ATOM     28  C   UNL     1      -2.375  11.418  18.759  0.00  0.00    +0.000 A 
ATOM     29  C   UNL     1      -3.705  11.550  18.349  0.00  0.00    +0.000 A 
ATOM     30  C   UNL     1      -4.164  10.859  17.229  0.00  0.00    +0.000 A 
ATOM     31  C   UNL     1      -3.293  10.039  16.515  0.00  0.00    +0.000 A 
ATOM     32  C   UNL     1      -1.964   9.905  16.923  0.00  0.00    +0.000 A 
ENDBRANCH  26  27
ENDBRANCH  25  26
ENDBRANCH  24  25
ENDBRANCH   9  24
TORSDOF 6
ENDMDL
MODEL 5
REMARK VINA RESULT:      -7.0      8.225     10.523
REMARK  Name = 
REMARK  8 active torsions:
REMARK  status: ('A' for Active; 'I' for Inactive)
REMARK    1  A    between atoms: C_1  and  C_2
REMARK    2  A    between atoms: C_2  and  C_3
REMARK    3  A    between atoms: C_7  and  N_8
REMARK    4  A    between atoms: C_15  and  S_16
REMARK    5  A    between atoms: S_16  and  C_17
REMARK    6  A    between atoms: C_17  and  C_18
REMARK    7  A    between atoms: C_18  and  C_19
REMARK    8  A    between atoms: C_25  and  C_26
REMARK                            x       y       z     vdW  Elec       q    Type
REMARK                         _______ _______ _______ _____ _____    ______ ____
ROOT
ATOM      1  C   UNL     1      -7.494  12.697  18.094  0.00  0.00    +0.000 C 
ATOM      2  C   UNL     1      -6.355  12.322  19.052  0.00  0.00    +0.000 C 
ATOM      3  C   UNL     1      -6.804  11.134  19.913  0.00  0.00    +0.000 C 
ATOM      4  C   UNL     1      -5.071  12.042  18.252  0.00  0.00    +0.000 C 
ATOM      5  C   UNL     1      -3.809  12.037  19.098  0.00  0.00    +0.000 A 
ATOM      6  C   UNL     1      -3.825  12.688  20.357  0.00  0.00    +0.000 A 
ATOM      7  C   UNL     1      -2.691  12.601  21.194  0.00  0.00    +0.000 A 
ATOM      8  N   UNL     1      -1.563  11.973  20.759  0.00  0.00    +0.000 NA
ATOM      9  C   UNL     1      -1.510  11.458  19.498  0.00  0.00    +0.000 A 
ATOM     10  C   UNL     1      -2.619  11.435  18.643  0.00  0.00    +0.000 A 
ATOM     11  C   UNL     1      -5.099  13.371  20.803  0.00  0.00    +0.000 C 
ATOM     12  O   UNL     1      -6.148  13.483  19.847  0.00  0.00    +0.000 OA
ENDROOT
BRANCH   7  13
ATOM     13  N   UNL     1      -2.693  13.046  22.497  0.00  0.00    +0.000 N 
ATOM     14  C   UNL     1      -2.986  12.118  23.599  0.00  0.00    +0.000 C 
ATOM     15  C   UNL     1      -3.991  12.814  24.550  0.00  0.00    +0.000 C 
ATOM     16  O   UNL     1      -3.533  14.106  25.000  0.00  0.00    +0.000 OA
ATOM     17  C   UNL     1      -3.218  14.962  23.884  0.00  0.00    +0.000 C 
ATOM     18  C   UNL     1      -2.138  14.305  23.007  0.00  0.00    +0.000 C 
ENDBRANCH   7  13
BRANCH  10  19
ATOM     19  C   UNL     1      -2.577  10.852  17.265  0.00  0.00    +0.000 C 
ATOM     20  N   UNL     1      -2.285  11.679  16.216  0.00  0.00    +0.000 N 
ATOM     21  O   UNL     1      -2.757   9.657  17.062  0.00  0.00    +0.000 OA
ATOM     22  H   UNL     1      -2.425  12.677  16.285  0.00  0.00    +0.000 HD
ATOM     23  H   UNL     1      -2.390  11.268  15.292  0.00  0.00    +0.000 HD
ENDBRANCH  10  19
BRANCH   9  24
ATOM     24  S   UNL     1       0.125  11.003  18.891  0.00  0.00    +0.000 S 
BRANCH  24  25
ATOM     25  C   UNL     1       1.231  12.310  19.532  0.00  0.00    +0.000 C 
BRANCH  25  26
ATOM     26  C   UNL     1       0.578  13.660  19.178  0.00  0.00    +0.000 C 
BRANCH  26  27
ATOM     27  C   UNL     1       1.545  14.693  18.655  0.00  0.00    +0.000 A 
ATOM     28  C   UNL     1       2.791  14.310  18.137  0.00  0.00    +0.000 A 
ATOM     29  C   UNL     1       3.672  15.269  17.630  0.00  0.00    +0.000 A 
ATOM     30  C   UNL     1       3.318  16.617  17.634  0.00  0.00    +0.000 A 
ATOM     31  C   UNL     1       2.080  17.008  18.140  0.00  0.00    +0.000 A 
ATOM     32  C   UNL     1       1.198  16.051  18.649  0.00  0.00    +0.000 A 
ENDBRANCH  26  27
ENDBRANCH  25  26
ENDBRANCH  24  25
ENDBRANCH   9  24
TORSDOF 6
ENDMDL
MODEL 6
REMARK VINA RESULT:      -7.0      0.969      1.569
REMARK  Name = 
REMARK  8 active torsions:
REMARK  status: ('A' for Active; 'I' for Inactive)
REMARK    1  A    between atoms: C_1  and  C_2
REMARK    2  A    between atoms: C_2  and  C_3
REMARK    3  A    between atoms: C_7  and  N_8
REMARK    4  A    between atoms: C_15  and  S_16
REMARK    5  A    between atoms: S_16  and  C_17
REMARK    6  A    between atoms: C_17  and  C_18
REMARK    7  A    between atoms: C_18  and  C_19
REMARK    8  A    between atoms: C_25  and  C_26
REMARK                            x       y       z     vdW  Elec       q    Type
REMARK                         _______ _______ _______ _____ _____    ______ ____
ROOT
ATOM      1  C   UNL     1       2.343   1.687  17.864  0.00  0.00    +0.000 C 
ATOM      2  C   UNL     1       2.771   3.096  18.296  0.00  0.00    +0.000 C 
ATOM      3  C   UNL     1       2.881   3.133  19.826  0.00  0.00    +0.000 C 
ATOM      4  C   UNL     1       4.077   3.487  17.583  0.00  0.00    +0.000 C 
ATOM      5  C   UNL     1       4.385   4.973  17.636  0.00  0.00    +0.000 A 
ATOM      6  C   UNL     1       3.331   5.883  17.897  0.00  0.00    +0.000 A 
ATOM      7  C   UNL     1       3.623   7.256  18.050  0.00  0.00    +0.000 A 
ATOM      8  N   UNL     1       4.893   7.712  17.860  0.00  0.00    +0.000 NA
ATOM      9  C   UNL     1       5.880   6.850  17.484  0.00  0.00    +0.000 A 
ATOM     10  C   UNL     1       5.683   5.467  17.393  0.00  0.00    +0.000 A 
ATOM     11  C   UNL     1       1.936   5.335  18.105  0.00  0.00    +0.000 C 
ATOM     12  O   UNL     1       1.732   3.951  17.835  0.00  0.00    +0.000 OA
ENDROOT
BRANCH   7  13
ATOM     13  N   UNL     1       2.691   8.172  18.484  0.00  0.00    +0.000 N 
ATOM     14  C   UNL     1       2.327   8.246  19.906  0.00  0.00    +0.000 C 
ATOM     15  C   UNL     1       0.784   8.325  19.997  0.00  0.00    +0.000 C 
ATOM     16  O   UNL     1       0.231   9.401  19.210  0.00  0.00    +0.000 OA
ATOM     17  C   UNL     1       0.651   9.308  17.835  0.00  0.00    +0.000 C 
ATOM     18  C   UNL     1       2.187   9.341  17.753  0.00  0.00    +0.000 C 
ENDBRANCH   7  13
BRANCH  10  19
ATOM     19  C   UNL     1       6.766   4.510  17.003  0.00  0.00    +0.000 C 
ATOM     20  N   UNL     1       7.672   4.130  17.953  0.00  0.00    +0.000 N 
ATOM     21  O   UNL     1       6.835   4.036  15.876  0.00  0.00    +0.000 OA
ATOM     22  H   UNL     1       7.838   4.698  18.772  0.00  0.00    +0.000 HD
ATOM     23  H   UNL     1       8.458   3.581  17.613  0.00  0.00    +0.000 HD
ENDBRANCH  10  19
BRANCH   9  24
ATOM     24  S   UNL     1       7.408   7.599  16.889  0.00  0.00    +0.000 S 
BRANCH  24  25
ATOM     25  C   UNL     1       7.988   8.627  18.284  0.00  0.00    +0.000 C 
BRANCH  25  26
ATOM     26  C   UNL     1       8.358  10.003  17.700  0.00  0.00    +0.000 C 
BRANCH  26  27
ATOM     27  C   UNL     1       9.394  10.753  18.502  0.00  0.00    +0.000 A 
ATOM     28  C   UNL     1       9.330  10.786  19.902  0.00  0.00    +0.000 A 
ATOM     29  C   UNL     1      10.307  11.461  20.639  0.00  0.00    +0.000 A 
ATOM     30  C   UNL     1      11.355  12.107  19.987  0.00  0.00    +0.000 A 
ATOM     31  C   UNL     1      11.432  12.075  18.596  0.00  0.00    +0.000 A 
ATOM     32  C   UNL     1      10.456  11.402  17.857  0.00  0.00    +0.000 A 
ENDBRANCH  26  27
ENDBRANCH  25  26
ENDBRANCH  24  25
ENDBRANCH   9  24
TORSDOF 6
ENDMDL
MODEL 7
REMARK VINA RESULT:      -6.9      1.171      1.510
REMARK  Name = 
REMARK  8 active torsions:
REMARK  status: ('A' for Active; 'I' for Inactive)
REMARK    1  A    between atoms: C_1  and  C_2
REMARK    2  A    between atoms: C_2  and  C_3
REMARK    3  A    between atoms: C_7  and  N_8
REMARK    4  A    between atoms: C_15  and  S_16
REMARK    5  A    between atoms: S_16  and  C_17
REMARK    6  A    between atoms: C_17  and  C_18
REMARK    7  A    between atoms: C_18  and  C_19
REMARK    8  A    between atoms: C_25  and  C_26
REMARK                            x       y       z     vdW  Elec       q    Type
REMARK                         _______ _______ _______ _____ _____    ______ ____
ROOT
ATOM      1  C   UNL     1       1.724   1.841  18.976  0.00  0.00    +0.000 C 
ATOM      2  C   UNL     1       2.247   3.272  19.159  0.00  0.00    +0.000 C 
ATOM      3  C   UNL     1       2.540   3.504  20.648  0.00  0.00    +0.000 C 
ATOM      4  C   UNL     1       3.472   3.500  18.256  0.00  0.00    +0.000 C 
ATOM      5  C   UNL     1       3.834   4.963  18.070  0.00  0.00    +0.000 A 
ATOM      6  C   UNL     1       2.850   5.950  18.323  0.00  0.00    +0.000 A 
ATOM      7  C   UNL     1       3.205   7.315  18.252  0.00  0.00    +0.000 A 
ATOM      8  N   UNL     1       4.458   7.678  17.858  0.00  0.00    +0.000 NA
ATOM      9  C   UNL     1       5.363   6.726  17.494  0.00  0.00    +0.000 A 
ATOM     10  C   UNL     1       5.109   5.355  17.616  0.00  0.00    +0.000 A 
ATOM     11  C   UNL     1       1.472   5.504  18.760  0.00  0.00    +0.000 C 
ATOM     12  O   UNL     1       1.191   4.109  18.708  0.00  0.00    +0.000 OA
ENDROOT
BRANCH   7  13
ATOM     13  N   UNL     1       2.363   8.326  18.659  0.00  0.00    +0.000 N 
ATOM     14  C   UNL     1       2.096   8.540  20.088  0.00  0.00    +0.000 C 
ATOM     15  C   UNL     1       0.569   8.733  20.262  0.00  0.00    +0.000 C 
ATOM     16  O   UNL     1       0.037   9.776  19.420  0.00  0.00    +0.000 OA
ATOM     17  C   UNL     1       0.362   9.543  18.036  0.00  0.00    +0.000 C 
ATOM     18  C   UNL     1       1.889   9.463  17.862  0.00  0.00    +0.000 C 
ENDBRANCH   7  13
BRANCH  10  19
ATOM     19  C   UNL     1       6.105   4.302  17.240  0.00  0.00    +0.000 C 
ATOM     20  N   UNL     1       7.086   3.984  18.138  0.00  0.00    +0.000 N 
ATOM     21  O   UNL     1       6.040   3.701  16.175  0.00  0.00    +0.000 OA
ATOM     22  H   UNL     1       7.357   4.631  18.864  0.00  0.00    +0.000 HD
ATOM     23  H   UNL     1       7.809   3.358  17.792  0.00  0.00    +0.000 HD
ENDBRANCH  10  19
BRANCH   9  24
ATOM     24  S   UNL     1       6.833   7.313  16.632  0.00  0.00    +0.000 S 
BRANCH  24  25
ATOM     25  C   UNL     1       7.867   8.058  17.944  0.00  0.00    +0.000 C 
BRANCH  25  26
ATOM     26  C   UNL     1       7.927   9.570  17.659  0.00  0.00    +0.000 C 
BRANCH  26  27
ATOM     27  C   UNL     1       9.020  10.293  18.409  0.00  0.00    +0.000 A 
ATOM     28  C   UNL     1      10.046  10.953  17.718  0.00  0.00    +0.000 A 
ATOM     29  C   UNL     1      11.040  11.643  18.417  0.00  0.00    +0.000 A 
ATOM     30  C   UNL     1      11.018  11.681  19.810  0.00  0.00    +0.000 A 
ATOM     31  C   UNL     1      10.000  11.034  20.506  0.00  0.00    +0.000 A 
ATOM     32  C   UNL     1       9.006  10.343  19.810  0.00  0.00    +0.000 A 
ENDBRANCH  26  27
ENDBRANCH  25  26
ENDBRANCH  24  25
ENDBRANCH   9  24
TORSDOF 6
ENDMDL
MODEL 8
REMARK VINA RESULT:      -6.9      0.933      1.170
REMARK  Name = 
REMARK  8 active torsions:
REMARK  status: ('A' for Active; 'I' for Inactive)
REMARK    1  A    between atoms: C_1  and  C_2
REMARK    2  A    between atoms: C_2  and  C_3
REMARK    3  A    between atoms: C_7  and  N_8
REMARK    4  A    between atoms: C_15  and  S_16
REMARK    5  A    between atoms: S_16  and  C_17
REMARK    6  A    between atoms: C_17  and  C_18
REMARK    7  A    between atoms: C_18  and  C_19
REMARK    8  A    between atoms: C_25  and  C_26
REMARK                            x       y       z     vdW  Elec       q    Type
REMARK                         _______ _______ _______ _____ _____    ______ ____
ROOT
ATOM      1  C   UNL     1       3.010   1.215  18.425  0.00  0.00    +0.000 C 
ATOM      2  C   UNL     1       3.243   2.697  18.743  0.00  0.00    +0.000 C 
ATOM      3  C   UNL     1       3.393   2.860  20.262  0.00  0.00    +0.000 C 
ATOM      4  C   UNL     1       4.458   3.216  17.954  0.00  0.00    +0.000 C 
ATOM      5  C   UNL     1       4.551   4.731  17.895  0.00  0.00    +0.000 A 
ATOM      6  C   UNL     1       3.385   5.499  18.136  0.00  0.00    +0.000 A 
ATOM      7  C   UNL     1       3.482   6.907  18.184  0.00  0.00    +0.000 A 
ATOM      8  N   UNL     1       4.667   7.522  17.913  0.00  0.00    +0.000 NA
ATOM      9  C   UNL     1       5.756   6.783  17.557  0.00  0.00    +0.000 A 
ATOM     10  C   UNL     1       5.756   5.383  17.567  0.00  0.00    +0.000 A 
ATOM     11  C   UNL     1       2.091   4.776  18.436  0.00  0.00    +0.000 C 
ATOM     12  O   UNL     1       2.079   3.362  18.268  0.00  0.00    +0.000 OA
ENDROOT
BRANCH   7  13
ATOM     13  N   UNL     1       2.442   7.712  18.592  0.00  0.00    +0.000 N 
ATOM     14  C   UNL     1       1.747   8.575  17.627  0.00  0.00    +0.000 C 
ATOM     15  C   UNL     1       1.592   9.976  18.268  0.00  0.00    +0.000 C 
ATOM     16  O   UNL     1       0.950   9.932  19.559  0.00  0.00    +0.000 OA
ATOM     17  C   UNL     1       1.643   9.040  20.455  0.00  0.00    +0.000 C 
ATOM     18  C   UNL     1       1.693   7.626  19.851  0.00  0.00    +0.000 C 
ENDBRANCH   7  13
BRANCH  10  19
ATOM     19  C   UNL     1       6.953   4.563  17.199  0.00  0.00    +0.000 C 
ATOM     20  N   UNL     1       7.848   4.240  18.181  0.00  0.00    +0.000 N 
ATOM     21  O   UNL     1       7.128   4.148  16.060  0.00  0.00    +0.000 OA
ATOM     22  H   UNL     1       7.912   4.787  19.028  0.00  0.00    +0.000 HD
ATOM     23  H   UNL     1       8.704   3.792  17.863  0.00  0.00    +0.000 HD
ENDBRANCH  10  19
BRANCH   9  24
ATOM     24  S   UNL     1       7.142   7.695  16.851  0.00  0.00    +0.000 S 
BRANCH  24  25
ATOM     25  C   UNL     1       7.782   8.700  18.238  0.00  0.00    +0.000 C 
BRANCH  25  26
ATOM     26  C   UNL     1       8.801   9.688  17.639  0.00  0.00    +0.000 C 
BRANCH  26  27
ATOM     27  C   UNL     1       9.163  10.829  18.558  0.00  0.00    +0.000 A 
ATOM     28  C   UNL     1       9.691  10.582  19.833  0.00  0.00    +0.000 A 
ATOM     29  C   UNL     1      10.049  11.643  20.669  0.00  0.00    +0.000 A 
ATOM     30  C   UNL     1       9.885  12.959  20.240  0.00  0.00    +0.000 A 
ATOM     31  C   UNL     1       9.367  13.216  18.972  0.00  0.00    +0.000 A 
ATOM     32  C   UNL     1       9.007  12.157  18.135  0.00  0.00    +0.000 A 
ENDBRANCH  26  27
ENDBRANCH  25  26
ENDBRANCH  24  25
ENDBRANCH   9  24
TORSDOF 6
ENDMDL
MODEL 9
REMARK VINA RESULT:      -6.9      5.301      9.835
REMARK  Name = 
REMARK  8 active torsions:
REMARK  status: ('A' for Active; 'I' for Inactive)
REMARK    1  A    between atoms: C_1  and  C_2
REMARK    2  A    between atoms: C_2  and  C_3
REMARK    3  A    between atoms: C_7  and  N_8
REMARK    4  A    between atoms: C_15  and  S_16
REMARK    5  A    between atoms: S_16  and  C_17
REMARK    6  A    between atoms: C_17  and  C_18
REMARK    7  A    between atoms: C_18  and  C_19
REMARK    8  A    between atoms: C_25  and  C_26
REMARK                            x       y       z     vdW  Elec       q    Type
REMARK                         _______ _______ _______ _____ _____    ______ ____
ROOT
ATOM      1  C   UNL     1      -2.743  14.882  21.533  0.00  0.00    +0.000 C 
ATOM      2  C   UNL     1      -1.318  14.429  21.189  0.00  0.00    +0.000 C 
ATOM      3  C   UNL     1      -0.496  14.359  22.484  0.00  0.00    +0.000 C 
ATOM      4  C   UNL     1      -1.364  13.094  20.426  0.00  0.00    +0.000 C 
ATOM      5  C   UNL     1      -0.068  12.749  19.714  0.00  0.00    +0.000 A 
ATOM      6  C   UNL     1       0.855  13.785  19.429  0.00  0.00    +0.000 A 
ATOM      7  C   UNL     1       2.106  13.461  18.860  0.00  0.00    +0.000 A 
ATOM      8  N   UNL     1       2.387  12.175  18.508  0.00  0.00    +0.000 NA
ATOM      9  C   UNL     1       1.446  11.201  18.668  0.00  0.00    +0.000 A 
ATOM     10  C   UNL     1       0.217  11.433  19.298  0.00  0.00    +0.000 A 
ATOM     11  C   UNL     1       0.506  15.199  19.839  0.00  0.00    +0.000 C 
ATOM     12  O   UNL     1      -0.816  15.432  20.316  0.00  0.00    +0.000 OA
ENDROOT
BRANCH   7  13
ATOM     13  N   UNL     1       3.123  14.379  18.724  0.00  0.00    +0.000 N 
ATOM     14  C   UNL     1       4.182  14.473  19.739  0.00  0.00    +0.000 C 
ATOM     15  C   UNL     1       4.396  15.972  20.064  0.00  0.00    +0.000 C 
ATOM     16  O   UNL     1       4.661  16.767  18.889  0.00  0.00    +0.000 OA
ATOM     17  C   UNL     1       3.617  16.607  17.908  0.00  0.00    +0.000 C 
ATOM     18  C   UNL     1       3.490  15.126  17.514  0.00  0.00    +0.000 C 
ENDBRANCH   7  13
BRANCH  10  19
ATOM     19  C   UNL     1      -0.813  10.365  19.498  0.00  0.00    +0.000 C 
ATOM     20  N   UNL     1      -1.746  10.168  18.519  0.00  0.00    +0.000 N 
ATOM     21  O   UNL     1      -0.815   9.647  20.490  0.00  0.00    +0.000 OA
ATOM     22  H   UNL     1      -1.968  10.898  17.856  0.00  0.00    +0.000 HD
ATOM     23  H   UNL     1      -2.496   9.522  18.752  0.00  0.00    +0.000 HD
ENDBRANCH  10  19
BRANCH   9  24
ATOM     24  S   UNL     1       1.765   9.639  17.827  0.00  0.00    +0.000 S 
BRANCH  24  25
ATOM     25  C   UNL     1       2.048   8.441  19.179  0.00  0.00    +0.000 C 
BRANCH  25  26
ATOM     26  C   UNL     1       2.782   7.237  18.561  0.00  0.00    +0.000 C 
BRANCH  26  27
ATOM     27  C   UNL     1       2.191   5.899  18.933  0.00  0.00    +0.000 A 
ATOM     28  C   UNL     1       1.951   4.925  17.953  0.00  0.00    +0.000 A 
ATOM     29  C   UNL     1       1.427   3.679  18.307  0.00  0.00    +0.000 A 
ATOM     30  C   UNL     1       1.140   3.393  19.640  0.00  0.00    +0.000 A 
ATOM     31  C   UNL     1       1.381   4.351  20.622  0.00  0.00    +0.000 A 
ATOM     32  C   UNL     1       1.903   5.598  20.271  0.00  0.00    +0.000 A 
ENDBRANCH  26  27
ENDBRANCH  25  26
ENDBRANCH  24  25
ENDBRANCH   9  24
TORSDOF 6
ENDMDL
