MODEL 1
REMARK VINA RESULT:      -9.6      0.000      0.000
REMARK  Name = 
REMARK  5 active torsions:
REMARK  status: ('A' for Active; 'I' for Inactive)
REMARK    1  A    between atoms: C_1  and  C_2
REMARK    2  A    between atoms: C_2  and  N_3
REMARK    3  A    between atoms: C_2  and  C_7
REMARK    4  A    between atoms: C_13  and  C_14
REMARK    5  A    between atoms: C_13  and  C_20
REMARK                            x       y       z     vdW  Elec       q    Type
REMARK                         _______ _______ _______ _____ _____    ______ ____
ROOT
ATOM      1  C   UNL     1       6.672   4.925  16.987  0.00  0.00    +0.000 C 
ATOM      2  O   UNL     1       7.866   4.857  17.308  0.00  0.00    +0.000 OA
ATOM      3  N   UNL     1       5.663   5.103  17.919  0.00  0.00    +0.000 N 
ATOM      4  C   UNL     1       5.872   5.251  19.279  0.00  0.00    +0.000 C 
ATOM      5  O   UNL     1       6.885   5.107  19.938  0.00  0.00    +0.000 OA
ATOM      6  N   UNL     1       4.684   5.653  19.862  0.00  0.00    +0.000 N 
ATOM      7  C   UNL     1       3.557   5.610  18.956  0.00  0.00    +0.000 C 
ATOM      8  C   UNL     1       4.352   5.387  17.665  0.00  0.00    +0.000 C 
ATOM      9  O   UNL     1       3.803   5.414  16.571  0.00  0.00    +0.000 OA
ATOM     10  H   UNL     1       4.621   5.865  20.847  0.00  0.00    +0.000 HD
ENDROOT
BRANCH   7  11
ATOM     11  C   UNL     1       2.710   4.347  19.192  0.00  0.00    +0.000 A 
ATOM     12  C   UNL     1       1.815   3.885  18.222  0.00  0.00    +0.000 A 
ATOM     13  C   UNL     1       0.952   2.815  18.503  0.00  0.00    +0.000 A 
ATOM     14  C   UNL     1       0.989   2.194  19.756  0.00  0.00    +0.000 A 
ATOM     15  C   UNL     1       1.896   2.605  20.718  0.00  0.00    +0.000 A 
ATOM     16  C   UNL     1       2.763   3.652  20.427  0.00  0.00    +0.000 A 
ENDBRANCH   7  11
BRANCH   7  17
ATOM     17  C   UNL     1       2.802   6.943  18.891  0.00  0.00    +0.000 A 
ATOM     18  C   UNL     1       2.023   7.403  19.977  0.00  0.00    +0.000 A 
ATOM     19  C   UNL     1       1.345   8.626  19.918  0.00  0.00    +0.000 A 
ATOM     20  C   UNL     1       1.448   9.430  18.787  0.00  0.00    +0.000 A 
ATOM     21  C   UNL     1       2.249   9.024  17.725  0.00  0.00    +0.000 A 
ATOM     22  C   UNL     1       2.924   7.801  17.783  0.00  0.00    +0.000 A 
ENDBRANCH   7  17
BRANCH   1  24
ATOM     23  C   UNL     1       6.041   3.534  14.775  0.00  0.00    +0.000 C 
ATOM     24  C   UNL     1       6.374   4.876  15.451  0.00  0.00    +0.000 C 
BRANCH  24  25
ATOM     25  N   UNL     1       7.397   5.525  14.663  0.00  0.00    +0.000 N 
ATOM     26  C   UNL     1       7.711   5.243  13.385  0.00  0.00    +0.000 C 
ATOM     27  N   UNL     1       7.139   4.498  12.524  0.00  0.00    +0.000 NA
ATOM     28  N   UNL     1       8.827   5.927  13.079  0.00  0.00    +0.000 N 
ATOM     29  H   UNL     1       8.265   5.588  15.188  0.00  0.00    +0.000 HD
ATOM     30  H   UNL     1       6.310   4.027  12.897  0.00  0.00    +0.000 HD
ATOM     31  H   UNL     1       8.813   6.870  13.448  0.00  0.00    +0.000 HD
ATOM     32  H   UNL     1       8.977   5.924  12.077  0.00  0.00    +0.000 HD
ENDBRANCH  24  25
ENDBRANCH   1  24
TORSDOF 4
ENDMDL
MODEL 2
REMARK VINA RESULT:      -8.8      6.649      9.318
REMARK  Name = 
REMARK  5 active torsions:
REMARK  status: ('A' for Active; 'I' for Inactive)
REMARK    1  A    between atoms: C_1  and  C_2
REMARK    2  A    between atoms: C_2  and  N_3
REMARK    3  A    between atoms: C_2  and  C_7
REMARK    4  A    between atoms: C_13  and  C_14
REMARK    5  A    between atoms: C_13  and  C_20
REMARK                            x       y       z     vdW  Elec       q    Type
REMARK                         _______ _______ _______ _____ _____    ______ ____
ROOT
ATOM      1  C   UNL     1       1.116  13.788  21.184  0.00  0.00    +0.000 C 
ATOM      2  O   UNL     1       1.018  14.224  22.339  0.00  0.00    +0.000 OA
ATOM      3  N   UNL     1       0.584  12.567  20.806  0.00  0.00    +0.000 N 
ATOM      4  C   UNL     1      -0.127  11.729  21.648  0.00  0.00    +0.000 C 
ATOM      5  O   UNL     1      -0.295  11.785  22.852  0.00  0.00    +0.000 OA
ATOM      6  N   UNL     1      -0.712  10.736  20.882  0.00  0.00    +0.000 N 
ATOM      7  C   UNL     1      -0.267  10.735  19.506  0.00  0.00    +0.000 C 
ATOM      8  C   UNL     1       0.461  12.083  19.535  0.00  0.00    +0.000 C 
ATOM      9  O   UNL     1       0.909  12.583  18.511  0.00  0.00    +0.000 OA
ATOM     10  H   UNL     1      -1.317  10.038  21.291  0.00  0.00    +0.000 HD
ENDROOT
BRANCH   7  11
ATOM     11  C   UNL     1       0.797   9.648  19.272  0.00  0.00    +0.000 A 
ATOM     12  C   UNL     1       1.440   9.520  18.038  0.00  0.00    +0.000 A 
ATOM     13  C   UNL     1       2.306   8.443  17.796  0.00  0.00    +0.000 A 
ATOM     14  C   UNL     1       2.541   7.493  18.795  0.00  0.00    +0.000 A 
ATOM     15  C   UNL     1       1.950   7.622  20.040  0.00  0.00    +0.000 A 
ATOM     16  C   UNL     1       1.109   8.702  20.282  0.00  0.00    +0.000 A 
ENDBRANCH   7  11
BRANCH   7  17
ATOM     17  C   UNL     1      -1.432  10.782  18.511  0.00  0.00    +0.000 A 
ATOM     18  C   UNL     1      -1.470   9.940  17.378  0.00  0.00    +0.000 A 
ATOM     19  C   UNL     1      -2.542   9.978  16.479  0.00  0.00    +0.000 A 
ATOM     20  C   UNL     1      -3.612  10.838  16.701  0.00  0.00    +0.000 A 
ATOM     21  C   UNL     1      -3.624  11.642  17.836  0.00  0.00    +0.000 A 
ATOM     22  C   UNL     1      -2.552  11.605  18.733  0.00  0.00    +0.000 A 
ENDBRANCH   7  17
BRANCH   1  24
ATOM     23  C   UNL     1       3.304  15.083  20.313  0.00  0.00    +0.000 C 
ATOM     24  C   UNL     1       1.813  14.737  20.153  0.00  0.00    +0.000 C 
BRANCH  24  25
ATOM     25  N   UNL     1       1.091  15.973  19.955  0.00  0.00    +0.000 N 
ATOM     26  C   UNL     1       0.014  16.144  19.167  0.00  0.00    +0.000 C 
ATOM     27  N   UNL     1      -0.716  15.304  18.546  0.00  0.00    +0.000 NA
ATOM     28  N   UNL     1      -0.244  17.462  19.109  0.00  0.00    +0.000 N 
ATOM     29  H   UNL     1       1.736  16.736  19.768  0.00  0.00    +0.000 HD
ATOM     30  H   UNL     1      -0.396  14.338  18.666  0.00  0.00    +0.000 HD
ATOM     31  H   UNL     1      -0.142  17.913  20.010  0.00  0.00    +0.000 HD
ATOM     32  H   UNL     1      -1.164  17.623  18.715  0.00  0.00    +0.000 HD
ENDBRANCH  24  25
ENDBRANCH   1  24
TORSDOF 4
ENDMDL
MODEL 3
REMARK VINA RESULT:      -8.6      6.667      9.485
REMARK  Name = 
REMARK  5 active torsions:
REMARK  status: ('A' for Active; 'I' for Inactive)
REMARK    1  A    between atoms: C_1  and  C_2
REMARK    2  A    between atoms: C_2  and  N_3
REMARK    3  A    between atoms: C_2  and  C_7
REMARK    4  A    between atoms: C_13  and  C_14
REMARK    5  A    between atoms: C_13  and  C_20
REMARK                            x       y       z     vdW  Elec       q    Type
REMARK                         _______ _______ _______ _____ _____    ______ ____
ROOT
ATOM      1  C   UNL     1       0.985  13.791  21.154  0.00  0.00    +0.000 C 
ATOM      2  O   UNL     1       0.895  14.226  22.311  0.00  0.00    +0.000 OA
ATOM      3  N   UNL     1       0.486  12.553  20.788  0.00  0.00    +0.000 N 
ATOM      4  C   UNL     1      -0.180  11.692  21.644  0.00  0.00    +0.000 C 
ATOM      5  O   UNL     1      -0.324  11.744  22.851  0.00  0.00    +0.000 OA
ATOM      6  N   UNL     1      -0.746  10.680  20.891  0.00  0.00    +0.000 N 
ATOM      7  C   UNL     1      -0.330  10.692  19.506  0.00  0.00    +0.000 C 
ATOM      8  C   UNL     1       0.353  12.064  19.519  0.00  0.00    +0.000 C 
ATOM      9  O   UNL     1       0.764  12.577  18.486  0.00  0.00    +0.000 OA
ATOM     10  H   UNL     1      -1.319   9.963  21.313  0.00  0.00    +0.000 HD
ENDROOT
BRANCH   7  11
ATOM     11  C   UNL     1       0.765   9.641  19.251  0.00  0.00    +0.000 A 
ATOM     12  C   UNL     1       1.410   9.555  18.014  0.00  0.00    +0.000 A 
ATOM     13  C   UNL     1       2.306   8.508  17.751  0.00  0.00    +0.000 A 
ATOM     14  C   UNL     1       2.569   7.546  18.732  0.00  0.00    +0.000 A 
ATOM     15  C   UNL     1       1.975   7.634  19.979  0.00  0.00    +0.000 A 
ATOM     16  C   UNL     1       1.104   8.685  20.242  0.00  0.00    +0.000 A 
ENDBRANCH   7  11
BRANCH   7  17
ATOM     17  C   UNL     1      -1.516  10.699  18.535  0.00  0.00    +0.000 A 
ATOM     18  C   UNL     1      -2.612  11.573  18.716  0.00  0.00    +0.000 A 
ATOM     19  C   UNL     1      -3.688  11.585  17.820  0.00  0.00    +0.000 A 
ATOM     20  C   UNL     1      -3.685  10.746  16.711  0.00  0.00    +0.000 A 
ATOM     21  C   UNL     1      -2.595   9.912  16.483  0.00  0.00    +0.000 A 
ATOM     22  C   UNL     1      -1.522   9.898  17.379  0.00  0.00    +0.000 A 
ENDBRANCH   7  17
BRANCH   1  24
ATOM     23  C   UNL     1       2.706  15.767  20.554  0.00  0.00    +0.000 C 
ATOM     24  C   UNL     1       1.629  14.762  20.108  0.00  0.00    +0.000 C 
BRANCH  24  25
ATOM     25  N   UNL     1       0.643  15.484  19.337  0.00  0.00    +0.000 N 
ATOM     26  C   UNL     1      -0.352  16.243  19.834  0.00  0.00    +0.000 C 
ATOM     27  N   UNL     1      -0.593  16.640  21.020  0.00  0.00    +0.000 NA
ATOM     28  N   UNL     1      -1.154  16.585  18.812  0.00  0.00    +0.000 N 
ATOM     29  H   UNL     1       0.246  14.887  18.617  0.00  0.00    +0.000 HD
ATOM     30  H   UNL     1       0.090  16.294  21.701  0.00  0.00    +0.000 HD
ATOM     31  H   UNL     1      -0.632  16.835  17.981  0.00  0.00    +0.000 HD
ATOM     32  H   UNL     1      -1.783  17.328  19.092  0.00  0.00    +0.000 HD
ENDBRANCH  24  25
ENDBRANCH   1  24
TORSDOF 4
ENDMDL
MODEL 4
REMARK VINA RESULT:      -8.6      6.642      9.237
REMARK  Name = 
REMARK  5 active torsions:
REMARK  status: ('A' for Active; 'I' for Inactive)
REMARK    1  A    between atoms: C_1  and  C_2
REMARK    2  A    between atoms: C_2  and  N_3
REMARK    3  A    between atoms: C_2  and  C_7
REMARK    4  A    between atoms: C_13  and  C_14
REMARK    5  A    between atoms: C_13  and  C_20
REMARK                            x       y       z     vdW  Elec       q    Type
REMARK                         _______ _______ _______ _____ _____    ______ ____
ROOT
ATOM      1  C   UNL     1       1.207  13.663  21.065  0.00  0.00    +0.000 C 
ATOM      2  O   UNL     1       1.164  14.127  22.212  0.00  0.00    +0.000 OA
ATOM      3  N   UNL     1       0.602  12.464  20.729  0.00  0.00    +0.000 N 
ATOM      4  C   UNL     1      -0.126  11.680  21.608  0.00  0.00    +0.000 C 
ATOM      5  O   UNL     1      -0.255  11.769  22.815  0.00  0.00    +0.000 OA
ATOM      6  N   UNL     1      -0.782  10.704  20.881  0.00  0.00    +0.000 N 
ATOM      7  C   UNL     1      -0.379  10.652  19.493  0.00  0.00    +0.000 C 
ATOM      8  C   UNL     1       0.418  11.962  19.472  0.00  0.00    +0.000 C 
ATOM      9  O   UNL     1       0.860  12.417  18.426  0.00  0.00    +0.000 OA
ATOM     10  H   UNL     1      -1.409  10.046  21.322  0.00  0.00    +0.000 HD
ENDROOT
BRANCH   7  11
ATOM     11  C   UNL     1       0.622   9.508  19.253  0.00  0.00    +0.000 A 
ATOM     12  C   UNL     1       0.961   8.618  20.276  0.00  0.00    +0.000 A 
ATOM     13  C   UNL     1       1.974   7.666  20.083  0.00  0.00    +0.000 A 
ATOM     14  C   UNL     1       2.644   7.593  18.858  0.00  0.00    +0.000 A 
ATOM     15  C   UNL     1       2.296   8.434  17.815  0.00  0.00    +0.000 A 
ATOM     16  C   UNL     1       1.278   9.362  18.005  0.00  0.00    +0.000 A 
ENDBRANCH   7  11
BRANCH   7  17
ATOM     17  C   UNL     1      -1.569  10.739  18.531  0.00  0.00    +0.000 A 
ATOM     18  C   UNL     1      -2.629  11.648  18.750  0.00  0.00    +0.000 A 
ATOM     19  C   UNL     1      -3.708  11.732  17.862  0.00  0.00    +0.000 A 
ATOM     20  C   UNL     1      -3.743  10.933  16.724  0.00  0.00    +0.000 A 
ATOM     21  C   UNL     1      -2.688  10.067  16.460  0.00  0.00    +0.000 A 
ATOM     22  C   UNL     1      -1.611   9.980  17.347  0.00  0.00    +0.000 A 
ENDBRANCH   7  17
BRANCH   1  24
ATOM     23  C   UNL     1       3.432  14.822  20.101  0.00  0.00    +0.000 C 
ATOM     24  C   UNL     1       1.920  14.554  19.994  0.00  0.00    +0.000 C 
BRANCH  24  25
ATOM     25  N   UNL     1       1.259  15.824  19.794  0.00  0.00    +0.000 N 
ATOM     26  C   UNL     1       0.138  16.030  19.079  0.00  0.00    +0.000 C 
ATOM     27  N   UNL     1      -0.684  15.212  18.551  0.00  0.00    +0.000 NA
ATOM     28  N   UNL     1      -0.046  17.357  18.981  0.00  0.00    +0.000 N 
ATOM     29  H   UNL     1       1.932  16.537  19.527  0.00  0.00    +0.000 HD
ATOM     30  H   UNL     1      -0.414  14.233  18.690  0.00  0.00    +0.000 HD
ATOM     31  H   UNL     1       0.149  17.837  19.851  0.00  0.00    +0.000 HD
ATOM     32  H   UNL     1      -0.981  17.559  18.648  0.00  0.00    +0.000 HD
ENDBRANCH  24  25
ENDBRANCH   1  24
TORSDOF 4
ENDMDL
MODEL 5
REMARK VINA RESULT:      -8.2      7.745     10.889
REMARK  Name = 
REMARK  5 active torsions:
REMARK  status: ('A' for Active; 'I' for Inactive)
REMARK    1  A    between atoms: C_1  and  C_2
REMARK    2  A    between atoms: C_2  and  N_3
REMARK    3  A    between atoms: C_2  and  C_7
REMARK    4  A    between atoms: C_13  and  C_14
REMARK    5  A    between atoms: C_13  and  C_20
REMARK                            x       y       z     vdW  Elec       q    Type
REMARK                         _______ _______ _______ _____ _____    ______ ____
ROOT
ATOM      1  C   UNL     1      -4.199  11.430  18.243  0.00  0.00    +0.000 C 
ATOM      2  O   UNL     1      -4.645  10.915  17.209  0.00  0.00    +0.000 OA
ATOM      3  N   UNL     1      -2.853  11.400  18.564  0.00  0.00    +0.000 N 
ATOM      4  C   UNL     1      -1.870  10.833  17.770  0.00  0.00    +0.000 C 
ATOM      5  O   UNL     1      -1.970  10.142  16.774  0.00  0.00    +0.000 OA
ATOM      6  N   UNL     1      -0.636  11.204  18.272  0.00  0.00    +0.000 N 
ATOM      7  C   UNL     1      -0.714  11.881  19.547  0.00  0.00    +0.000 C 
ATOM      8  C   UNL     1      -2.232  12.096  19.562  0.00  0.00    +0.000 C 
ATOM      9  O   UNL     1      -2.767  12.773  20.431  0.00  0.00    +0.000 OA
ATOM     10  H   UNL     1       0.224  10.935  17.815  0.00  0.00    +0.000 HD
ENDROOT
BRANCH   7  11
ATOM     11  C   UNL     1      -0.379  10.920  20.702  0.00  0.00    +0.000 A 
ATOM     12  C   UNL     1       0.295   9.718  20.470  0.00  0.00    +0.000 A 
ATOM     13  C   UNL     1       0.472   8.791  21.507  0.00  0.00    +0.000 A 
ATOM     14  C   UNL     1      -0.016   9.069  22.788  0.00  0.00    +0.000 A 
ATOM     15  C   UNL     1      -0.648  10.271  23.054  0.00  0.00    +0.000 A 
ATOM     16  C   UNL     1      -0.803  11.195  22.027  0.00  0.00    +0.000 A 
ENDBRANCH   7  11
BRANCH   7  17
ATOM     17  C   UNL     1       0.013  13.231  19.542  0.00  0.00    +0.000 A 
ATOM     18  C   UNL     1       1.214  13.425  20.262  0.00  0.00    +0.000 A 
ATOM     19  C   UNL     1       1.881  14.655  20.244  0.00  0.00    +0.000 A 
ATOM     20  C   UNL     1       1.381  15.712  19.490  0.00  0.00    +0.000 A 
ATOM     21  C   UNL     1       0.228  15.532  18.734  0.00  0.00    +0.000 A 
ATOM     22  C   UNL     1      -0.440  14.304  18.752  0.00  0.00    +0.000 A 
ENDBRANCH   7  17
BRANCH   1  24
ATOM     23  C   UNL     1      -6.465  11.437  19.690  0.00  0.00    +0.000 C 
ATOM     24  C   UNL     1      -5.241  12.186  19.133  0.00  0.00    +0.000 C 
BRANCH  24  25
ATOM     25  N   UNL     1      -5.713  13.409  18.523  0.00  0.00    +0.000 N 
ATOM     26  C   UNL     1      -6.486  13.499  17.424  0.00  0.00    +0.000 C 
ATOM     27  N   UNL     1      -7.106  12.608  16.758  0.00  0.00    +0.000 NA
ATOM     28  N   UNL     1      -6.547  14.794  17.073  0.00  0.00    +0.000 N 
ATOM     29  H   UNL     1      -4.950  14.072  18.419  0.00  0.00    +0.000 HD
ATOM     30  H   UNL     1      -6.960  11.663  17.127  0.00  0.00    +0.000 HD
ATOM     31  H   UNL     1      -6.653  15.405  17.875  0.00  0.00    +0.000 HD
ATOM     32  H   UNL     1      -7.286  14.941  16.396  0.00  0.00    +0.000 HD
ENDBRANCH  24  25
ENDBRANCH   1  24
TORSDOF 4
ENDMDL
MODEL 6
REMARK VINA RESULT:      -8.1      6.259      8.742
REMARK  Name = 
REMARK  5 active torsions:
REMARK  status: ('A' for Active; 'I' for Inactive)
REMARK    1  A    between atoms: C_1  and  C_2
REMARK    2  A    between atoms: C_2  and  N_3
REMARK    3  A    between atoms: C_2  and  C_7
REMARK    4  A    between atoms: C_13  and  C_14
REMARK    5  A    between atoms: C_13  and  C_20
REMARK                            x       y       z     vdW  Elec       q    Type
REMARK                         _______ _______ _______ _____ _____    ______ ____
ROOT
ATOM      1  C   UNL     1       0.971  13.842  21.099  0.00  0.00    +0.000 C 
ATOM      2  O   UNL     1       0.903  14.281  22.255  0.00  0.00    +0.000 OA
ATOM      3  N   UNL     1       0.481  12.596  20.750  0.00  0.00    +0.000 N 
ATOM      4  C   UNL     1      -0.153  11.731  21.626  0.00  0.00    +0.000 C 
ATOM      5  O   UNL     1      -0.270  11.786  22.836  0.00  0.00    +0.000 OA
ATOM      6  N   UNL     1      -0.723  10.707  20.891  0.00  0.00    +0.000 N 
ATOM      7  C   UNL     1      -0.340  10.718  19.497  0.00  0.00    +0.000 C 
ATOM      8  C   UNL     1       0.324  12.099  19.487  0.00  0.00    +0.000 C 
ATOM      9  O   UNL     1       0.703  12.612  18.442  0.00  0.00    +0.000 OA
ATOM     10  H   UNL     1      -1.276   9.984  21.330  0.00  0.00    +0.000 HD
ENDROOT
BRANCH   7  11
ATOM     11  C   UNL     1       0.762   9.680  19.221  0.00  0.00    +0.000 A 
ATOM     12  C   UNL     1       1.405   9.621  17.981  0.00  0.00    +0.000 A 
ATOM     13  C   UNL     1       2.309   8.586  17.697  0.00  0.00    +0.000 A 
ATOM     14  C   UNL     1       2.583   7.610  18.660  0.00  0.00    +0.000 A 
ATOM     15  C   UNL     1       1.992   7.671  19.910  0.00  0.00    +0.000 A 
ATOM     16  C   UNL     1       1.113   8.710  20.194  0.00  0.00    +0.000 A 
ENDBRANCH   7  11
BRANCH   7  17
ATOM     17  C   UNL     1      -1.550  10.704  18.555  0.00  0.00    +0.000 A 
ATOM     18  C   UNL     1      -2.639  11.585  18.740  0.00  0.00    +0.000 A 
ATOM     19  C   UNL     1      -3.735  11.578  17.870  0.00  0.00    +0.000 A 
ATOM     20  C   UNL     1      -3.761  10.711  16.782  0.00  0.00    +0.000 A 
ATOM     21  C   UNL     1      -2.679   9.869  16.548  0.00  0.00    +0.000 A 
ATOM     22  C   UNL     1      -1.584   9.875  17.418  0.00  0.00    +0.000 A 
ENDBRANCH   7  17
BRANCH   1  24
ATOM     23  C   UNL     1       0.649  15.546  19.044  0.00  0.00    +0.000 C 
ATOM     24  C   UNL     1       1.576  14.817  20.033  0.00  0.00    +0.000 C 
BRANCH  24  25
ATOM     25  N   UNL     1       2.647  14.215  19.272  0.00  0.00    +0.000 N 
ATOM     26  C   UNL     1       3.623  14.874  18.619  0.00  0.00    +0.000 C 
ATOM     27  N   UNL     1       3.950  16.106  18.619  0.00  0.00    +0.000 NA
ATOM     28  N   UNL     1       4.304  13.976  17.888  0.00  0.00    +0.000 N 
ATOM     29  H   UNL     1       2.283  13.503  18.645  0.00  0.00    +0.000 HD
ATOM     30  H   UNL     1       3.337  16.678  19.208  0.00  0.00    +0.000 HD
ATOM     31  H   UNL     1       4.463  13.112  18.392  0.00  0.00    +0.000 HD
ATOM     32  H   UNL     1       5.173  14.378  17.557  0.00  0.00    +0.000 HD
ENDBRANCH  24  25
ENDBRANCH   1  24
TORSDOF 4
ENDMDL
MODEL 7
REMARK VINA RESULT:      -8.1      6.692      9.342
REMARK  Name = 
REMARK  5 active torsions:
REMARK  status: ('A' for Active; 'I' for Inactive)
REMARK    1  A    between atoms: C_1  and  C_2
REMARK    2  A    between atoms: C_2  and  N_3
REMARK    3  A    between atoms: C_2  and  C_7
REMARK    4  A    between atoms: C_13  and  C_14
REMARK    5  A    between atoms: C_13  and  C_20
REMARK                            x       y       z     vdW  Elec       q    Type
REMARK                         _______ _______ _______ _____ _____    ______ ____
ROOT
ATOM      1  C   UNL     1       1.136  13.704  21.098  0.00  0.00    +0.000 C 
ATOM      2  O   UNL     1       1.088  14.147  22.254  0.00  0.00    +0.000 OA
ATOM      3  N   UNL     1       0.544  12.506  20.738  0.00  0.00    +0.000 N 
ATOM      4  C   UNL     1      -0.179  11.700  21.601  0.00  0.00    +0.000 C 
ATOM      5  O   UNL     1      -0.311  11.765  22.809  0.00  0.00    +0.000 OA
ATOM      6  N   UNL     1      -0.825  10.731  20.854  0.00  0.00    +0.000 N 
ATOM      7  C   UNL     1      -0.418  10.709  19.467  0.00  0.00    +0.000 C 
ATOM      8  C   UNL     1       0.366  12.026  19.472  0.00  0.00    +0.000 C 
ATOM      9  O   UNL     1       0.807  12.505  18.435  0.00  0.00    +0.000 OA
ATOM     10  H   UNL     1      -1.447  10.060  21.281  0.00  0.00    +0.000 HD
ENDROOT
BRANCH   7  11
ATOM     11  C   UNL     1       0.593   9.579  19.207  0.00  0.00    +0.000 A 
ATOM     12  C   UNL     1       0.950   8.682  20.218  0.00  0.00    +0.000 A 
ATOM     13  C   UNL     1       1.972   7.744  20.008  0.00  0.00    +0.000 A 
ATOM     14  C   UNL     1       2.634   7.691  18.777  0.00  0.00    +0.000 A 
ATOM     15  C   UNL     1       2.268   8.539  17.745  0.00  0.00    +0.000 A 
ATOM     16  C   UNL     1       1.241   9.453  17.952  0.00  0.00    +0.000 A 
ENDBRANCH   7  11
BRANCH   7  17
ATOM     17  C   UNL     1      -1.608  10.804  18.504  0.00  0.00    +0.000 A 
ATOM     18  C   UNL     1      -1.698   9.979  17.360  0.00  0.00    +0.000 A 
ATOM     19  C   UNL     1      -2.792  10.060  16.491  0.00  0.00    +0.000 A 
ATOM     20  C   UNL     1      -3.831  10.947  16.753  0.00  0.00    +0.000 A 
ATOM     21  C   UNL     1      -3.790  11.735  17.898  0.00  0.00    +0.000 A 
ATOM     22  C   UNL     1      -2.697  11.655  18.766  0.00  0.00    +0.000 A 
ENDBRANCH   7  17
BRANCH   1  24
ATOM     23  C   UNL     1       3.332  14.407  19.716  0.00  0.00    +0.000 C 
ATOM     24  C   UNL     1       1.844  14.622  20.046  0.00  0.00    +0.000 C 
BRANCH  24  25
ATOM     25  N   UNL     1       1.649  16.029  20.311  0.00  0.00    +0.000 N 
ATOM     26  C   UNL     1       1.452  16.989  19.388  0.00  0.00    +0.000 C 
ATOM     27  N   UNL     1       1.237  16.919  18.134  0.00  0.00    +0.000 NA
ATOM     28  N   UNL     1       1.502  18.176  20.017  0.00  0.00    +0.000 N 
ATOM     29  H   UNL     1       2.347  16.368  20.966  0.00  0.00    +0.000 HD
ATOM     30  H   UNL     1       1.239  15.955  17.786  0.00  0.00    +0.000 HD
ATOM     31  H   UNL     1       1.021  18.159  20.908  0.00  0.00    +0.000 HD
ATOM     32  H   UNL     1       1.144  18.908  19.416  0.00  0.00    +0.000 HD
ENDBRANCH  24  25
ENDBRANCH   1  24
TORSDOF 4
ENDMDL
MODEL 8
REMARK VINA RESULT:      -8.1      7.640     11.157
REMARK  Name = 
REMARK  5 active torsions:
REMARK  status: ('A' for Active; 'I' for Inactive)
REMARK    1  A    between atoms: C_1  and  C_2
REMARK    2  A    between atoms: C_2  and  N_3
REMARK    3  A    between atoms: C_2  and  C_7
REMARK    4  A    between atoms: C_13  and  C_14
REMARK    5  A    between atoms: C_13  and  C_20
REMARK                            x       y       z     vdW  Elec       q    Type
REMARK                         _______ _______ _______ _____ _____    ______ ____
ROOT
ATOM      1  C   UNL     1      -1.322  11.273  22.747  0.00  0.00    +0.000 C 
ATOM      2  O   UNL     1      -1.061  10.460  23.643  0.00  0.00    +0.000 OA
ATOM      3  N   UNL     1      -0.893  11.101  21.442  0.00  0.00    +0.000 N 
ATOM      4  C   UNL     1      -0.166  10.010  20.995  0.00  0.00    +0.000 C 
ATOM      5  O   UNL     1       0.362   9.110  21.620  0.00  0.00    +0.000 OA
ATOM      6  N   UNL     1      -0.130  10.047  19.613  0.00  0.00    +0.000 N 
ATOM      7  C   UNL     1      -0.664  11.271  19.057  0.00  0.00    +0.000 C 
ATOM      8  C   UNL     1      -1.283  11.819  20.348  0.00  0.00    +0.000 C 
ATOM      9  O   UNL     1      -1.984  12.822  20.337  0.00  0.00    +0.000 OA
ATOM     10  H   UNL     1       0.313   9.317  19.074  0.00  0.00    +0.000 HD
ENDROOT
BRANCH   7  11
ATOM     11  C   UNL     1       0.468  12.231  18.651  0.00  0.00    +0.000 A 
ATOM     12  C   UNL     1       1.749  11.755  18.358  0.00  0.00    +0.000 A 
ATOM     13  C   UNL     1       2.804  12.650  18.124  0.00  0.00    +0.000 A 
ATOM     14  C   UNL     1       2.577  14.030  18.171  0.00  0.00    +0.000 A 
ATOM     15  C   UNL     1       1.309  14.525  18.417  0.00  0.00    +0.000 A 
ATOM     16  C   UNL     1       0.263  13.634  18.628  0.00  0.00    +0.000 A 
ENDBRANCH   7  11
BRANCH   7  17
ATOM     17  C   UNL     1      -1.756  11.015  18.012  0.00  0.00    +0.000 A 
ATOM     18  C   UNL     1      -1.631   9.988  17.049  0.00  0.00    +0.000 A 
ATOM     19  C   UNL     1      -2.636   9.750  16.105  0.00  0.00    +0.000 A 
ATOM     20  C   UNL     1      -3.800  10.513  16.114  0.00  0.00    +0.000 A 
ATOM     21  C   UNL     1      -3.970  11.496  17.082  0.00  0.00    +0.000 A 
ATOM     22  C   UNL     1      -2.965  11.736  18.024  0.00  0.00    +0.000 A 
ENDBRANCH   7  17
BRANCH   1  24
ATOM     23  C   UNL     1      -1.620  13.711  23.840  0.00  0.00    +0.000 C 
ATOM     24  C   UNL     1      -2.236  12.475  23.160  0.00  0.00    +0.000 C 
BRANCH  24  25
ATOM     25  N   UNL     1      -3.379  12.063  23.944  0.00  0.00    +0.000 N 
ATOM     26  C   UNL     1      -4.598  12.634  23.927  0.00  0.00    +0.000 C 
ATOM     27  N   UNL     1      -5.100  13.522  23.163  0.00  0.00    +0.000 NA
ATOM     28  N   UNL     1      -5.318  12.087  24.921  0.00  0.00    +0.000 N 
ATOM     29  H   UNL     1      -3.114  11.928  24.915  0.00  0.00    +0.000 HD
ATOM     30  H   UNL     1      -4.436  13.861  22.460  0.00  0.00    +0.000 HD
ATOM     31  H   UNL     1      -5.178  11.087  24.991  0.00  0.00    +0.000 HD
ATOM     32  H   UNL     1      -6.299  12.317  24.813  0.00  0.00    +0.000 HD
ENDBRANCH  24  25
ENDBRANCH   1  24
TORSDOF 4
ENDMDL
MODEL 9
REMARK VINA RESULT:      -8.0      7.859     11.119
REMARK  Name = 
REMARK  5 active torsions:
REMARK  status: ('A' for Active; 'I' for Inactive)
REMARK    1  A    between atoms: C_1  and  C_2
REMARK    2  A    between atoms: C_2  and  N_3
REMARK    3  A    between atoms: C_2  and  C_7
REMARK    4  A    between atoms: C_13  and  C_14
REMARK    5  A    between atoms: C_13  and  C_20
REMARK                            x       y       z     vdW  Elec       q    Type
REMARK                         _______ _______ _______ _____ _____    ______ ____
ROOT
ATOM      1  C   UNL     1      -4.238  11.427  18.236  0.00  0.00    +0.000 C 
ATOM      2  O   UNL     1      -4.629  10.914  17.178  0.00  0.00    +0.000 OA
ATOM      3  N   UNL     1      -2.901  11.461  18.592  0.00  0.00    +0.000 N 
ATOM      4  C   UNL     1      -1.870  10.965  17.812  0.00  0.00    +0.000 C 
ATOM      5  O   UNL     1      -1.907  10.294  16.798  0.00  0.00    +0.000 OA
ATOM      6  N   UNL     1      -0.670  11.388  18.355  0.00  0.00    +0.000 N 
ATOM      7  C   UNL     1      -0.816  12.030  19.643  0.00  0.00    +0.000 C 
ATOM      8  C   UNL     1      -2.343  12.165  19.621  0.00  0.00    +0.000 C 
ATOM      9  O   UNL     1      -2.936  12.792  20.490  0.00  0.00    +0.000 OA
ATOM     10  H   UNL     1       0.215  11.176  17.916  0.00  0.00    +0.000 HD
ENDROOT
BRANCH   7  11
ATOM     11  C   UNL     1      -0.461  11.062  20.784  0.00  0.00    +0.000 A 
ATOM     12  C   UNL     1       0.327   9.931  20.553  0.00  0.00    +0.000 A 
ATOM     13  C   UNL     1       0.530   8.986  21.571  0.00  0.00    +0.000 A 
ATOM     14  C   UNL     1      -0.048   9.176  22.830  0.00  0.00    +0.000 A 
ATOM     15  C   UNL     1      -0.797  10.309  23.096  0.00  0.00    +0.000 A 
ATOM     16  C   UNL     1      -0.977  11.252  22.091  0.00  0.00    +0.000 A 
ENDBRANCH   7  11
BRANCH   7  17
ATOM     17  C   UNL     1      -0.162  13.416  19.687  0.00  0.00    +0.000 A 
ATOM     18  C   UNL     1       0.841  13.729  20.631  0.00  0.00    +0.000 A 
ATOM     19  C   UNL     1       1.444  14.991  20.660  0.00  0.00    +0.000 A 
ATOM     20  C   UNL     1       1.080  15.963  19.734  0.00  0.00    +0.000 A 
ATOM     21  C   UNL     1       0.131  15.664  18.762  0.00  0.00    +0.000 A 
ATOM     22  C   UNL     1      -0.473  14.404  18.734  0.00  0.00    +0.000 A 
ENDBRANCH   7  17
BRANCH   1  24
ATOM     23  C   UNL     1      -6.725  11.447  19.256  0.00  0.00    +0.000 C 
ATOM     24  C   UNL     1      -5.341  12.107  19.114  0.00  0.00    +0.000 C 
BRANCH  24  25
ATOM     25  N   UNL     1      -5.548  13.497  18.773  0.00  0.00    +0.000 N 
ATOM     26  C   UNL     1      -5.720  14.509  19.644  0.00  0.00    +0.000 C 
ATOM     27  N   UNL     1      -5.598  14.556  20.912  0.00  0.00    +0.000 NA
ATOM     28  N   UNL     1      -6.065  15.599  18.939  0.00  0.00    +0.000 N 
ATOM     29  H   UNL     1      -6.259  13.585  18.053  0.00  0.00    +0.000 HD
ATOM     30  H   UNL     1      -5.346  13.651  21.320  0.00  0.00    +0.000 HD
ATOM     31  H   UNL     1      -5.527  15.691  18.086  0.00  0.00    +0.000 HD
ATOM     32  H   UNL     1      -5.989  16.429  19.516  0.00  0.00    +0.000 HD
ENDBRANCH  24  25
ENDBRANCH   1  24
TORSDOF 4
ENDMDL
