MODEL 1
REMARK VINA RESULT:      -6.9      0.000      0.000
REMARK  Name = 
REMARK  7 active torsions:
REMARK  status: ('A' for Active; 'I' for Inactive)
REMARK    1  A    between atoms: C_1  and  C_2
REMARK    2  A    between atoms: C_2  and  C_3
REMARK    3  A    between atoms: C_2  and  N_10
REMARK    4  A    between atoms: C_3  and  C_4
REMARK    5  A    between atoms: N_10  and  C_11
REMARK    6  A    between atoms: C_12  and  C_14
REMARK    7  A    between atoms: N_18  and  C_19
REMARK                            x       y       z     vdW  Elec       q    Type
REMARK                         _______ _______ _______ _____ _____    ______ ____
ROOT
ATOM      1  N   UNL     1       4.376   4.939  17.871  0.00  0.00    +0.000 N 
ATOM      2  C   UNL     1       5.189   5.384  18.998  0.00  0.00    +0.000 C 
ATOM      3  C   UNL     1       3.282   4.057  17.992  0.00  0.00    +0.000 C 
ATOM      4  O   UNL     1       2.791   3.553  16.979  0.00  0.00    +0.000 OA
ENDROOT
BRANCH   3   5
ATOM      5  C   UNL     1       2.768   3.721  19.318  0.00  0.00    +0.000 A 
ATOM      6  C   UNL     1       1.659   4.207  20.004  0.00  0.00    +0.000 A 
ATOM      7  C   UNL     1       1.616   3.618  21.288  0.00  0.00    +0.000 A 
ATOM      8  C   UNL     1       2.641   2.706  21.341  0.00  0.00    +0.000 A 
ATOM      9  N   UNL     1       3.315   2.748  20.145  0.00  0.00    +0.000 N 
ATOM     10  C   UNL     1       4.450   1.902  19.846  0.00  0.00    +0.000 C 
ENDBRANCH   3   5
BRANCH   1  12
ATOM     11  C   UNL     1       4.911   6.772  16.231  0.00  0.00    +0.000 C 
ATOM     12  C   UNL     1       4.859   5.259  16.500  0.00  0.00    +0.000 C 
BRANCH  12  13
ATOM     13  C   UNL     1       6.221   4.573  16.249  0.00  0.00    +0.000 C 
BRANCH  13  14
ATOM     14  C   UNL     1       6.623   4.534  14.802  0.00  0.00    +0.000 A 
ATOM     15  C   UNL     1       5.971   3.700  13.894  0.00  0.00    +0.000 A 
ATOM     16  N   UNL     1       6.304   3.640  12.582  0.00  0.00    +0.000 NA
ATOM     17  C   UNL     1       7.315   4.451  12.204  0.00  0.00    +0.000 A 
ATOM     18  C   UNL     1       7.965   5.290  13.095  0.00  0.00    +0.000 A 
ATOM     19  N   UNL     1       7.639   5.348  14.406  0.00  0.00    +0.000 NA
ENDBRANCH  13  14
ENDBRANCH  12  13
ENDBRANCH   1  12
TORSDOF 4
ENDMDL
MODEL 2
REMARK VINA RESULT:      -6.8      0.779      1.397
REMARK  Name = 
REMARK  7 active torsions:
REMARK  status: ('A' for Active; 'I' for Inactive)
REMARK    1  A    between atoms: C_1  and  C_2
REMARK    2  A    between atoms: C_2  and  C_3
REMARK    3  A    between atoms: C_2  and  N_10
REMARK    4  A    between atoms: C_3  and  C_4
REMARK    5  A    between atoms: N_10  and  C_11
REMARK    6  A    between atoms: C_12  and  C_14
REMARK    7  A    between atoms: N_18  and  C_19
REMARK                            x       y       z     vdW  Elec       q    Type
REMARK                         _______ _______ _______ _____ _____    ______ ____
ROOT
ATOM      1  N   UNL     1       4.742   4.862  17.911  0.00  0.00    +0.000 N 
ATOM      2  C   UNL     1       5.758   5.008  18.948  0.00  0.00    +0.000 C 
ATOM      3  C   UNL     1       3.519   4.185  18.099  0.00  0.00    +0.000 C 
ATOM      4  O   UNL     1       2.818   3.908  17.123  0.00  0.00    +0.000 OA
ENDROOT
BRANCH   3   5
ATOM      5  C   UNL     1       3.115   3.785  19.446  0.00  0.00    +0.000 A 
ATOM      6  C   UNL     1       3.293   2.580  20.120  0.00  0.00    +0.000 A 
ATOM      7  C   UNL     1       2.665   2.661  21.383  0.00  0.00    +0.000 A 
ATOM      8  C   UNL     1       2.191   3.943  21.510  0.00  0.00    +0.000 A 
ATOM      9  N   UNL     1       2.487   4.626  20.356  0.00  0.00    +0.000 N 
ATOM     10  C   UNL     1       2.146   6.017  20.149  0.00  0.00    +0.000 C 
ENDBRANCH   3   5
BRANCH   1  12
ATOM     11  C   UNL     1       4.952   6.768  16.280  0.00  0.00    +0.000 C 
ATOM     12  C   UNL     1       5.107   5.258  16.524  0.00  0.00    +0.000 C 
BRANCH  12  13
ATOM     13  C   UNL     1       6.530   4.754  16.190  0.00  0.00    +0.000 C 
BRANCH  13  14
ATOM     14  C   UNL     1       6.800   4.628  14.718  0.00  0.00    +0.000 A 
ATOM     15  C   UNL     1       6.070   3.744  13.924  0.00  0.00    +0.000 A 
ATOM     16  N   UNL     1       6.284   3.605  12.593  0.00  0.00    +0.000 NA
ATOM     17  C   UNL     1       7.255   4.389  12.078  0.00  0.00    +0.000 A 
ATOM     18  C   UNL     1       7.981   5.277  12.855  0.00  0.00    +0.000 A 
ATOM     19  N   UNL     1       7.774   5.414  14.185  0.00  0.00    +0.000 NA
ENDBRANCH  13  14
ENDBRANCH  12  13
ENDBRANCH   1  12
TORSDOF 4
ENDMDL
MODEL 3
REMARK VINA RESULT:      -6.6      1.680      2.220
REMARK  Name = 
REMARK  7 active torsions:
REMARK  status: ('A' for Active; 'I' for Inactive)
REMARK    1  A    between atoms: C_1  and  C_2
REMARK    2  A    between atoms: C_2  and  C_3
REMARK    3  A    between atoms: C_2  and  N_10
REMARK    4  A    between atoms: C_3  and  C_4
REMARK    5  A    between atoms: N_10  and  C_11
REMARK    6  A    between atoms: C_12  and  C_14
REMARK    7  A    between atoms: N_18  and  C_19
REMARK                            x       y       z     vdW  Elec       q    Type
REMARK                         _______ _______ _______ _____ _____    ______ ____
ROOT
ATOM      1  N   UNL     1       3.404   5.765  18.614  0.00  0.00    +0.000 N 
ATOM      2  C   UNL     1       4.471   5.522  19.578  0.00  0.00    +0.000 C 
ATOM      3  C   UNL     1       2.255   4.956  18.493  0.00  0.00    +0.000 C 
ATOM      4  O   UNL     1       1.515   5.089  17.515  0.00  0.00    +0.000 OA
ENDROOT
BRANCH   3   5
ATOM      5  C   UNL     1       1.974   3.943  19.509  0.00  0.00    +0.000 A 
ATOM      6  C   UNL     1       1.246   4.030  20.691  0.00  0.00    +0.000 A 
ATOM      7  C   UNL     1       1.317   2.793  21.370  0.00  0.00    +0.000 A 
ATOM      8  C   UNL     1       2.007   1.931  20.553  0.00  0.00    +0.000 A 
ATOM      9  N   UNL     1       2.376   2.616  19.422  0.00  0.00    +0.000 N 
ATOM     10  C   UNL     1       3.109   2.008  18.332  0.00  0.00    +0.000 C 
ENDBRANCH   3   5
BRANCH   1  12
ATOM     11  C   UNL     1       2.839   8.078  17.797  0.00  0.00    +0.000 C 
ATOM     12  C   UNL     1       3.642   6.789  17.560  0.00  0.00    +0.000 C 
BRANCH  12  13
ATOM     13  C   UNL     1       5.159   7.060  17.424  0.00  0.00    +0.000 C 
BRANCH  13  14
ATOM     14  C   UNL     1       5.860   6.125  16.480  0.00  0.00    +0.000 A 
ATOM     15  C   UNL     1       7.024   5.456  16.860  0.00  0.00    +0.000 A 
ATOM     16  N   UNL     1       7.682   4.605  16.036  0.00  0.00    +0.000 NA
ATOM     17  C   UNL     1       7.131   4.439  14.815  0.00  0.00    +0.000 A 
ATOM     18  C   UNL     1       5.971   5.091  14.431  0.00  0.00    +0.000 A 
ATOM     19  N   UNL     1       5.314   5.945  15.247  0.00  0.00    +0.000 NA
ENDBRANCH  13  14
ENDBRANCH  12  13
ENDBRANCH   1  12
TORSDOF 4
ENDMDL
MODEL 4
REMARK VINA RESULT:      -6.5      1.509      1.970
REMARK  Name = 
REMARK  7 active torsions:
REMARK  status: ('A' for Active; 'I' for Inactive)
REMARK    1  A    between atoms: C_1  and  C_2
REMARK    2  A    between atoms: C_2  and  C_3
REMARK    3  A    between atoms: C_2  and  N_10
REMARK    4  A    between atoms: C_3  and  C_4
REMARK    5  A    between atoms: N_10  and  C_11
REMARK    6  A    between atoms: C_12  and  C_14
REMARK    7  A    between atoms: N_18  and  C_19
REMARK                            x       y       z     vdW  Elec       q    Type
REMARK                         _______ _______ _______ _____ _____    ______ ____
ROOT
ATOM      1  N   UNL     1       5.654   5.613  18.247  0.00  0.00    +0.000 N 
ATOM      2  C   UNL     1       6.402   5.383  19.479  0.00  0.00    +0.000 C 
ATOM      3  C   UNL     1       4.313   5.220  18.058  0.00  0.00    +0.000 C 
ATOM      4  O   UNL     1       3.825   5.244  16.926  0.00  0.00    +0.000 OA
ENDROOT
BRANCH   3   5
ATOM      5  C   UNL     1       3.529   4.753  19.200  0.00  0.00    +0.000 A 
ATOM      6  C   UNL     1       3.504   3.512  19.829  0.00  0.00    +0.000 A 
ATOM      7  C   UNL     1       2.529   3.532  20.851  0.00  0.00    +0.000 A 
ATOM      8  C   UNL     1       2.034   4.811  20.902  0.00  0.00    +0.000 A 
ATOM      9  N   UNL     1       2.656   5.551  19.928  0.00  0.00    +0.000 N 
ATOM     10  C   UNL     1       2.386   6.956  19.707  0.00  0.00    +0.000 C 
ENDBRANCH   3   5
BRANCH   1  12
ATOM     11  C   UNL     1       7.231   7.358  17.348  0.00  0.00    +0.000 C 
ATOM     12  C   UNL     1       6.410   6.091  17.058  0.00  0.00    +0.000 C 
BRANCH  12  13
ATOM     13  C   UNL     1       7.282   4.945  16.494  0.00  0.00    +0.000 C 
BRANCH  13  14
ATOM     14  C   UNL     1       7.101   4.714  15.020  0.00  0.00    +0.000 A 
ATOM     15  C   UNL     1       6.131   3.833  14.542  0.00  0.00    +0.000 A 
ATOM     16  N   UNL     1       5.939   3.601  13.221  0.00  0.00    +0.000 NA
ATOM     17  C   UNL     1       6.749   4.288  12.388  0.00  0.00    +0.000 A 
ATOM     18  C   UNL     1       7.710   5.172  12.852  0.00  0.00    +0.000 A 
ATOM     19  N   UNL     1       7.909   5.402  14.169  0.00  0.00    +0.000 NA
ENDBRANCH  13  14
ENDBRANCH  12  13
ENDBRANCH   1  12
TORSDOF 4
ENDMDL
MODEL 5
REMARK VINA RESULT:      -6.5      1.026      1.053
REMARK  Name = 
REMARK  7 active torsions:
REMARK  status: ('A' for Active; 'I' for Inactive)
REMARK    1  A    between atoms: C_1  and  C_2
REMARK    2  A    between atoms: C_2  and  C_3
REMARK    3  A    between atoms: C_2  and  N_10
REMARK    4  A    between atoms: C_3  and  C_4
REMARK    5  A    between atoms: N_10  and  C_11
REMARK    6  A    between atoms: C_12  and  C_14
REMARK    7  A    between atoms: N_18  and  C_19
REMARK                            x       y       z     vdW  Elec       q    Type
REMARK                         _______ _______ _______ _____ _____    ______ ____
ROOT
ATOM      1  N   UNL     1       5.178   5.200  18.016  0.00  0.00    +0.000 N 
ATOM      2  C   UNL     1       5.701   5.172  19.378  0.00  0.00    +0.000 C 
ATOM      3  C   UNL     1       3.963   4.597  17.628  0.00  0.00    +0.000 C 
ATOM      4  O   UNL     1       3.702   4.467  16.430  0.00  0.00    +0.000 OA
ENDROOT
BRANCH   3   5
ATOM      5  C   UNL     1       3.045   4.099  18.651  0.00  0.00    +0.000 A 
ATOM      6  C   UNL     1       2.094   4.772  19.412  0.00  0.00    +0.000 A 
ATOM      7  C   UNL     1       1.499   3.863  20.317  0.00  0.00    +0.000 A 
ATOM      8  C   UNL     1       2.023   2.625  20.037  0.00  0.00    +0.000 A 
ATOM      9  N   UNL     1       2.931   2.764  19.016  0.00  0.00    +0.000 N 
ATOM     10  C   UNL     1       3.666   1.652  18.454  0.00  0.00    +0.000 C 
ENDBRANCH   3   5
BRANCH   1  12
ATOM     11  C   UNL     1       6.952   6.876  17.400  0.00  0.00    +0.000 C 
ATOM     12  C   UNL     1       6.077   5.700  16.939  0.00  0.00    +0.000 C 
BRANCH  12  13
ATOM     13  C   UNL     1       6.916   4.533  16.370  0.00  0.00    +0.000 C 
BRANCH  13  14
ATOM     14  C   UNL     1       7.023   4.536  14.872  0.00  0.00    +0.000 A 
ATOM     15  C   UNL     1       6.225   3.703  14.089  0.00  0.00    +0.000 A 
ATOM     16  N   UNL     1       6.293   3.681  12.736  0.00  0.00    +0.000 NA
ATOM     17  C   UNL     1       7.188   4.530  12.188  0.00  0.00    +0.000 A 
ATOM     18  C   UNL     1       7.979   5.369  12.954  0.00  0.00    +0.000 A 
ATOM     19  N   UNL     1       7.919   5.390  14.305  0.00  0.00    +0.000 NA
ENDBRANCH  13  14
ENDBRANCH  12  13
ENDBRANCH   1  12
TORSDOF 4
ENDMDL
MODEL 6
REMARK VINA RESULT:      -6.3      0.980      1.765
REMARK  Name = 
REMARK  7 active torsions:
REMARK  status: ('A' for Active; 'I' for Inactive)
REMARK    1  A    between atoms: C_1  and  C_2
REMARK    2  A    between atoms: C_2  and  C_3
REMARK    3  A    between atoms: C_2  and  N_10
REMARK    4  A    between atoms: C_3  and  C_4
REMARK    5  A    between atoms: N_10  and  C_11
REMARK    6  A    between atoms: C_12  and  C_14
REMARK    7  A    between atoms: N_18  and  C_19
REMARK                            x       y       z     vdW  Elec       q    Type
REMARK                         _______ _______ _______ _____ _____    ______ ____
ROOT
ATOM      1  N   UNL     1       4.692   4.790  17.919  0.00  0.00    +0.000 N 
ATOM      2  C   UNL     1       5.701   5.005  18.951  0.00  0.00    +0.000 C 
ATOM      3  C   UNL     1       3.493   4.077  18.130  0.00  0.00    +0.000 C 
ATOM      4  O   UNL     1       2.803   3.746  17.164  0.00  0.00    +0.000 OA
ENDROOT
BRANCH   3   5
ATOM      5  C   UNL     1       3.101   3.708  19.489  0.00  0.00    +0.000 A 
ATOM      6  C   UNL     1       3.283   2.518  20.187  0.00  0.00    +0.000 A 
ATOM      7  C   UNL     1       2.668   2.628  21.455  0.00  0.00    +0.000 A 
ATOM      8  C   UNL     1       2.200   3.914  21.559  0.00  0.00    +0.000 A 
ATOM      9  N   UNL     1       2.487   4.571  20.388  0.00  0.00    +0.000 N 
ATOM     10  C   UNL     1       2.148   5.959  20.154  0.00  0.00    +0.000 C 
ENDBRANCH   3   5
BRANCH   1  12
ATOM     11  C   UNL     1       4.972   6.667  16.266  0.00  0.00    +0.000 C 
ATOM     12  C   UNL     1       5.044   5.153  16.520  0.00  0.00    +0.000 C 
BRANCH  12  13
ATOM     13  C   UNL     1       6.427   4.564  16.156  0.00  0.00    +0.000 C 
BRANCH  13  14
ATOM     14  C   UNL     1       6.696   4.514  14.679  0.00  0.00    +0.000 A 
ATOM     15  C   UNL     1       7.637   5.357  14.089  0.00  0.00    +0.000 A 
ATOM     16  N   UNL     1       7.908   5.339  12.761  0.00  0.00    +0.000 NA
ATOM     17  C   UNL     1       7.206   4.440  12.039  0.00  0.00    +0.000 A 
ATOM     18  C   UNL     1       6.275   3.591  12.616  0.00  0.00    +0.000 A 
ATOM     19  N   UNL     1       5.998   3.610  13.940  0.00  0.00    +0.000 NA
ENDBRANCH  13  14
ENDBRANCH  12  13
ENDBRANCH   1  12
TORSDOF 4
ENDMDL
MODEL 7
REMARK VINA RESULT:      -6.3      1.833      2.626
REMARK  Name = 
REMARK  7 active torsions:
REMARK  status: ('A' for Active; 'I' for Inactive)
REMARK    1  A    between atoms: C_1  and  C_2
REMARK    2  A    between atoms: C_2  and  C_3
REMARK    3  A    between atoms: C_2  and  N_10
REMARK    4  A    between atoms: C_3  and  C_4
REMARK    5  A    between atoms: N_10  and  C_11
REMARK    6  A    between atoms: C_12  and  C_14
REMARK    7  A    between atoms: N_18  and  C_19
REMARK                            x       y       z     vdW  Elec       q    Type
REMARK                         _______ _______ _______ _____ _____    ______ ____
ROOT
ATOM      1  N   UNL     1       2.614   6.177  18.804  0.00  0.00    +0.000 N 
ATOM      2  C   UNL     1       2.811   6.753  20.131  0.00  0.00    +0.000 C 
ATOM      3  C   UNL     1       2.397   4.804  18.568  0.00  0.00    +0.000 C 
ATOM      4  O   UNL     1       2.465   4.365  17.418  0.00  0.00    +0.000 OA
ENDROOT
BRANCH   3   5
ATOM      5  C   UNL     1       2.131   3.911  19.694  0.00  0.00    +0.000 A 
ATOM      6  C   UNL     1       0.956   3.681  20.404  0.00  0.00    +0.000 A 
ATOM      7  C   UNL     1       1.221   2.770  21.452  0.00  0.00    +0.000 A 
ATOM      8  C   UNL     1       2.529   2.378  21.316  0.00  0.00    +0.000 A 
ATOM      9  N   UNL     1       3.067   3.043  20.241  0.00  0.00    +0.000 N 
ATOM     10  C   UNL     1       4.432   2.857  19.798  0.00  0.00    +0.000 C 
ENDBRANCH   3   5
BRANCH   1  12
ATOM     11  C   UNL     1       1.978   8.301  17.611  0.00  0.00    +0.000 C 
ATOM     12  C   UNL     1       2.872   7.050  17.626  0.00  0.00    +0.000 C 
BRANCH  12  13
ATOM     13  C   UNL     1       4.375   7.404  17.552  0.00  0.00    +0.000 C 
BRANCH  13  14
ATOM     14  C   UNL     1       5.215   6.350  16.887  0.00  0.00    +0.000 A 
ATOM     15  C   UNL     1       5.967   5.447  17.637  0.00  0.00    +0.000 A 
ATOM     16  N   UNL     1       6.734   4.483  17.072  0.00  0.00    +0.000 NA
ATOM     17  C   UNL     1       6.718   4.449  15.722  0.00  0.00    +0.000 A 
ATOM     18  C   UNL     1       5.968   5.335  14.967  0.00  0.00    +0.000 A 
ATOM     19  N   UNL     1       5.206   6.302  15.527  0.00  0.00    +0.000 NA
ENDBRANCH  13  14
ENDBRANCH  12  13
ENDBRANCH   1  12
TORSDOF 4
ENDMDL
MODEL 8
REMARK VINA RESULT:      -6.3      1.618      1.957
REMARK  Name = 
REMARK  7 active torsions:
REMARK  status: ('A' for Active; 'I' for Inactive)
REMARK    1  A    between atoms: C_1  and  C_2
REMARK    2  A    between atoms: C_2  and  C_3
REMARK    3  A    between atoms: C_2  and  N_10
REMARK    4  A    between atoms: C_3  and  C_4
REMARK    5  A    between atoms: N_10  and  C_11
REMARK    6  A    between atoms: C_12  and  C_14
REMARK    7  A    between atoms: N_18  and  C_19
REMARK                            x       y       z     vdW  Elec       q    Type
REMARK                         _______ _______ _______ _____ _____    ______ ____
ROOT
ATOM      1  N   UNL     1       5.249   5.783  17.824  0.00  0.00    +0.000 N 
ATOM      2  C   UNL     1       4.308   6.800  17.366  0.00  0.00    +0.000 C 
ATOM      3  C   UNL     1       4.950   4.825  18.815  0.00  0.00    +0.000 C 
ATOM      4  O   UNL     1       5.859   4.152  19.306  0.00  0.00    +0.000 OA
ENDROOT
BRANCH   3   5
ATOM      5  C   UNL     1       3.572   4.669  19.275  0.00  0.00    +0.000 A 
ATOM      6  C   UNL     1       2.892   5.297  20.314  0.00  0.00    +0.000 A 
ATOM      7  C   UNL     1       1.588   4.758  20.405  0.00  0.00    +0.000 A 
ATOM      8  C   UNL     1       1.450   3.874  19.364  0.00  0.00    +0.000 A 
ATOM      9  N   UNL     1       2.634   3.843  18.668  0.00  0.00    +0.000 N 
ATOM     10  C   UNL     1       2.840   3.025  17.492  0.00  0.00    +0.000 C 
ENDBRANCH   3   5
BRANCH   1  12
ATOM     11  C   UNL     1       7.600   6.376  18.504  0.00  0.00    +0.000 C 
ATOM     12  C   UNL     1       6.665   5.900  17.380  0.00  0.00    +0.000 C 
BRANCH  12  13
ATOM     13  C   UNL     1       7.133   4.565  16.756  0.00  0.00    +0.000 C 
BRANCH  13  14
ATOM     14  C   UNL     1       7.013   4.520  15.259  0.00  0.00    +0.000 A 
ATOM     15  C   UNL     1       6.067   3.708  14.635  0.00  0.00    +0.000 A 
ATOM     16  N   UNL     1       5.929   3.643  13.289  0.00  0.00    +0.000 NA
ATOM     17  C   UNL     1       6.771   4.427  12.582  0.00  0.00    +0.000 A 
ATOM     18  C   UNL     1       7.708   5.245  13.191  0.00  0.00    +0.000 A 
ATOM     19  N   UNL     1       7.853   5.308  14.534  0.00  0.00    +0.000 NA
ENDBRANCH  13  14
ENDBRANCH  12  13
ENDBRANCH   1  12
TORSDOF 4
ENDMDL
MODEL 9
REMARK VINA RESULT:      -6.2      1.794      2.679
REMARK  Name = 
REMARK  7 active torsions:
REMARK  status: ('A' for Active; 'I' for Inactive)
REMARK    1  A    between atoms: C_1  and  C_2
REMARK    2  A    between atoms: C_2  and  C_3
REMARK    3  A    between atoms: C_2  and  N_10
REMARK    4  A    between atoms: C_3  and  C_4
REMARK    5  A    between atoms: N_10  and  C_11
REMARK    6  A    between atoms: C_12  and  C_14
REMARK    7  A    between atoms: N_18  and  C_19
REMARK                            x       y       z     vdW  Elec       q    Type
REMARK                         _______ _______ _______ _____ _____    ______ ____
ROOT
ATOM      1  N   UNL     1       2.565   6.206  18.824  0.00  0.00    +0.000 N 
ATOM      2  C   UNL     1       2.726   6.785  20.154  0.00  0.00    +0.000 C 
ATOM      3  C   UNL     1       2.393   4.827  18.583  0.00  0.00    +0.000 C 
ATOM      4  O   UNL     1       2.491   4.392  17.433  0.00  0.00    +0.000 OA
ENDROOT
BRANCH   3   5
ATOM      5  C   UNL     1       2.139   3.924  19.704  0.00  0.00    +0.000 A 
ATOM      6  C   UNL     1       0.968   3.675  20.412  0.00  0.00    +0.000 A 
ATOM      7  C   UNL     1       1.244   2.762  21.455  0.00  0.00    +0.000 A 
ATOM      8  C   UNL     1       2.558   2.388  21.317  0.00  0.00    +0.000 A 
ATOM      9  N   UNL     1       3.087   3.065  20.246  0.00  0.00    +0.000 N 
ATOM     10  C   UNL     1       4.454   2.900  19.802  0.00  0.00    +0.000 C 
ENDBRANCH   3   5
BRANCH   1  12
ATOM     11  C   UNL     1       1.902   8.327  17.641  0.00  0.00    +0.000 C 
ATOM     12  C   UNL     1       2.812   7.088  17.651  0.00  0.00    +0.000 C 
BRANCH  12  13
ATOM     13  C   UNL     1       4.311   7.462  17.580  0.00  0.00    +0.000 C 
BRANCH  13  14
ATOM     14  C   UNL     1       5.183   6.371  17.027  0.00  0.00    +0.000 A 
ATOM     15  C   UNL     1       5.215   6.097  15.660  0.00  0.00    +0.000 A 
ATOM     16  N   UNL     1       5.990   5.123  15.125  0.00  0.00    +0.000 NA
ATOM     17  C   UNL     1       6.743   4.432  16.007  0.00  0.00    +0.000 A 
ATOM     18  C   UNL     1       6.726   4.702  17.366  0.00  0.00    +0.000 A 
ATOM     19  N   UNL     1       5.949   5.669  17.904  0.00  0.00    +0.000 NA
ENDBRANCH  13  14
ENDBRANCH  12  13
ENDBRANCH   1  12
TORSDOF 4
ENDMDL
