MODEL 1
REMARK VINA RESULT:      -8.6      0.000      0.000
REMARK  Name = 
REMARK  5 active torsions:
REMARK  status: ('A' for Active; 'I' for Inactive)
REMARK    1  A    between atoms: N_1  and  C_2
REMARK    2  A    between atoms: C_4  and  N_5
REMARK    3  A    between atoms: N_6  and  C_7
REMARK    4  A    between atoms: C_7  and  C_9
REMARK    5  A    between atoms: C_14  and  O_15
REMARK                            x       y       z     vdW  Elec       q    Type
REMARK                         _______ _______ _______ _____ _____    ______ ____
ROOT
ATOM      1  C   UNL     1       4.629   2.357  20.070  0.00  0.00    +0.000 A 
ATOM      2  N   UNL     1       5.213   3.028  19.015  0.00  0.00    +0.000 N 
ATOM      3  C   UNL     1       4.376   4.012  18.506  0.00  0.00    +0.000 A 
ATOM      4  C   UNL     1       3.236   3.951  19.276  0.00  0.00    +0.000 A 
ATOM      5  C   UNL     1       2.113   4.762  19.133  0.00  0.00    +0.000 A 
ATOM      6  C   UNL     1       1.132   4.425  20.093  0.00  0.00    +0.000 A 
ATOM      7  C   UNL     1       1.285   3.384  21.075  0.00  0.00    +0.000 A 
ATOM      8  C   UNL     1       2.436   2.571  21.202  0.00  0.00    +0.000 A 
ATOM      9  C   UNL     1       3.389   2.920  20.249  0.00  0.00    +0.000 A 
ATOM     10  H   UNL     1       6.133   2.846  18.645  0.00  0.00    +0.000 HD
ENDROOT
BRANCH   1  11
ATOM     11  N   UNL     1       5.280   1.364  20.700  0.00  0.00    +0.000 N 
ATOM     12  H   UNL     1       5.796   0.628  20.231  0.00  0.00    +0.000 HD
ATOM     13  H   UNL     1       5.261   1.285  21.714  0.00  0.00    +0.000 HD
ENDBRANCH   1  11
BRANCH   3  14
ATOM     14  N   UNL     1       4.714   4.814  17.464  0.00  0.00    +0.000 NA
ATOM     15  N   UNL     1       5.227   4.262  16.469  0.00  0.00    +0.000 NA
BRANCH  15  16
ATOM     16  C   UNL     1       5.522   5.178  15.476  0.00  0.00    +0.000 C 
ATOM     17  O   UNL     1       5.404   6.403  15.551  0.00  0.00    +0.000 OA
BRANCH  16  18
ATOM     18  C   UNL     1       5.965   4.605  14.173  0.00  0.00    +0.000 A 
ATOM     19  C   UNL     1       5.058   3.783  13.481  0.00  0.00    +0.000 A 
ATOM     20  C   UNL     1       5.412   3.203  12.261  0.00  0.00    +0.000 A 
ATOM     21  C   UNL     1       6.670   3.450  11.716  0.00  0.00    +0.000 A 
ATOM     22  C   UNL     1       7.572   4.279  12.384  0.00  0.00    +0.000 A 
ATOM     23  C   UNL     1       7.223   4.854  13.609  0.00  0.00    +0.000 A 
BRANCH  23  24
ATOM     24  O   UNL     1       8.119   5.680  14.228  0.00  0.00    +0.000 OA
ATOM     25  H   UNL     1       8.870   5.845  13.633  0.00  0.00    +0.000 HD
ENDBRANCH  23  24
ENDBRANCH  16  18
ENDBRANCH  15  16
ENDBRANCH   3  14
TORSDOF 5
ENDMDL
MODEL 2
REMARK VINA RESULT:      -8.4      1.737      2.294
REMARK  Name = 
REMARK  5 active torsions:
REMARK  status: ('A' for Active; 'I' for Inactive)
REMARK    1  A    between atoms: N_1  and  C_2
REMARK    2  A    between atoms: C_4  and  N_5
REMARK    3  A    between atoms: N_6  and  C_7
REMARK    4  A    between atoms: C_7  and  C_9
REMARK    5  A    between atoms: C_14  and  O_15
REMARK                            x       y       z     vdW  Elec       q    Type
REMARK                         _______ _______ _______ _____ _____    ______ ____
ROOT
ATOM      1  C   UNL     1       2.578   5.766  19.708  0.00  0.00    +0.000 A 
ATOM      2  N   UNL     1       3.771   6.067  19.082  0.00  0.00    +0.000 N 
ATOM      3  C   UNL     1       4.185   5.039  18.247  0.00  0.00    +0.000 A 
ATOM      4  C   UNL     1       3.213   4.069  18.356  0.00  0.00    +0.000 A 
ATOM      5  C   UNL     1       3.204   2.847  17.688  0.00  0.00    +0.000 A 
ATOM      6  C   UNL     1       2.055   2.101  18.034  0.00  0.00    +0.000 A 
ATOM      7  C   UNL     1       1.044   2.553  18.954  0.00  0.00    +0.000 A 
ATOM      8  C   UNL     1       1.074   3.799  19.623  0.00  0.00    +0.000 A 
ATOM      9  C   UNL     1       2.212   4.518  19.266  0.00  0.00    +0.000 A 
ATOM     10  H   UNL     1       4.291   6.922  19.199  0.00  0.00    +0.000 HD
ENDROOT
BRANCH   1  11
ATOM     11  N   UNL     1       2.009   6.636  20.560  0.00  0.00    +0.000 N 
ATOM     12  H   UNL     1       2.314   6.788  21.515  0.00  0.00    +0.000 HD
ATOM     13  H   UNL     1       1.195   7.182  20.287  0.00  0.00    +0.000 HD
ENDBRANCH   1  11
BRANCH   3  14
ATOM     14  N   UNL     1       5.329   5.085  17.517  0.00  0.00    +0.000 NA
ATOM     15  N   UNL     1       5.219   5.377  16.309  0.00  0.00    +0.000 NA
BRANCH  15  16
ATOM     16  C   UNL     1       6.448   5.397  15.677  0.00  0.00    +0.000 C 
ATOM     17  O   UNL     1       7.481   5.919  16.099  0.00  0.00    +0.000 OA
BRANCH  16  18
ATOM     18  C   UNL     1       6.492   4.774  14.323  0.00  0.00    +0.000 A 
ATOM     19  C   UNL     1       5.430   3.926  13.960  0.00  0.00    +0.000 A 
ATOM     20  C   UNL     1       5.415   3.300  12.713  0.00  0.00    +0.000 A 
ATOM     21  C   UNL     1       6.452   3.526  11.811  0.00  0.00    +0.000 A 
ATOM     22  C   UNL     1       7.502   4.381  12.151  0.00  0.00    +0.000 A 
ATOM     23  C   UNL     1       7.524   5.002  13.403  0.00  0.00    +0.000 A 
BRANCH  23  24
ATOM     24  O   UNL     1       8.553   5.852  13.698  0.00  0.00    +0.000 OA
ATOM     25  H   UNL     1       8.533   6.608  13.087  0.00  0.00    +0.000 HD
ENDBRANCH  23  24
ENDBRANCH  16  18
ENDBRANCH  15  16
ENDBRANCH   3  14
TORSDOF 5
ENDMDL
MODEL 3
REMARK VINA RESULT:      -8.0      1.473      1.662
REMARK  Name = 
REMARK  5 active torsions:
REMARK  status: ('A' for Active; 'I' for Inactive)
REMARK    1  A    between atoms: N_1  and  C_2
REMARK    2  A    between atoms: C_4  and  N_5
REMARK    3  A    between atoms: N_6  and  C_7
REMARK    4  A    between atoms: C_7  and  C_9
REMARK    5  A    between atoms: C_14  and  O_15
REMARK                            x       y       z     vdW  Elec       q    Type
REMARK                         _______ _______ _______ _____ _____    ______ ____
ROOT
ATOM      1  C   UNL     1       2.572   2.820  18.608  0.00  0.00    +0.000 A 
ATOM      2  N   UNL     1       3.569   3.119  17.701  0.00  0.00    +0.000 N 
ATOM      3  C   UNL     1       3.901   4.467  17.731  0.00  0.00    +0.000 A 
ATOM      4  C   UNL     1       3.086   5.020  18.693  0.00  0.00    +0.000 A 
ATOM      5  C   UNL     1       3.069   6.359  19.075  0.00  0.00    +0.000 A 
ATOM      6  C   UNL     1       2.111   6.574  20.091  0.00  0.00    +0.000 A 
ATOM      7  C   UNL     1       1.271   5.542  20.643  0.00  0.00    +0.000 A 
ATOM      8  C   UNL     1       1.304   4.187  20.238  0.00  0.00    +0.000 A 
ATOM      9  C   UNL     1       2.256   3.997  19.240  0.00  0.00    +0.000 A 
ATOM     10  H   UNL     1       4.016   2.458  17.086  0.00  0.00    +0.000 HD
ENDROOT
BRANCH   1  11
ATOM     11  N   UNL     1       2.109   1.564  18.731  0.00  0.00    +0.000 N 
ATOM     12  H   UNL     1       2.136   1.024  19.588  0.00  0.00    +0.000 HD
ATOM     13  H   UNL     1       1.721   1.067  17.932  0.00  0.00    +0.000 HD
ENDBRANCH   1  11
BRANCH   3  14
ATOM     14  N   UNL     1       4.851   5.020  16.934  0.00  0.00    +0.000 NA
ATOM     15  N   UNL     1       5.708   4.248  16.456  0.00  0.00    +0.000 NA
BRANCH  15  16
ATOM     16  C   UNL     1       6.614   4.925  15.662  0.00  0.00    +0.000 C 
ATOM     17  O   UNL     1       7.363   5.836  16.019  0.00  0.00    +0.000 OA
BRANCH  16  18
ATOM     18  C   UNL     1       6.627   4.544  14.220  0.00  0.00    +0.000 A 
ATOM     19  C   UNL     1       5.608   3.691  13.762  0.00  0.00    +0.000 A 
ATOM     20  C   UNL     1       5.567   3.284  12.427  0.00  0.00    +0.000 A 
ATOM     21  C   UNL     1       6.536   3.737  11.535  0.00  0.00    +0.000 A 
ATOM     22  C   UNL     1       7.542   4.600  11.973  0.00  0.00    +0.000 A 
ATOM     23  C   UNL     1       7.590   5.001  13.311  0.00  0.00    +0.000 A 
BRANCH  23  24
ATOM     24  O   UNL     1       8.573   5.865  13.705  0.00  0.00    +0.000 OA
ATOM     25  H   UNL     1       8.624   6.605  13.076  0.00  0.00    +0.000 HD
ENDBRANCH  23  24
ENDBRANCH  16  18
ENDBRANCH  15  16
ENDBRANCH   3  14
TORSDOF 5
ENDMDL
MODEL 4
REMARK VINA RESULT:      -7.9      1.365      1.776
REMARK  Name = 
REMARK  5 active torsions:
REMARK  status: ('A' for Active; 'I' for Inactive)
REMARK    1  A    between atoms: N_1  and  C_2
REMARK    2  A    between atoms: C_4  and  N_5
REMARK    3  A    between atoms: N_6  and  C_7
REMARK    4  A    between atoms: C_7  and  C_9
REMARK    5  A    between atoms: C_14  and  O_15
REMARK                            x       y       z     vdW  Elec       q    Type
REMARK                         _______ _______ _______ _____ _____    ______ ____
ROOT
ATOM      1  C   UNL     1       4.558   2.457  19.942  0.00  0.00    +0.000 A 
ATOM      2  N   UNL     1       5.454   3.191  19.191  0.00  0.00    +0.000 N 
ATOM      3  C   UNL     1       4.806   3.984  18.253  0.00  0.00    +0.000 A 
ATOM      4  C   UNL     1       3.464   3.736  18.432  0.00  0.00    +0.000 A 
ATOM      5  C   UNL     1       2.425   4.316  17.710  0.00  0.00    +0.000 A 
ATOM      6  C   UNL     1       1.176   3.832  18.161  0.00  0.00    +0.000 A 
ATOM      7  C   UNL     1       1.015   2.870  19.220  0.00  0.00    +0.000 A 
ATOM      8  C   UNL     1       2.087   2.292  19.941  0.00  0.00    +0.000 A 
ATOM      9  C   UNL     1       3.306   2.784  19.482  0.00  0.00    +0.000 A 
ATOM     10  H   UNL     1       6.455   3.173  19.296  0.00  0.00    +0.000 HD
ENDROOT
BRANCH   1  11
ATOM     11  N   UNL     1       4.989   1.625  20.906  0.00  0.00    +0.000 N 
ATOM     12  H   UNL     1       4.417   0.913  21.347  0.00  0.00    +0.000 HD
ATOM     13  H   UNL     1       5.935   1.692  21.273  0.00  0.00    +0.000 HD
ENDBRANCH   1  11
BRANCH   3  14
ATOM     14  N   UNL     1       5.460   4.801  17.388  0.00  0.00    +0.000 NA
ATOM     15  N   UNL     1       6.465   4.332  16.815  0.00  0.00    +0.000 NA
BRANCH  15  16
ATOM     16  C   UNL     1       7.039   5.253  15.960  0.00  0.00    +0.000 C 
ATOM     17  O   UNL     1       7.485   6.360  16.268  0.00  0.00    +0.000 OA
BRANCH  16  18
ATOM     18  C   UNL     1       7.054   4.879  14.517  0.00  0.00    +0.000 A 
ATOM     19  C   UNL     1       7.857   5.646  13.653  0.00  0.00    +0.000 A 
ATOM     20  C   UNL     1       7.907   5.359  12.288  0.00  0.00    +0.000 A 
ATOM     21  C   UNL     1       7.169   4.294  11.776  0.00  0.00    +0.000 A 
ATOM     22  C   UNL     1       6.384   3.514  12.626  0.00  0.00    +0.000 A 
ATOM     23  C   UNL     1       6.325   3.805  13.992  0.00  0.00    +0.000 A 
BRANCH  23  24
ATOM     24  O   UNL     1       5.566   3.008  14.802  0.00  0.00    +0.000 OA
ATOM     25  H   UNL     1       4.841   2.618  14.285  0.00  0.00    +0.000 HD
ENDBRANCH  23  24
ENDBRANCH  16  18
ENDBRANCH  15  16
ENDBRANCH   3  14
TORSDOF 5
ENDMDL
MODEL 5
REMARK VINA RESULT:      -7.7      2.426      7.151
REMARK  Name = 
REMARK  5 active torsions:
REMARK  status: ('A' for Active; 'I' for Inactive)
REMARK    1  A    between atoms: N_1  and  C_2
REMARK    2  A    between atoms: C_4  and  N_5
REMARK    3  A    between atoms: N_6  and  C_7
REMARK    4  A    between atoms: C_7  and  C_9
REMARK    5  A    between atoms: C_14  and  O_15
REMARK                            x       y       z     vdW  Elec       q    Type
REMARK                         _______ _______ _______ _____ _____    ______ ____
ROOT
ATOM      1  C   UNL     1       6.938   5.810  15.918  0.00  0.00    +0.000 A 
ATOM      2  N   UNL     1       5.854   5.417  16.676  0.00  0.00    +0.000 N 
ATOM      3  C   UNL     1       5.046   4.520  15.989  0.00  0.00    +0.000 A 
ATOM      4  C   UNL     1       5.654   4.348  14.766  0.00  0.00    +0.000 A 
ATOM      5  C   UNL     1       5.200   3.525  13.739  0.00  0.00    +0.000 A 
ATOM      6  C   UNL     1       6.070   3.589  12.628  0.00  0.00    +0.000 A 
ATOM      7  C   UNL     1       7.259   4.401  12.578  0.00  0.00    +0.000 A 
ATOM      8  C   UNL     1       7.702   5.231  13.634  0.00  0.00    +0.000 A 
ATOM      9  C   UNL     1       6.832   5.151  14.718  0.00  0.00    +0.000 A 
ATOM     10  H   UNL     1       5.655   5.727  17.613  0.00  0.00    +0.000 HD
ENDROOT
BRANCH   1  11
ATOM     11  N   UNL     1       7.841   6.679  16.406  0.00  0.00    +0.000 N 
ATOM     12  H   UNL     1       8.597   6.429  17.033  0.00  0.00    +0.000 HD
ATOM     13  H   UNL     1       7.787   7.670  16.185  0.00  0.00    +0.000 HD
ENDBRANCH   1  11
BRANCH   3  14
ATOM     14  N   UNL     1       3.914   3.984  16.513  0.00  0.00    +0.000 NA
ATOM     15  N   UNL     1       3.308   4.663  17.366  0.00  0.00    +0.000 NA
BRANCH  15  16
ATOM     16  C   UNL     1       2.174   4.015  17.819  0.00  0.00    +0.000 C 
ATOM     17  O   UNL     1       1.108   3.893  17.212  0.00  0.00    +0.000 OA
BRANCH  16  18
ATOM     18  C   UNL     1       2.246   3.471  19.205  0.00  0.00    +0.000 A 
ATOM     19  C   UNL     1       1.097   3.580  20.009  0.00  0.00    +0.000 A 
ATOM     20  C   UNL     1       1.099   3.104  21.321  0.00  0.00    +0.000 A 
ATOM     21  C   UNL     1       2.244   2.501  21.838  0.00  0.00    +0.000 A 
ATOM     22  C   UNL     1       3.384   2.369  21.044  0.00  0.00    +0.000 A 
ATOM     23  C   UNL     1       3.387   2.853  19.733  0.00  0.00    +0.000 A 
BRANCH  23  24
ATOM     24  O   UNL     1       4.511   2.688  18.972  0.00  0.00    +0.000 OA
ATOM     25  H   UNL     1       4.392   1.925  18.382  0.00  0.00    +0.000 HD
ENDBRANCH  23  24
ENDBRANCH  16  18
ENDBRANCH  15  16
ENDBRANCH   3  14
TORSDOF 5
ENDMDL
MODEL 6
REMARK VINA RESULT:      -7.7      1.204      1.498
REMARK  Name = 
REMARK  5 active torsions:
REMARK  status: ('A' for Active; 'I' for Inactive)
REMARK    1  A    between atoms: N_1  and  C_2
REMARK    2  A    between atoms: C_4  and  N_5
REMARK    3  A    between atoms: N_6  and  C_7
REMARK    4  A    between atoms: C_7  and  C_9
REMARK    5  A    between atoms: C_14  and  O_15
REMARK                            x       y       z     vdW  Elec       q    Type
REMARK                         _______ _______ _______ _____ _____    ______ ____
ROOT
ATOM      1  C   UNL     1       3.975   3.110  20.102  0.00  0.00    +0.000 A 
ATOM      2  N   UNL     1       5.042   3.157  19.227  0.00  0.00    +0.000 N 
ATOM      3  C   UNL     1       5.085   4.360  18.536  0.00  0.00    +0.000 A 
ATOM      4  C   UNL     1       4.010   5.084  19.000  0.00  0.00    +0.000 A 
ATOM      5  C   UNL     1       3.654   6.366  18.591  0.00  0.00    +0.000 A 
ATOM      6  C   UNL     1       2.499   6.804  19.277  0.00  0.00    +0.000 A 
ATOM      7  C   UNL     1       1.796   6.020  20.261  0.00  0.00    +0.000 A 
ATOM      8  C   UNL     1       2.176   4.718  20.661  0.00  0.00    +0.000 A 
ATOM      9  C   UNL     1       3.316   4.308  19.974  0.00  0.00    +0.000 A 
ATOM     10  H   UNL     1       5.720   2.424  19.095  0.00  0.00    +0.000 HD
ENDROOT
BRANCH   1  11
ATOM     11  N   UNL     1       3.759   2.025  20.866  0.00  0.00    +0.000 N 
ATOM     12  H   UNL     1       2.973   1.394  20.758  0.00  0.00    +0.000 HD
ATOM     13  H   UNL     1       4.382   1.794  21.637  0.00  0.00    +0.000 HD
ENDBRANCH   1  11
BRANCH   3  14
ATOM     14  N   UNL     1       6.037   4.657  17.614  0.00  0.00    +0.000 NA
ATOM     15  N   UNL     1       5.649   5.173  16.546  0.00  0.00    +0.000 NA
BRANCH  15  16
ATOM     16  C   UNL     1       6.706   5.433  15.693  0.00  0.00    +0.000 C 
ATOM     17  O   UNL     1       7.670   6.164  15.924  0.00  0.00    +0.000 OA
BRANCH  16  18
ATOM     18  C   UNL     1       6.620   4.807  14.343  0.00  0.00    +0.000 A 
ATOM     19  C   UNL     1       5.528   3.959  14.085  0.00  0.00    +0.000 A 
ATOM     20  C   UNL     1       5.393   3.330  12.846  0.00  0.00    +0.000 A 
ATOM     21  C   UNL     1       6.340   3.554  11.849  0.00  0.00    +0.000 A 
ATOM     22  C   UNL     1       7.418   4.408  12.086  0.00  0.00    +0.000 A 
ATOM     23  C   UNL     1       7.559   5.032  13.328  0.00  0.00    +0.000 A 
BRANCH  23  24
ATOM     24  O   UNL     1       8.613   5.881  13.522  0.00  0.00    +0.000 OA
ATOM     25  H   UNL     1       9.378   5.378  13.847  0.00  0.00    +0.000 HD
ENDBRANCH  23  24
ENDBRANCH  16  18
ENDBRANCH  15  16
ENDBRANCH   3  14
TORSDOF 5
ENDMDL
MODEL 7
REMARK VINA RESULT:      -7.6      3.748      6.974
REMARK  Name = 
REMARK  5 active torsions:
REMARK  status: ('A' for Active; 'I' for Inactive)
REMARK    1  A    between atoms: N_1  and  C_2
REMARK    2  A    between atoms: C_4  and  N_5
REMARK    3  A    between atoms: N_6  and  C_7
REMARK    4  A    between atoms: C_7  and  C_9
REMARK    5  A    between atoms: C_14  and  O_15
REMARK                            x       y       z     vdW  Elec       q    Type
REMARK                         _______ _______ _______ _____ _____    ______ ____
ROOT
ATOM      1  C   UNL     1       4.629   3.991  16.974  0.00  0.00    +0.000 A 
ATOM      2  N   UNL     1       4.596   5.367  17.075  0.00  0.00    +0.000 N 
ATOM      3  C   UNL     1       3.498   5.801  17.805  0.00  0.00    +0.000 A 
ATOM      4  C   UNL     1       2.831   4.654  18.173  0.00  0.00    +0.000 A 
ATOM      5  C   UNL     1       1.662   4.598  18.928  0.00  0.00    +0.000 A 
ATOM      6  C   UNL     1       1.257   3.258  19.117  0.00  0.00    +0.000 A 
ATOM      7  C   UNL     1       1.964   2.117  18.595  0.00  0.00    +0.000 A 
ATOM      8  C   UNL     1       3.150   2.198  17.829  0.00  0.00    +0.000 A 
ATOM      9  C   UNL     1       3.532   3.525  17.656  0.00  0.00    +0.000 A 
ATOM     10  H   UNL     1       5.275   5.998  16.679  0.00  0.00    +0.000 HD
ENDROOT
BRANCH   1  11
ATOM     11  N   UNL     1       5.618   3.374  16.303  0.00  0.00    +0.000 N 
ATOM     12  H   UNL     1       6.575   3.303  16.629  0.00  0.00    +0.000 HD
ATOM     13  H   UNL     1       5.451   2.959  15.389  0.00  0.00    +0.000 HD
ENDBRANCH   1  11
BRANCH   3  14
ATOM     14  N   UNL     1       3.233   7.111  18.048  0.00  0.00    +0.000 NA
ATOM     15  N   UNL     1       2.055   7.490  17.888  0.00  0.00    +0.000 NA
BRANCH  15  16
ATOM     16  C   UNL     1       1.911   8.835  18.168  0.00  0.00    +0.000 C 
ATOM     17  O   UNL     1       2.396   9.772  17.531  0.00  0.00    +0.000 OA
BRANCH  16  18
ATOM     18  C   UNL     1       1.144   9.163  19.404  0.00  0.00    +0.000 A 
ATOM     19  C   UNL     1       0.171  10.174  19.318  0.00  0.00    +0.000 A 
ATOM     20  C   UNL     1      -0.575  10.540  20.440  0.00  0.00    +0.000 A 
ATOM     21  C   UNL     1      -0.365   9.890  21.654  0.00  0.00    +0.000 A 
ATOM     22  C   UNL     1       0.585   8.871  21.748  0.00  0.00    +0.000 A 
ATOM     23  C   UNL     1       1.338   8.509  20.628  0.00  0.00    +0.000 A 
BRANCH  23  24
ATOM     24  O   UNL     1       2.244   7.492  20.745  0.00  0.00    +0.000 OA
ATOM     25  H   UNL     1       2.165   6.899  19.978  0.00  0.00    +0.000 HD
ENDBRANCH  23  24
ENDBRANCH  16  18
ENDBRANCH  15  16
ENDBRANCH   3  14
TORSDOF 5
ENDMDL
MODEL 8
REMARK VINA RESULT:      -7.6      2.619      6.848
REMARK  Name = 
REMARK  5 active torsions:
REMARK  status: ('A' for Active; 'I' for Inactive)
REMARK    1  A    between atoms: N_1  and  C_2
REMARK    2  A    between atoms: C_4  and  N_5
REMARK    3  A    between atoms: N_6  and  C_7
REMARK    4  A    between atoms: C_7  and  C_9
REMARK    5  A    between atoms: C_14  and  O_15
REMARK                            x       y       z     vdW  Elec       q    Type
REMARK                         _______ _______ _______ _____ _____    ______ ____
ROOT
ATOM      1  C   UNL     1       6.906   6.436  17.127  0.00  0.00    +0.000 A 
ATOM      2  N   UNL     1       6.222   5.893  18.196  0.00  0.00    +0.000 N 
ATOM      3  C   UNL     1       5.571   4.719  17.843  0.00  0.00    +0.000 A 
ATOM      4  C   UNL     1       5.866   4.526  16.512  0.00  0.00    +0.000 A 
ATOM      5  C   UNL     1       5.429   3.462  15.727  0.00  0.00    +0.000 A 
ATOM      6  C   UNL     1       5.923   3.582  14.409  0.00  0.00    +0.000 A 
ATOM      7  C   UNL     1       6.761   4.661  13.954  0.00  0.00    +0.000 A 
ATOM      8  C   UNL     1       7.192   5.733  14.770  0.00  0.00    +0.000 A 
ATOM      9  C   UNL     1       6.696   5.595  16.063  0.00  0.00    +0.000 A 
ATOM     10  H   UNL     1       6.188   6.281  19.125  0.00  0.00    +0.000 HD
ENDROOT
BRANCH   1  11
ATOM     11  N   UNL     1       7.602   7.578  17.265  0.00  0.00    +0.000 N 
ATOM     12  H   UNL     1       7.185   8.488  17.428  0.00  0.00    +0.000 HD
ATOM     13  H   UNL     1       8.616   7.588  17.179  0.00  0.00    +0.000 HD
ENDBRANCH   1  11
BRANCH   3  14
ATOM     14  N   UNL     1       4.825   3.989  18.713  0.00  0.00    +0.000 NA
ATOM     15  N   UNL     1       5.435   3.179  19.441  0.00  0.00    +0.000 NA
BRANCH  15  16
ATOM     16  C   UNL     1       4.572   2.502  20.282  0.00  0.00    +0.000 C 
ATOM     17  O   UNL     1       4.888   1.735  21.193  0.00  0.00    +0.000 OA
BRANCH  16  18
ATOM     18  C   UNL     1       3.118   2.681  20.002  0.00  0.00    +0.000 A 
ATOM     19  C   UNL     1       2.375   3.473  20.895  0.00  0.00    +0.000 A 
ATOM     20  C   UNL     1       1.007   3.672  20.700  0.00  0.00    +0.000 A 
ATOM     21  C   UNL     1       0.372   3.094  19.604  0.00  0.00    +0.000 A 
ATOM     22  C   UNL     1       1.103   2.321  18.699  0.00  0.00    +0.000 A 
ATOM     23  C   UNL     1       2.471   2.114  18.897  0.00  0.00    +0.000 A 
BRANCH  23  24
ATOM     24  O   UNL     1       3.164   1.372  17.981  0.00  0.00    +0.000 OA
ATOM     25  H   UNL     1       2.629   0.605  17.717  0.00  0.00    +0.000 HD
ENDBRANCH  23  24
ENDBRANCH  16  18
ENDBRANCH  15  16
ENDBRANCH   3  14
TORSDOF 5
ENDMDL
MODEL 9
REMARK VINA RESULT:      -7.6      1.797      2.949
REMARK  Name = 
REMARK  5 active torsions:
REMARK  status: ('A' for Active; 'I' for Inactive)
REMARK    1  A    between atoms: N_1  and  C_2
REMARK    2  A    between atoms: C_4  and  N_5
REMARK    3  A    between atoms: N_6  and  C_7
REMARK    4  A    between atoms: C_7  and  C_9
REMARK    5  A    between atoms: C_14  and  O_15
REMARK                            x       y       z     vdW  Elec       q    Type
REMARK                         _______ _______ _______ _____ _____    ______ ____
ROOT
ATOM      1  C   UNL     1       2.800   7.379  18.260  0.00  0.00    +0.000 A 
ATOM      2  N   UNL     1       3.849   6.951  17.472  0.00  0.00    +0.000 N 
ATOM      3  C   UNL     1       4.309   5.702  17.867  0.00  0.00    +0.000 A 
ATOM      4  C   UNL     1       3.514   5.342  18.932  0.00  0.00    +0.000 A 
ATOM      5  C   UNL     1       3.606   4.154  19.652  0.00  0.00    +0.000 A 
ATOM      6  C   UNL     1       2.633   4.117  20.676  0.00  0.00    +0.000 A 
ATOM      7  C   UNL     1       1.684   5.171  20.928  0.00  0.00    +0.000 A 
ATOM      8  C   UNL     1       1.609   6.371  20.183  0.00  0.00    +0.000 A 
ATOM      9  C   UNL     1       2.574   6.385  19.180  0.00  0.00    +0.000 A 
ATOM     10  H   UNL     1       4.246   7.463  16.701  0.00  0.00    +0.000 HD
ENDROOT
BRANCH   1  11
ATOM     11  N   UNL     1       2.214   8.569  18.039  0.00  0.00    +0.000 N 
ATOM     12  H   UNL     1       2.603   9.300  17.454  0.00  0.00    +0.000 HD
ATOM     13  H   UNL     1       1.335   8.813  18.489  0.00  0.00    +0.000 HD
ENDBRANCH   1  11
BRANCH   3  14
ATOM     14  N   UNL     1       5.337   5.058  17.255  0.00  0.00    +0.000 NA
ATOM     15  N   UNL     1       5.876   5.639  16.292  0.00  0.00    +0.000 NA
BRANCH  15  16
ATOM     16  C   UNL     1       6.907   4.889  15.758  0.00  0.00    +0.000 C 
ATOM     17  O   UNL     1       7.930   4.528  16.344  0.00  0.00    +0.000 OA
BRANCH  16  18
ATOM     18  C   UNL     1       6.781   4.545  14.313  0.00  0.00    +0.000 A 
ATOM     19  C   UNL     1       5.722   3.702  13.934  0.00  0.00    +0.000 A 
ATOM     20  C   UNL     1       5.552   3.330  12.599  0.00  0.00    +0.000 A 
ATOM     21  C   UNL     1       6.430   3.809  11.629  0.00  0.00    +0.000 A 
ATOM     22  C   UNL     1       7.474   4.662  11.990  0.00  0.00    +0.000 A 
ATOM     23  C   UNL     1       7.650   5.029  13.327  0.00  0.00    +0.000 A 
BRANCH  23  24
ATOM     24  O   UNL     1       8.667   5.885  13.646  0.00  0.00    +0.000 OA
ATOM     25  H   UNL     1       9.436   5.374  13.950  0.00  0.00    +0.000 HD
ENDBRANCH  23  24
ENDBRANCH  16  18
ENDBRANCH  15  16
ENDBRANCH   3  14
TORSDOF 5
ENDMDL
