MODEL 1
REMARK VINA RESULT:      -9.2      0.000      0.000
REMARK  Name = 
REMARK  11 active torsions:
REMARK  status: ('A' for Active; 'I' for Inactive)
REMARK    1  A    between atoms: C_1  and  C_2
REMARK    2  A    between atoms: C_2  and  C_3
REMARK    3  A    between atoms: C_3  and  C_4
REMARK    4  A    between atoms: C_4  and  C_5
REMARK    5  A    between atoms: C_7  and  C_8
REMARK    6  A    between atoms: C_11  and  O_12
REMARK    7  A    between atoms: C_15  and  C_16
REMARK    8  A    between atoms: C_16  and  C_17
REMARK    9  A    between atoms: C_20  and  C_21
REMARK   10  A    between atoms: C_26  and  C_27
REMARK   11  A    between atoms: C_27  and  O_29
REMARK                            x       y       z     vdW  Elec       q    Type
REMARK                         _______ _______ _______ _____ _____    ______ ____
ROOT
ATOM      1  C   UNL     1       3.059   5.686  19.900  0.00  0.00    +0.000 C 
ENDROOT
BRANCH   1  11
ATOM      2  C   UNL     1       3.333   4.318  17.753  0.00  0.00    +0.000 A 
ATOM      3  N   UNL     1       4.065   3.863  16.659  0.00  0.00    +0.000 NA
ATOM      4  C   UNL     1       5.350   4.033  16.657  0.00  0.00    +0.000 A 
ATOM      5  C   UNL     1       6.222   3.650  15.509  0.00  0.00    +0.000 C 
ATOM      6  N   UNL     1       5.986   4.590  17.748  0.00  0.00    +0.000 N 
ATOM      7  N   UNL     1       7.323   4.684  17.913  0.00  0.00    +0.000 NA
ATOM      8  C   UNL     1       7.360   5.227  19.125  0.00  0.00    +0.000 A 
ATOM      9  N   UNL     1       6.179   5.527  19.714  0.00  0.00    +0.000 NA
ATOM     10  C   UNL     1       5.309   5.075  18.836  0.00  0.00    +0.000 A 
ATOM     11  C   UNL     1       3.877   4.978  18.826  0.00  0.00    +0.000 A 
BRANCH   8  12
ATOM     12  O   UNL     1       8.577   5.370  19.639  0.00  0.00    +0.000 OA
ATOM     13  H   UNL     1       8.451   5.920  20.428  0.00  0.00    +0.000 HD
ENDBRANCH   8  12
BRANCH   2  14
ATOM     14  C   UNL     1       1.868   3.920  17.606  0.00  0.00    +0.000 C 
BRANCH  14  15
ATOM     15  C   UNL     1       1.370   2.745  18.455  0.00  0.00    +0.000 C 
BRANCH  15  17
ATOM     16  C   UNL     1       1.450   2.679  21.035  0.00  0.00    +0.000 C 
ATOM     17  C   UNL     1       0.672   3.059  19.784  0.00  0.00    +0.000 C 
ENDBRANCH  15  17
ENDBRANCH  14  15
ENDBRANCH   2  14
ENDBRANCH   1  11
BRANCH   1  18
ATOM     18  C   UNL     1       2.479   7.052  19.577  0.00  0.00    +0.000 A 
ATOM     19  C   UNL     1       2.558   7.646  18.302  0.00  0.00    +0.000 A 
ATOM     20  C   UNL     1       1.834   8.822  17.989  0.00  0.00    +0.000 A 
ATOM     21  C   UNL     1       1.030   9.439  18.955  0.00  0.00    +0.000 A 
ATOM     22  C   UNL     1       1.026   8.866  20.238  0.00  0.00    +0.000 A 
ATOM     23  C   UNL     1       1.726   7.701  20.549  0.00  0.00    +0.000 A 
BRANCH  21  24
ATOM     24  C   UNL     1       0.143  10.624  18.741  0.00  0.00    +0.000 A 
ATOM     25  C   UNL     1      -1.127  10.354  18.157  0.00  0.00    +0.000 A 
ATOM     26  C   UNL     1      -2.160  11.289  18.116  0.00  0.00    +0.000 A 
ATOM     27  C   UNL     1      -1.938  12.570  18.587  0.00  0.00    +0.000 A 
ATOM     28  C   UNL     1      -0.676  12.907  19.075  0.00  0.00    +0.000 A 
ATOM     29  C   UNL     1       0.365  11.951  19.172  0.00  0.00    +0.000 A 
BRANCH  29  30
ATOM     30  C   UNL     1       1.618  12.486  19.776  0.00  0.00    +0.000 C 
ATOM     31  O   UNL     1       2.478  13.036  19.103  0.00  0.00    +0.000 OA
BRANCH  30  32
ATOM     32  O   UNL     1       1.673  12.440  21.118  0.00  0.00    +0.000 OA
ATOM     33  H   UNL     1       0.977  11.911  21.551  0.00  0.00    +0.000 HD
ENDBRANCH  30  32
ENDBRANCH  29  30
ENDBRANCH  21  24
ENDBRANCH   1  18
TORSDOF 9
ENDMDL
MODEL 2
REMARK VINA RESULT:      -9.0      2.731      4.432
REMARK  Name = 
REMARK  11 active torsions:
REMARK  status: ('A' for Active; 'I' for Inactive)
REMARK    1  A    between atoms: C_1  and  C_2
REMARK    2  A    between atoms: C_2  and  C_3
REMARK    3  A    between atoms: C_3  and  C_4
REMARK    4  A    between atoms: C_4  and  C_5
REMARK    5  A    between atoms: C_7  and  C_8
REMARK    6  A    between atoms: C_11  and  O_12
REMARK    7  A    between atoms: C_15  and  C_16
REMARK    8  A    between atoms: C_16  and  C_17
REMARK    9  A    between atoms: C_20  and  C_21
REMARK   10  A    between atoms: C_26  and  C_27
REMARK   11  A    between atoms: C_27  and  O_29
REMARK                            x       y       z     vdW  Elec       q    Type
REMARK                         _______ _______ _______ _____ _____    ______ ____
ROOT
ATOM      1  C   UNL     1       3.361   6.569  17.637  0.00  0.00    +0.000 C 
ENDROOT
BRANCH   1  11
ATOM      2  C   UNL     1       5.054   4.918  18.619  0.00  0.00    +0.000 A 
ATOM      3  N   UNL     1       5.397   3.787  19.354  0.00  0.00    +0.000 NA
ATOM      4  C   UNL     1       4.466   2.939  19.662  0.00  0.00    +0.000 A 
ATOM      5  C   UNL     1       4.708   1.732  20.506  0.00  0.00    +0.000 C 
ATOM      6  N   UNL     1       3.175   3.120  19.210  0.00  0.00    +0.000 N 
ATOM      7  N   UNL     1       2.164   2.236  19.348  0.00  0.00    +0.000 NA
ATOM      8  C   UNL     1       1.208   2.886  18.694  0.00  0.00    +0.000 A 
ATOM      9  N   UNL     1       1.507   4.111  18.202  0.00  0.00    +0.000 NA
ATOM     10  C   UNL     1       2.782   4.228  18.506  0.00  0.00    +0.000 A 
ATOM     11  C   UNL     1       3.776   5.225  18.226  0.00  0.00    +0.000 A 
BRANCH   8  12
ATOM     12  O   UNL     1       0.066   2.220  18.562  0.00  0.00    +0.000 OA
ATOM     13  H   UNL     1      -0.199   1.999  19.468  0.00  0.00    +0.000 HD
ENDBRANCH   8  12
BRANCH   2  14
ATOM     14  C   UNL     1       6.306   5.717  18.271  0.00  0.00    +0.000 C 
BRANCH  14  15
ATOM     15  C   UNL     1       7.366   5.022  17.408  0.00  0.00    +0.000 C 
BRANCH  15  17
ATOM     16  C   UNL     1       6.026   3.976  15.464  0.00  0.00    +0.000 C 
ATOM     17  C   UNL     1       7.124   4.937  15.896  0.00  0.00    +0.000 C 
ENDBRANCH  15  17
ENDBRANCH  14  15
ENDBRANCH   2  14
ENDBRANCH   1  11
BRANCH   1  18
ATOM     18  C   UNL     1       2.436   7.454  18.453  0.00  0.00    +0.000 A 
ATOM     19  C   UNL     1       2.227   7.291  19.837  0.00  0.00    +0.000 A 
ATOM     20  C   UNL     1       1.520   8.256  20.596  0.00  0.00    +0.000 A 
ATOM     21  C   UNL     1       0.990   9.396  19.980  0.00  0.00    +0.000 A 
ATOM     22  C   UNL     1       1.152   9.497  18.587  0.00  0.00    +0.000 A 
ATOM     23  C   UNL     1       1.857   8.558  17.836  0.00  0.00    +0.000 A 
BRANCH  21  24
ATOM     24  C   UNL     1       0.306  10.535  20.666  0.00  0.00    +0.000 A 
ATOM     25  C   UNL     1       0.065  11.688  19.869  0.00  0.00    +0.000 A 
ATOM     26  C   UNL     1      -0.770  12.730  20.270  0.00  0.00    +0.000 A 
ATOM     27  C   UNL     1      -1.337  12.700  21.531  0.00  0.00    +0.000 A 
ATOM     28  C   UNL     1      -1.046  11.636  22.384  0.00  0.00    +0.000 A 
ATOM     29  C   UNL     1      -0.243  10.546  21.968  0.00  0.00    +0.000 A 
BRANCH  29  30
ATOM     30  C   UNL     1      -0.098   9.479  22.998  0.00  0.00    +0.000 C 
ATOM     31  O   UNL     1       0.743   9.544  23.883  0.00  0.00    +0.000 OA
BRANCH  30  32
ATOM     32  O   UNL     1      -1.036   8.517  22.964  0.00  0.00    +0.000 OA
ATOM     33  H   UNL     1      -1.450   8.302  23.821  0.00  0.00    +0.000 HD
ENDBRANCH  30  32
ENDBRANCH  29  30
ENDBRANCH  21  24
ENDBRANCH   1  18
TORSDOF 9
ENDMDL
MODEL 3
REMARK VINA RESULT:      -9.0      2.659      4.282
REMARK  Name = 
REMARK  11 active torsions:
REMARK  status: ('A' for Active; 'I' for Inactive)
REMARK    1  A    between atoms: C_1  and  C_2
REMARK    2  A    between atoms: C_2  and  C_3
REMARK    3  A    between atoms: C_3  and  C_4
REMARK    4  A    between atoms: C_4  and  C_5
REMARK    5  A    between atoms: C_7  and  C_8
REMARK    6  A    between atoms: C_11  and  O_12
REMARK    7  A    between atoms: C_15  and  C_16
REMARK    8  A    between atoms: C_16  and  C_17
REMARK    9  A    between atoms: C_20  and  C_21
REMARK   10  A    between atoms: C_26  and  C_27
REMARK   11  A    between atoms: C_27  and  O_29
REMARK                            x       y       z     vdW  Elec       q    Type
REMARK                         _______ _______ _______ _____ _____    ______ ____
ROOT
ATOM      1  C   UNL     1       3.342   6.429  17.438  0.00  0.00    +0.000 C 
ENDROOT
BRANCH   1  11
ATOM      2  C   UNL     1       5.068   4.907  18.560  0.00  0.00    +0.000 A 
ATOM      3  N   UNL     1       5.432   3.819  19.349  0.00  0.00    +0.000 NA
ATOM      4  C   UNL     1       4.534   2.930  19.636  0.00  0.00    +0.000 A 
ATOM      5  C   UNL     1       4.795   1.764  20.530  0.00  0.00    +0.000 C 
ATOM      6  N   UNL     1       3.261   3.024  19.112  0.00  0.00    +0.000 N 
ATOM      7  N   UNL     1       2.293   2.089  19.226  0.00  0.00    +0.000 NA
ATOM      8  C   UNL     1       1.340   2.665  18.503  0.00  0.00    +0.000 A 
ATOM      9  N   UNL     1       1.598   3.890  17.987  0.00  0.00    +0.000 NA
ATOM     10  C   UNL     1       2.846   4.087  18.352  0.00  0.00    +0.000 A 
ATOM     11  C   UNL     1       3.798   5.129  18.091  0.00  0.00    +0.000 A 
BRANCH   8  12
ATOM     12  O   UNL     1       0.244   1.932  18.333  0.00  0.00    +0.000 OA
ATOM     13  H   UNL     1       0.438   1.090  18.773  0.00  0.00    +0.000 HD
ENDBRANCH   8  12
BRANCH   2  14
ATOM     14  C   UNL     1       6.291   5.764  18.252  0.00  0.00    +0.000 C 
BRANCH  14  15
ATOM     15  C   UNL     1       6.826   5.734  16.815  0.00  0.00    +0.000 C 
BRANCH  15  17
ATOM     16  C   UNL     1       5.812   4.336  14.895  0.00  0.00    +0.000 C 
ATOM     17  C   UNL     1       6.791   4.401  16.058  0.00  0.00    +0.000 C 
ENDBRANCH  15  17
ENDBRANCH  14  15
ENDBRANCH   2  14
ENDBRANCH   1  11
BRANCH   1  18
ATOM     18  C   UNL     1       2.636   7.458  18.304  0.00  0.00    +0.000 A 
ATOM     19  C   UNL     1       2.093   8.656  17.799  0.00  0.00    +0.000 A 
ATOM     20  C   UNL     1       1.270   9.487  18.597  0.00  0.00    +0.000 A 
ATOM     21  C   UNL     1       0.990   9.146  19.925  0.00  0.00    +0.000 A 
ATOM     22  C   UNL     1       1.603   7.984  20.424  0.00  0.00    +0.000 A 
ATOM     23  C   UNL     1       2.403   7.154  19.641  0.00  0.00    +0.000 A 
BRANCH  21  24
ATOM     24  C   UNL     1       0.069   9.876  20.850  0.00  0.00    +0.000 A 
ATOM     25  C   UNL     1      -0.072   9.323  22.154  0.00  0.00    +0.000 A 
ATOM     26  C   UNL     1      -0.685  10.000  23.207  0.00  0.00    +0.000 A 
ATOM     27  C   UNL     1      -1.261  11.236  22.976  0.00  0.00    +0.000 A 
ATOM     28  C   UNL     1      -1.236  11.771  21.688  0.00  0.00    +0.000 A 
ATOM     29  C   UNL     1      -0.568  11.116  20.624  0.00  0.00    +0.000 A 
BRANCH  29  30
ATOM     30  C   UNL     1      -0.598  11.873  19.341  0.00  0.00    +0.000 C 
ATOM     31  O   UNL     1      -1.477  11.702  18.508  0.00  0.00    +0.000 OA
BRANCH  30  32
ATOM     32  O   UNL     1       0.324  12.844  19.226  0.00  0.00    +0.000 OA
ATOM     33  H   UNL     1       1.149  12.703  19.727  0.00  0.00    +0.000 HD
ENDBRANCH  30  32
ENDBRANCH  29  30
ENDBRANCH  21  24
ENDBRANCH   1  18
TORSDOF 9
ENDMDL
MODEL 4
REMARK VINA RESULT:      -9.0      1.542      2.037
REMARK  Name = 
REMARK  11 active torsions:
REMARK  status: ('A' for Active; 'I' for Inactive)
REMARK    1  A    between atoms: C_1  and  C_2
REMARK    2  A    between atoms: C_2  and  C_3
REMARK    3  A    between atoms: C_3  and  C_4
REMARK    4  A    between atoms: C_4  and  C_5
REMARK    5  A    between atoms: C_7  and  C_8
REMARK    6  A    between atoms: C_11  and  O_12
REMARK    7  A    between atoms: C_15  and  C_16
REMARK    8  A    between atoms: C_16  and  C_17
REMARK    9  A    between atoms: C_20  and  C_21
REMARK   10  A    between atoms: C_26  and  C_27
REMARK   11  A    between atoms: C_27  and  O_29
REMARK                            x       y       z     vdW  Elec       q    Type
REMARK                         _______ _______ _______ _____ _____    ______ ____
ROOT
ATOM      1  C   UNL     1       2.808   5.635  19.782  0.00  0.00    +0.000 C 
ENDROOT
BRANCH   1  11
ATOM      2  C   UNL     1       3.209   4.230  17.679  0.00  0.00    +0.000 A 
ATOM      3  N   UNL     1       3.982   3.809  16.599  0.00  0.00    +0.000 NA
ATOM      4  C   UNL     1       5.246   4.095  16.590  0.00  0.00    +0.000 A 
ATOM      5  C   UNL     1       6.151   3.756  15.453  0.00  0.00    +0.000 C 
ATOM      6  N   UNL     1       5.827   4.741  17.662  0.00  0.00    +0.000 N 
ATOM      7  N   UNL     1       7.150   4.961  17.823  0.00  0.00    +0.000 NA
ATOM      8  C   UNL     1       7.135   5.544  19.016  0.00  0.00    +0.000 A 
ATOM      9  N   UNL     1       5.930   5.754  19.597  0.00  0.00    +0.000 NA
ATOM     10  C   UNL     1       5.107   5.198  18.735  0.00  0.00    +0.000 A 
ATOM     11  C   UNL     1       3.690   4.970  18.729  0.00  0.00    +0.000 A 
BRANCH   8  12
ATOM     12  O   UNL     1       8.333   5.814  19.524  0.00  0.00    +0.000 OA
ATOM     13  H   UNL     1       8.603   4.997  19.972  0.00  0.00    +0.000 HD
ENDBRANCH   8  12
BRANCH   2  14
ATOM     14  C   UNL     1       1.787   3.696  17.546  0.00  0.00    +0.000 C 
BRANCH  14  15
ATOM     15  C   UNL     1       1.381   2.540  18.468  0.00  0.00    +0.000 C 
BRANCH  15  17
ATOM     16  C   UNL     1       1.309   2.727  21.042  0.00  0.00    +0.000 C 
ATOM     17  C   UNL     1       0.564   2.869  19.723  0.00  0.00    +0.000 C 
ENDBRANCH  15  17
ENDBRANCH  14  15
ENDBRANCH   2  14
ENDBRANCH   1  11
BRANCH   1  18
ATOM     18  C   UNL     1       2.382   7.074  19.555  0.00  0.00    +0.000 A 
ATOM     19  C   UNL     1       2.499   7.732  18.315  0.00  0.00    +0.000 A 
ATOM     20  C   UNL     1       1.906   8.999  18.092  0.00  0.00    +0.000 A 
ATOM     21  C   UNL     1       1.201   9.643  19.115  0.00  0.00    +0.000 A 
ATOM     22  C   UNL     1       1.161   8.997  20.362  0.00  0.00    +0.000 A 
ATOM     23  C   UNL     1       1.730   7.744  20.585  0.00  0.00    +0.000 A 
BRANCH  21  24
ATOM     24  C   UNL     1       0.450  10.931  18.995  0.00  0.00    +0.000 A 
ATOM     25  C   UNL     1       1.118  12.089  19.484  0.00  0.00    +0.000 A 
ATOM     26  C   UNL     1       0.677  13.387  19.230  0.00  0.00    +0.000 A 
ATOM     27  C   UNL     1      -0.506  13.580  18.541  0.00  0.00    +0.000 A 
ATOM     28  C   UNL     1      -1.246  12.471  18.132  0.00  0.00    +0.000 A 
ATOM     29  C   UNL     1      -0.780  11.149  18.337  0.00  0.00    +0.000 A 
BRANCH  29  30
ATOM     30  C   UNL     1      -1.679  10.102  17.775  0.00  0.00    +0.000 C 
ATOM     31  O   UNL     1      -2.740   9.805  18.307  0.00  0.00    +0.000 OA
BRANCH  30  32
ATOM     32  O   UNL     1      -1.309   9.608  16.581  0.00  0.00    +0.000 OA
ATOM     33  H   UNL     1      -1.182   8.641  16.546  0.00  0.00    +0.000 HD
ENDBRANCH  30  32
ENDBRANCH  29  30
ENDBRANCH  21  24
ENDBRANCH   1  18
TORSDOF 9
ENDMDL
MODEL 5
REMARK VINA RESULT:      -8.8      2.809      4.585
REMARK  Name = 
REMARK  11 active torsions:
REMARK  status: ('A' for Active; 'I' for Inactive)
REMARK    1  A    between atoms: C_1  and  C_2
REMARK    2  A    between atoms: C_2  and  C_3
REMARK    3  A    between atoms: C_3  and  C_4
REMARK    4  A    between atoms: C_4  and  C_5
REMARK    5  A    between atoms: C_7  and  C_8
REMARK    6  A    between atoms: C_11  and  O_12
REMARK    7  A    between atoms: C_15  and  C_16
REMARK    8  A    between atoms: C_16  and  C_17
REMARK    9  A    between atoms: C_20  and  C_21
REMARK   10  A    between atoms: C_26  and  C_27
REMARK   11  A    between atoms: C_27  and  O_29
REMARK                            x       y       z     vdW  Elec       q    Type
REMARK                         _______ _______ _______ _____ _____    ______ ____
ROOT
ATOM      1  C   UNL     1       3.350   6.517  17.621  0.00  0.00    +0.000 C 
ENDROOT
BRANCH   1  11
ATOM      2  C   UNL     1       5.053   4.800  18.461  0.00  0.00    +0.000 A 
ATOM      3  N   UNL     1       5.418   3.675  19.197  0.00  0.00    +0.000 NA
ATOM      4  C   UNL     1       4.484   2.898  19.649  0.00  0.00    +0.000 A 
ATOM      5  C   UNL     1       4.757   1.708  20.507  0.00  0.00    +0.000 C 
ATOM      6  N   UNL     1       3.160   3.143  19.347  0.00  0.00    +0.000 N 
ATOM      7  N   UNL     1       2.124   2.327  19.642  0.00  0.00    +0.000 NA
ATOM      8  C   UNL     1       1.135   3.013  19.080  0.00  0.00    +0.000 A 
ATOM      9  N   UNL     1       1.442   4.200  18.505  0.00  0.00    +0.000 NA
ATOM     10  C   UNL     1       2.748   4.248  18.650  0.00  0.00    +0.000 A 
ATOM     11  C   UNL     1       3.756   5.171  18.211  0.00  0.00    +0.000 A 
BRANCH   8  12
ATOM     12  O   UNL     1      -0.051   2.415  19.113  0.00  0.00    +0.000 OA
ATOM     13  H   UNL     1       0.087   1.618  19.649  0.00  0.00    +0.000 HD
ENDBRANCH   8  12
BRANCH   2  14
ATOM     14  C   UNL     1       6.296   5.507  17.934  0.00  0.00    +0.000 C 
BRANCH  14  15
ATOM     15  C   UNL     1       7.365   5.909  18.959  0.00  0.00    +0.000 C 
BRANCH  15  17
ATOM     16  C   UNL     1       7.693   8.071  17.586  0.00  0.00    +0.000 C 
ATOM     17  C   UNL     1       8.239   7.130  18.650  0.00  0.00    +0.000 C 
ENDBRANCH  15  17
ENDBRANCH  14  15
ENDBRANCH   2  14
ENDBRANCH   1  11
BRANCH   1  18
ATOM     18  C   UNL     1       2.442   7.415  18.442  0.00  0.00    +0.000 A 
ATOM     19  C   UNL     1       2.276   7.286  19.835  0.00  0.00    +0.000 A 
ATOM     20  C   UNL     1       1.583   8.264  20.590  0.00  0.00    +0.000 A 
ATOM     21  C   UNL     1       1.024   9.383  19.962  0.00  0.00    +0.000 A 
ATOM     22  C   UNL     1       1.143   9.450  18.563  0.00  0.00    +0.000 A 
ATOM     23  C   UNL     1       1.835   8.498  17.815  0.00  0.00    +0.000 A 
BRANCH  21  24
ATOM     24  C   UNL     1       0.351  10.534  20.639  0.00  0.00    +0.000 A 
ATOM     25  C   UNL     1       0.142  11.692  19.840  0.00  0.00    +0.000 A 
ATOM     26  C   UNL     1      -0.680  12.748  20.229  0.00  0.00    +0.000 A 
ATOM     27  C   UNL     1      -1.267  12.727  21.481  0.00  0.00    +0.000 A 
ATOM     28  C   UNL     1      -1.007  11.658  22.338  0.00  0.00    +0.000 A 
ATOM     29  C   UNL     1      -0.217  10.554  21.932  0.00  0.00    +0.000 A 
BRANCH  29  30
ATOM     30  C   UNL     1      -0.107   9.484  22.963  0.00  0.00    +0.000 C 
ATOM     31  O   UNL     1       0.653   9.580  23.917  0.00  0.00    +0.000 OA
BRANCH  30  32
ATOM     32  O   UNL     1      -0.990   8.477  22.843  0.00  0.00    +0.000 OA
ATOM     33  H   UNL     1      -1.422   8.195  23.671  0.00  0.00    +0.000 HD
ENDBRANCH  30  32
ENDBRANCH  29  30
ENDBRANCH  21  24
ENDBRANCH   1  18
TORSDOF 9
ENDMDL
MODEL 6
REMARK VINA RESULT:      -8.7      1.505      2.147
REMARK  Name = 
REMARK  11 active torsions:
REMARK  status: ('A' for Active; 'I' for Inactive)
REMARK    1  A    between atoms: C_1  and  C_2
REMARK    2  A    between atoms: C_2  and  C_3
REMARK    3  A    between atoms: C_3  and  C_4
REMARK    4  A    between atoms: C_4  and  C_5
REMARK    5  A    between atoms: C_7  and  C_8
REMARK    6  A    between atoms: C_11  and  O_12
REMARK    7  A    between atoms: C_15  and  C_16
REMARK    8  A    between atoms: C_16  and  C_17
REMARK    9  A    between atoms: C_20  and  C_21
REMARK   10  A    between atoms: C_26  and  C_27
REMARK   11  A    between atoms: C_27  and  O_29
REMARK                            x       y       z     vdW  Elec       q    Type
REMARK                         _______ _______ _______ _____ _____    ______ ____
ROOT
ATOM      1  C   UNL     1       2.988   5.712  20.102  0.00  0.00    +0.000 C 
ENDROOT
BRANCH   1  11
ATOM      2  C   UNL     1       3.113   4.535  17.832  0.00  0.00    +0.000 A 
ATOM      3  N   UNL     1       3.768   4.179  16.656  0.00  0.00    +0.000 NA
ATOM      4  C   UNL     1       5.050   4.356  16.580  0.00  0.00    +0.000 A 
ATOM      5  C   UNL     1       5.841   4.077  15.345  0.00  0.00    +0.000 C 
ATOM      6  N   UNL     1       5.760   4.821  17.668  0.00  0.00    +0.000 N 
ATOM      7  N   UNL     1       7.106   4.908  17.748  0.00  0.00    +0.000 NA
ATOM      8  C   UNL     1       7.226   5.346  18.997  0.00  0.00    +0.000 A 
ATOM      9  N   UNL     1       6.088   5.587  19.689  0.00  0.00    +0.000 NA
ATOM     10  C   UNL     1       5.160   5.208  18.837  0.00  0.00    +0.000 A 
ATOM     11  C   UNL     1       3.731   5.103  18.917  0.00  0.00    +0.000 A 
BRANCH   8  12
ATOM     12  O   UNL     1       8.476   5.451  19.436  0.00  0.00    +0.000 OA
ATOM     13  H   UNL     1       8.971   5.825  18.690  0.00  0.00    +0.000 HD
ENDBRANCH   8  12
BRANCH   2  14
ATOM     14  C   UNL     1       1.642   4.143  17.752  0.00  0.00    +0.000 C 
BRANCH  14  15
ATOM     15  C   UNL     1       1.189   2.938  18.586  0.00  0.00    +0.000 C 
BRANCH  15  17
ATOM     16  C   UNL     1       1.471   2.627  21.133  0.00  0.00    +0.000 C 
ATOM     17  C   UNL     1       0.641   3.198  19.994  0.00  0.00    +0.000 C 
ENDBRANCH  15  17
ENDBRANCH  14  15
ENDBRANCH   2  14
ENDBRANCH   1  11
BRANCH   1  18
ATOM     18  C   UNL     1       2.187   6.981  19.871  0.00  0.00    +0.000 A 
ATOM     19  C   UNL     1       1.337   7.549  20.840  0.00  0.00    +0.000 A 
ATOM     20  C   UNL     1       0.768   8.833  20.662  0.00  0.00    +0.000 A 
ATOM     21  C   UNL     1       1.022   9.568  19.497  0.00  0.00    +0.000 A 
ATOM     22  C   UNL     1       1.814   8.947  18.516  0.00  0.00    +0.000 A 
ATOM     23  C   UNL     1       2.388   7.689  18.691  0.00  0.00    +0.000 A 
BRANCH  21  24
ATOM     24  C   UNL     1       0.567  10.964  19.216  0.00  0.00    +0.000 A 
ATOM     25  C   UNL     1       1.431  12.003  19.661  0.00  0.00    +0.000 A 
ATOM     26  C   UNL     1       1.288  13.333  19.269  0.00  0.00    +0.000 A 
ATOM     27  C   UNL     1       0.216  13.697  18.475  0.00  0.00    +0.000 A 
ATOM     28  C   UNL     1      -0.713  12.727  18.099  0.00  0.00    +0.000 A 
ATOM     29  C   UNL     1      -0.548  11.364  18.446  0.00  0.00    +0.000 A 
BRANCH  29  30
ATOM     30  C   UNL     1      -1.611  10.473  17.900  0.00  0.00    +0.000 C 
ATOM     31  O   UNL     1      -1.374   9.630  17.047  0.00  0.00    +0.000 OA
BRANCH  30  32
ATOM     32  O   UNL     1      -2.808  10.571  18.504  0.00  0.00    +0.000 OA
ATOM     33  H   UNL     1      -3.488  11.070  18.013  0.00  0.00    +0.000 HD
ENDBRANCH  30  32
ENDBRANCH  29  30
ENDBRANCH  21  24
ENDBRANCH   1  18
TORSDOF 9
ENDMDL
MODEL 7
REMARK VINA RESULT:      -8.7      1.266      1.414
REMARK  Name = 
REMARK  11 active torsions:
REMARK  status: ('A' for Active; 'I' for Inactive)
REMARK    1  A    between atoms: C_1  and  C_2
REMARK    2  A    between atoms: C_2  and  C_3
REMARK    3  A    between atoms: C_3  and  C_4
REMARK    4  A    between atoms: C_4  and  C_5
REMARK    5  A    between atoms: C_7  and  C_8
REMARK    6  A    between atoms: C_11  and  O_12
REMARK    7  A    between atoms: C_15  and  C_16
REMARK    8  A    between atoms: C_16  and  C_17
REMARK    9  A    between atoms: C_20  and  C_21
REMARK   10  A    between atoms: C_26  and  C_27
REMARK   11  A    between atoms: C_27  and  O_29
REMARK                            x       y       z     vdW  Elec       q    Type
REMARK                         _______ _______ _______ _____ _____    ______ ____
ROOT
ATOM      1  C   UNL     1       3.598   5.709  19.254  0.00  0.00    +0.000 C 
ENDROOT
BRANCH   1  11
ATOM      2  C   UNL     1       4.128   4.075  17.356  0.00  0.00    +0.000 A 
ATOM      3  N   UNL     1       4.749   3.726  16.159  0.00  0.00    +0.000 NA
ATOM      4  C   UNL     1       5.703   4.480  15.711  0.00  0.00    +0.000 A 
ATOM      5  C   UNL     1       6.389   4.241  14.407  0.00  0.00    +0.000 C 
ATOM      6  N   UNL     1       6.141   5.566  16.441  0.00  0.00    +0.000 N 
ATOM      7  N   UNL     1       7.214   6.331  16.143  0.00  0.00    +0.000 NA
ATOM      8  C   UNL     1       7.195   7.156  17.184  0.00  0.00    +0.000 A 
ATOM      9  N   UNL     1       6.189   7.013  18.079  0.00  0.00    +0.000 NA
ATOM     10  C   UNL     1       5.547   5.965  17.609  0.00  0.00    +0.000 A 
ATOM     11  C   UNL     1       4.431   5.198  18.084  0.00  0.00    +0.000 A 
BRANCH   8  12
ATOM     12  O   UNL     1       8.214   8.007  17.244  0.00  0.00    +0.000 OA
ATOM     13  H   UNL     1       7.845   8.856  16.952  0.00  0.00    +0.000 HD
ENDBRANCH   8  12
BRANCH   2  14
ATOM     14  C   UNL     1       3.120   3.003  17.755  0.00  0.00    +0.000 C 
BRANCH  14  15
ATOM     15  C   UNL     1       1.668   3.448  17.970  0.00  0.00    +0.000 C 
BRANCH  15  17
ATOM     16  C   UNL     1       0.897   3.764  20.414  0.00  0.00    +0.000 C 
ATOM     17  C   UNL     1       0.909   2.880  19.175  0.00  0.00    +0.000 C 
ENDBRANCH  15  17
ENDBRANCH  14  15
ENDBRANCH   2  14
ENDBRANCH   1  11
BRANCH   1  18
ATOM     18  C   UNL     1       2.841   7.014  19.079  0.00  0.00    +0.000 A 
ATOM     19  C   UNL     1       2.759   7.706  17.855  0.00  0.00    +0.000 A 
ATOM     20  C   UNL     1       1.882   8.804  17.684  0.00  0.00    +0.000 A 
ATOM     21  C   UNL     1       1.080   9.245  18.744  0.00  0.00    +0.000 A 
ATOM     22  C   UNL     1       1.235   8.582  19.974  0.00  0.00    +0.000 A 
ATOM     23  C   UNL     1       2.087   7.492  20.146  0.00  0.00    +0.000 A 
BRANCH  21  24
ATOM     24  C   UNL     1       0.048  10.324  18.682  0.00  0.00    +0.000 A 
ATOM     25  C   UNL     1      -1.149  10.002  17.981  0.00  0.00    +0.000 A 
ATOM     26  C   UNL     1      -2.299  10.788  18.037  0.00  0.00    +0.000 A 
ATOM     27  C   UNL     1      -2.274  11.981  18.735  0.00  0.00    +0.000 A 
ATOM     28  C   UNL     1      -1.091  12.386  19.353  0.00  0.00    +0.000 A 
ATOM     29  C   UNL     1       0.068  11.570  19.348  0.00  0.00    +0.000 A 
BRANCH  29  30
ATOM     30  C   UNL     1       1.210  12.144  20.114  0.00  0.00    +0.000 C 
ATOM     31  O   UNL     1       1.342  11.961  21.315  0.00  0.00    +0.000 OA
BRANCH  30  32
ATOM     32  O   UNL     1       2.146  12.760  19.371  0.00  0.00    +0.000 OA
ATOM     33  H   UNL     1       3.029  12.345  19.378  0.00  0.00    +0.000 HD
ENDBRANCH  30  32
ENDBRANCH  29  30
ENDBRANCH  21  24
ENDBRANCH   1  18
TORSDOF 9
ENDMDL
MODEL 8
REMARK VINA RESULT:      -8.6      2.727      4.442
REMARK  Name = 
REMARK  11 active torsions:
REMARK  status: ('A' for Active; 'I' for Inactive)
REMARK    1  A    between atoms: C_1  and  C_2
REMARK    2  A    between atoms: C_2  and  C_3
REMARK    3  A    between atoms: C_3  and  C_4
REMARK    4  A    between atoms: C_4  and  C_5
REMARK    5  A    between atoms: C_7  and  C_8
REMARK    6  A    between atoms: C_11  and  O_12
REMARK    7  A    between atoms: C_15  and  C_16
REMARK    8  A    between atoms: C_16  and  C_17
REMARK    9  A    between atoms: C_20  and  C_21
REMARK   10  A    between atoms: C_26  and  C_27
REMARK   11  A    between atoms: C_27  and  O_29
REMARK                            x       y       z     vdW  Elec       q    Type
REMARK                         _______ _______ _______ _____ _____    ______ ____
ROOT
ATOM      1  C   UNL     1       3.358   6.322  17.449  0.00  0.00    +0.000 C 
ENDROOT
BRANCH   1  11
ATOM      2  C   UNL     1       5.050   4.668  18.429  0.00  0.00    +0.000 A 
ATOM      3  N   UNL     1       5.400   3.584  19.229  0.00  0.00    +0.000 NA
ATOM      4  C   UNL     1       4.460   2.815  19.682  0.00  0.00    +0.000 A 
ATOM      5  C   UNL     1       4.715   1.669  20.602  0.00  0.00    +0.000 C 
ATOM      6  N   UNL     1       3.145   3.027  19.320  0.00  0.00    +0.000 N 
ATOM      7  N   UNL     1       2.109   2.212  19.614  0.00  0.00    +0.000 NA
ATOM      8  C   UNL     1       1.133   2.858  18.985  0.00  0.00    +0.000 A 
ATOM      9  N   UNL     1       1.447   4.021  18.368  0.00  0.00    +0.000 NA
ATOM     10  C   UNL     1       2.746   4.094  18.558  0.00  0.00    +0.000 A 
ATOM     11  C   UNL     1       3.758   5.010  18.115  0.00  0.00    +0.000 A 
BRANCH   8  12
ATOM     12  O   UNL     1      -0.046   2.245  19.002  0.00  0.00    +0.000 OA
ATOM     13  H   UNL     1       0.106   1.427  19.500  0.00  0.00    +0.000 HD
ENDBRANCH   8  12
BRANCH   2  14
ATOM     14  C   UNL     1       6.303   5.368  17.916  0.00  0.00    +0.000 C 
BRANCH  14  15
ATOM     15  C   UNL     1       7.297   5.887  18.962  0.00  0.00    +0.000 C 
BRANCH  15  17
ATOM     16  C   UNL     1       7.637   8.017  17.544  0.00  0.00    +0.000 C 
ATOM     17  C   UNL     1       8.210   7.056  18.575  0.00  0.00    +0.000 C 
ENDBRANCH  15  17
ENDBRANCH  14  15
ENDBRANCH   2  14
ENDBRANCH   1  11
BRANCH   1  18
ATOM     18  C   UNL     1       2.668   7.375  18.297  0.00  0.00    +0.000 A 
ATOM     19  C   UNL     1       2.083   8.541  17.764  0.00  0.00    +0.000 A 
ATOM     20  C   UNL     1       1.276   9.392  18.557  0.00  0.00    +0.000 A 
ATOM     21  C   UNL     1       1.055   9.105  19.909  0.00  0.00    +0.000 A 
ATOM     22  C   UNL     1       1.710   7.976  20.433  0.00  0.00    +0.000 A 
ATOM     23  C   UNL     1       2.494   7.126  19.655  0.00  0.00    +0.000 A 
BRANCH  21  24
ATOM     24  C   UNL     1       0.158   9.859  20.838  0.00  0.00    +0.000 A 
ATOM     25  C   UNL     1      -0.100   9.240  22.093  0.00  0.00    +0.000 A 
ATOM     26  C   UNL     1      -0.703   9.904  23.160  0.00  0.00    +0.000 A 
ATOM     27  C   UNL     1      -1.151  11.201  22.988  0.00  0.00    +0.000 A 
ATOM     28  C   UNL     1      -1.009  11.812  21.742  0.00  0.00    +0.000 A 
ATOM     29  C   UNL     1      -0.350  11.165  20.667  0.00  0.00    +0.000 A 
BRANCH  29  30
ATOM     30  C   UNL     1      -0.243  12.002  19.439  0.00  0.00    +0.000 C 
ATOM     31  O   UNL     1       0.730  12.709  19.220  0.00  0.00    +0.000 OA
BRANCH  30  32
ATOM     32  O   UNL     1      -1.221  11.821  18.535  0.00  0.00    +0.000 OA
ATOM     33  H   UNL     1      -0.964  11.954  17.603  0.00  0.00    +0.000 HD
ENDBRANCH  30  32
ENDBRANCH  29  30
ENDBRANCH  21  24
ENDBRANCH   1  18
TORSDOF 9
ENDMDL
MODEL 9
REMARK VINA RESULT:      -8.5      2.512      4.175
REMARK  Name = 
REMARK  11 active torsions:
REMARK  status: ('A' for Active; 'I' for Inactive)
REMARK    1  A    between atoms: C_1  and  C_2
REMARK    2  A    between atoms: C_2  and  C_3
REMARK    3  A    between atoms: C_3  and  C_4
REMARK    4  A    between atoms: C_4  and  C_5
REMARK    5  A    between atoms: C_7  and  C_8
REMARK    6  A    between atoms: C_11  and  O_12
REMARK    7  A    between atoms: C_15  and  C_16
REMARK    8  A    between atoms: C_16  and  C_17
REMARK    9  A    between atoms: C_20  and  C_21
REMARK   10  A    between atoms: C_26  and  C_27
REMARK   11  A    between atoms: C_27  and  O_29
REMARK                            x       y       z     vdW  Elec       q    Type
REMARK                         _______ _______ _______ _____ _____    ______ ____
ROOT
ATOM      1  C   UNL     1       3.372   6.608  17.602  0.00  0.00    +0.000 C 
ENDROOT
BRANCH   1  11
ATOM      2  C   UNL     1       5.090   4.996  18.607  0.00  0.00    +0.000 A 
ATOM      3  N   UNL     1       5.448   3.864  19.335  0.00  0.00    +0.000 NA
ATOM      4  C   UNL     1       4.537   2.983  19.603  0.00  0.00    +0.000 A 
ATOM      5  C   UNL     1       4.793   1.771  20.435  0.00  0.00    +0.000 C 
ATOM      6  N   UNL     1       3.254   3.130  19.117  0.00  0.00    +0.000 N 
ATOM      7  N   UNL     1       2.268   2.212  19.213  0.00  0.00    +0.000 NA
ATOM      8  C   UNL     1       1.311   2.842  18.541  0.00  0.00    +0.000 A 
ATOM      9  N   UNL     1       1.584   4.084  18.077  0.00  0.00    +0.000 NA
ATOM     10  C   UNL     1       2.845   4.236  18.419  0.00  0.00    +0.000 A 
ATOM     11  C   UNL     1       3.814   5.268  18.182  0.00  0.00    +0.000 A 
BRANCH   8  12
ATOM     12  O   UNL     1       0.194   2.142  18.367  0.00  0.00    +0.000 OA
ATOM     13  H   UNL     1      -0.516   2.728  18.673  0.00  0.00    +0.000 HD
ENDBRANCH   8  12
BRANCH   2  14
ATOM     14  C   UNL     1       6.324   5.840  18.307  0.00  0.00    +0.000 C 
BRANCH  14  15
ATOM     15  C   UNL     1       6.895   5.770  16.885  0.00  0.00    +0.000 C 
BRANCH  15  17
ATOM     16  C   UNL     1       5.776   4.567  14.893  0.00  0.00    +0.000 C 
ATOM     17  C   UNL     1       6.706   4.471  16.094  0.00  0.00    +0.000 C 
ENDBRANCH  15  17
ENDBRANCH  14  15
ENDBRANCH   2  14
ENDBRANCH   1  11
BRANCH   1  18
ATOM     18  C   UNL     1       2.445   7.477  18.432  0.00  0.00    +0.000 A 
ATOM     19  C   UNL     1       2.249   7.303  19.816  0.00  0.00    +0.000 A 
ATOM     20  C   UNL     1       1.538   8.255  20.587  0.00  0.00    +0.000 A 
ATOM     21  C   UNL     1       0.991   9.393  19.983  0.00  0.00    +0.000 A 
ATOM     22  C   UNL     1       1.139   9.505  18.590  0.00  0.00    +0.000 A 
ATOM     23  C   UNL     1       1.849   8.579  17.827  0.00  0.00    +0.000 A 
BRANCH  21  24
ATOM     24  C   UNL     1       0.300  10.520  20.683  0.00  0.00    +0.000 A 
ATOM     25  C   UNL     1      -0.441  10.170  21.846  0.00  0.00    +0.000 A 
ATOM     26  C   UNL     1      -0.934  11.112  22.747  0.00  0.00    +0.000 A 
ATOM     27  C   UNL     1      -0.775  12.459  22.478  0.00  0.00    +0.000 A 
ATOM     28  C   UNL     1      -0.142  12.848  21.297  0.00  0.00    +0.000 A 
ATOM     29  C   UNL     1       0.409  11.899  20.401  0.00  0.00    +0.000 A 
BRANCH  29  30
ATOM     30  C   UNL     1       1.098  12.511  19.229  0.00  0.00    +0.000 C 
ATOM     31  O   UNL     1       2.307  12.697  19.213  0.00  0.00    +0.000 OA
BRANCH  30  32
ATOM     32  O   UNL     1       0.323  12.716  18.151  0.00  0.00    +0.000 OA
ATOM     33  H   UNL     1       0.642  13.394  17.526  0.00  0.00    +0.000 HD
ENDBRANCH  30  32
ENDBRANCH  29  30
ENDBRANCH  21  24
ENDBRANCH   1  18
TORSDOF 9
ENDMDL
