MODEL 1
REMARK VINA RESULT:      -8.4      0.000      0.000
REMARK  Name = 
REMARK  8 active torsions:
REMARK  status: ('A' for Active; 'I' for Inactive)
REMARK    1  A    between atoms: C_1  and  O_2
REMARK    2  A    between atoms: O_2  and  C_3
REMARK    3  A    between atoms: C_8  and  N_9
REMARK    4  A    between atoms: N_12  and  C_13
REMARK    5  A    between atoms: C_19  and  C_20
REMARK    6  A    between atoms: N_22  and  C_23
REMARK    7  A    between atoms: C_23  and  C_24
REMARK    8  A    between atoms: C_29  and  C_30
REMARK                            x       y       z     vdW  Elec       q    Type
REMARK                         _______ _______ _______ _____ _____    ______ ____
ROOT
ATOM      1  C   UNL     1       2.424   6.095  19.316  0.00  0.00    +0.000 A 
ATOM      2  N   UNL     1       1.620   5.392  20.163  0.00  0.00    +0.000 NA
ATOM      3  C   UNL     1       1.728   4.066  20.265  0.00  0.00    +0.000 A 
ATOM      4  N   UNL     1       2.581   3.286  19.619  0.00  0.00    +0.000 NA
ATOM      5  C   UNL     1       3.410   3.981  18.823  0.00  0.00    +0.000 A 
ATOM      6  S   UNL     1       4.574   3.121  17.936  0.00  0.00    +0.000 S 
ATOM      7  C   UNL     1       5.215   4.543  17.265  0.00  0.00    +0.000 A 
ATOM      8  C   UNL     1       4.572   5.684  17.740  0.00  0.00    +0.000 A 
ATOM      9  C   UNL     1       5.077   7.051  17.389  0.00  0.00    +0.000 C 
ATOM     10  C   UNL     1       3.435   5.361  18.615  0.00  0.00    +0.000 A 
ENDROOT
BRANCH   1  14
ATOM     11  N   UNL     1       1.063  10.089  18.971  0.00  0.00    +0.000 N 
ATOM     12  C   UNL     1       1.101   9.216  17.791  0.00  0.00    +0.000 C 
ATOM     13  C   UNL     1       2.242   8.205  17.964  0.00  0.00    +0.000 C 
ATOM     14  N   UNL     1       2.109   7.435  19.201  0.00  0.00    +0.000 N 
ATOM     15  C   UNL     1       1.823   8.209  20.428  0.00  0.00    +0.000 C 
ATOM     16  C   UNL     1       0.775   9.333  20.206  0.00  0.00    +0.000 C 
BRANCH  11  22
ATOM     17  C   UNL     1      -0.250  12.188  18.764  0.00  0.00    +0.000 A 
ATOM     18  C   UNL     1      -0.255  13.583  18.615  0.00  0.00    +0.000 A 
ATOM     19  C   UNL     1       0.932  14.307  18.582  0.00  0.00    +0.000 A 
ATOM     20  C   UNL     1       2.137  13.633  18.692  0.00  0.00    +0.000 A 
ATOM     21  C   UNL     1       2.153  12.243  18.835  0.00  0.00    +0.000 A 
ATOM     22  C   UNL     1       0.975  11.468  18.868  0.00  0.00    +0.000 A 
BRANCH  17  24
ATOM     23  C   UNL     1      -2.567  12.083  19.311  0.00  0.00    +0.000 C 
ATOM     24  O   UNL     1      -1.430  11.468  18.708  0.00  0.00    +0.000 OA
ENDBRANCH  17  24
ENDBRANCH  11  22
ENDBRANCH   1  14
BRANCH   7  25
ATOM     25  C   UNL     1       6.311   4.485  16.307  0.00  0.00    +0.000 C 
ATOM     26  O   UNL     1       7.493   4.568  16.637  0.00  0.00    +0.000 OA
ATOM     27  N   UNL     1       5.946   4.294  14.994  0.00  0.00    +0.000 N 
ATOM     28  H   UNL     1       4.963   4.275  14.748  0.00  0.00    +0.000 HD
BRANCH  27  29
ATOM     29  C   UNL     1       6.916   4.147  13.924  0.00  0.00    +0.000 C 
BRANCH  29  30
ATOM     30  C   UNL     1       6.249   3.944  12.565  0.00  0.00    +0.000 C 
ATOM     31  C   UNL     1       4.740   3.751  12.614  0.00  0.00    +0.000 C 
ATOM     32  C   UNL     1       4.494   2.901  11.390  0.00  0.00    +0.000 C 
ATOM     33  C   UNL     1       5.718   2.012  11.369  0.00  0.00    +0.000 C 
ATOM     34  O   UNL     1       6.797   2.772  11.927  0.00  0.00    +0.000 OA
ENDBRANCH  29  30
ENDBRANCH  27  29
ENDBRANCH   7  25
TORSDOF 6
ENDMDL
MODEL 2
REMARK VINA RESULT:      -7.7      0.683      1.151
REMARK  Name = 
REMARK  8 active torsions:
REMARK  status: ('A' for Active; 'I' for Inactive)
REMARK    1  A    between atoms: C_1  and  O_2
REMARK    2  A    between atoms: O_2  and  C_3
REMARK    3  A    between atoms: C_8  and  N_9
REMARK    4  A    between atoms: N_12  and  C_13
REMARK    5  A    between atoms: C_19  and  C_20
REMARK    6  A    between atoms: N_22  and  C_23
REMARK    7  A    between atoms: C_23  and  C_24
REMARK    8  A    between atoms: C_29  and  C_30
REMARK                            x       y       z     vdW  Elec       q    Type
REMARK                         _______ _______ _______ _____ _____    ______ ____
ROOT
ATOM      1  C   UNL     1       2.414   5.785  19.394  0.00  0.00    +0.000 A 
ATOM      2  N   UNL     1       1.693   5.025  20.265  0.00  0.00    +0.000 NA
ATOM      3  C   UNL     1       1.922   3.715  20.381  0.00  0.00    +0.000 A 
ATOM      4  N   UNL     1       2.829   3.007  19.727  0.00  0.00    +0.000 NA
ATOM      5  C   UNL     1       3.577   3.762  18.906  0.00  0.00    +0.000 A 
ATOM      6  S   UNL     1       4.797   2.998  18.007  0.00  0.00    +0.000 S 
ATOM      7  C   UNL     1       5.294   4.463  17.306  0.00  0.00    +0.000 A 
ATOM      8  C   UNL     1       4.560   5.548  17.781  0.00  0.00    +0.000 A 
ATOM      9  C   UNL     1       4.934   6.949  17.404  0.00  0.00    +0.000 C 
ATOM     10  C   UNL     1       3.474   5.135  18.682  0.00  0.00    +0.000 A 
ENDROOT
BRANCH   1  14
ATOM     11  N   UNL     1       1.471   9.894  19.004  0.00  0.00    +0.000 N 
ATOM     12  C   UNL     1       1.845   9.342  20.312  0.00  0.00    +0.000 C 
ATOM     13  C   UNL     1       1.410   7.872  20.368  0.00  0.00    +0.000 C 
ATOM     14  N   UNL     1       1.977   7.090  19.269  0.00  0.00    +0.000 N 
ATOM     15  C   UNL     1       1.868   7.681  17.918  0.00  0.00    +0.000 C 
ATOM     16  C   UNL     1       2.162   9.205  17.897  0.00  0.00    +0.000 C 
BRANCH  11  22
ATOM     17  C   UNL     1      -0.574  11.249  18.609  0.00  0.00    +0.000 A 
ATOM     18  C   UNL     1      -1.152  12.517  18.444  0.00  0.00    +0.000 A 
ATOM     19  C   UNL     1      -0.390  13.674  18.551  0.00  0.00    +0.000 A 
ATOM     20  C   UNL     1       0.965  13.569  18.819  0.00  0.00    +0.000 A 
ATOM     21  C   UNL     1       1.552  12.310  18.979  0.00  0.00    +0.000 A 
ATOM     22  C   UNL     1       0.819  11.110  18.874  0.00  0.00    +0.000 A 
BRANCH  17  24
ATOM     23  C   UNL     1      -2.533  10.261  17.680  0.00  0.00    +0.000 C 
ATOM     24  O   UNL     1      -1.322  10.101  18.414  0.00  0.00    +0.000 OA
ENDBRANCH  17  24
ENDBRANCH  11  22
ENDBRANCH   1  14
BRANCH   7  25
ATOM     25  C   UNL     1       6.373   4.490  16.327  0.00  0.00    +0.000 C 
ATOM     26  O   UNL     1       7.560   4.553  16.642  0.00  0.00    +0.000 OA
ATOM     27  N   UNL     1       5.986   4.405  15.010  0.00  0.00    +0.000 N 
ATOM     28  H   UNL     1       4.998   4.401  14.781  0.00  0.00    +0.000 HD
BRANCH  27  29
ATOM     29  C   UNL     1       6.936   4.353  13.914  0.00  0.00    +0.000 C 
BRANCH  29  30
ATOM     30  C   UNL     1       6.261   4.043  12.579  0.00  0.00    +0.000 C 
ATOM     31  C   UNL     1       4.772   3.743  12.669  0.00  0.00    +0.000 C 
ATOM     32  C   UNL     1       4.567   2.826  11.487  0.00  0.00    +0.000 C 
ATOM     33  C   UNL     1       5.853   2.028  11.477  0.00  0.00    +0.000 C 
ATOM     34  O   UNL     1       6.883   2.888  11.979  0.00  0.00    +0.000 OA
ENDBRANCH  29  30
ENDBRANCH  27  29
ENDBRANCH   7  25
TORSDOF 6
ENDMDL
MODEL 3
REMARK VINA RESULT:      -7.7      1.175      1.492
REMARK  Name = 
REMARK  8 active torsions:
REMARK  status: ('A' for Active; 'I' for Inactive)
REMARK    1  A    between atoms: C_1  and  O_2
REMARK    2  A    between atoms: O_2  and  C_3
REMARK    3  A    between atoms: C_8  and  N_9
REMARK    4  A    between atoms: N_12  and  C_13
REMARK    5  A    between atoms: C_19  and  C_20
REMARK    6  A    between atoms: N_22  and  C_23
REMARK    7  A    between atoms: C_23  and  C_24
REMARK    8  A    between atoms: C_29  and  C_30
REMARK                            x       y       z     vdW  Elec       q    Type
REMARK                         _______ _______ _______ _____ _____    ______ ____
ROOT
ATOM      1  C   UNL     1       2.275   6.295  19.820  0.00  0.00    +0.000 A 
ATOM      2  N   UNL     1       1.482   5.708  20.762  0.00  0.00    +0.000 NA
ATOM      3  C   UNL     1       1.552   4.395  20.991  0.00  0.00    +0.000 A 
ATOM      4  N   UNL     1       2.354   3.526  20.395  0.00  0.00    +0.000 NA
ATOM      5  C   UNL     1       3.172   4.108  19.505  0.00  0.00    +0.000 A 
ATOM      6  S   UNL     1       4.272   3.124  18.667  0.00  0.00    +0.000 S 
ATOM      7  C   UNL     1       4.932   4.450  17.835  0.00  0.00    +0.000 A 
ATOM      8  C   UNL     1       4.345   5.654  18.217  0.00  0.00    +0.000 A 
ATOM      9  C   UNL     1       4.879   6.961  17.714  0.00  0.00    +0.000 C 
ATOM     10  C   UNL     1       3.234   5.459  19.160  0.00  0.00    +0.000 A 
ENDROOT
BRANCH   1  14
ATOM     11  N   UNL     1       1.032  10.272  19.073  0.00  0.00    +0.000 N 
ATOM     12  C   UNL     1       1.169   9.319  17.964  0.00  0.00    +0.000 C 
ATOM     13  C   UNL     1       2.267   8.308  18.318  0.00  0.00    +0.000 C 
ATOM     14  N   UNL     1       1.999   7.628  19.584  0.00  0.00    +0.000 N 
ATOM     15  C   UNL     1       1.609   8.489  20.722  0.00  0.00    +0.000 C 
ATOM     16  C   UNL     1       0.611   9.608  20.321  0.00  0.00    +0.000 C 
BRANCH  11  22
ATOM     17  C   UNL     1      -0.222  12.403  18.825  0.00  0.00    +0.000 A 
ATOM     18  C   UNL     1      -0.193  13.781  18.566  0.00  0.00    +0.000 A 
ATOM     19  C   UNL     1       1.008  14.449  18.360  0.00  0.00    +0.000 A 
ATOM     20  C   UNL     1       2.194  13.736  18.408  0.00  0.00    +0.000 A 
ATOM     21  C   UNL     1       2.177  12.361  18.659  0.00  0.00    +0.000 A 
ATOM     22  C   UNL     1       0.982  11.642  18.868  0.00  0.00    +0.000 A 
BRANCH  17  24
ATOM     23  C   UNL     1      -2.183  11.594  17.741  0.00  0.00    +0.000 C 
ATOM     24  O   UNL     1      -1.426  11.730  18.941  0.00  0.00    +0.000 OA
ENDBRANCH  17  24
ENDBRANCH  11  22
ENDBRANCH   1  14
BRANCH   7  25
ATOM     25  C   UNL     1       5.987   4.259  16.849  0.00  0.00    +0.000 C 
ATOM     26  O   UNL     1       7.179   4.414  17.106  0.00  0.00    +0.000 OA
ATOM     27  N   UNL     1       5.571   3.853  15.601  0.00  0.00    +0.000 N 
ATOM     28  H   UNL     1       4.579   3.779  15.407  0.00  0.00    +0.000 HD
BRANCH  27  29
ATOM     29  C   UNL     1       6.497   3.555  14.524  0.00  0.00    +0.000 C 
BRANCH  29  30
ATOM     30  C   UNL     1       6.668   4.734  13.568  0.00  0.00    +0.000 C 
ATOM     31  C   UNL     1       6.915   4.352  12.116  0.00  0.00    +0.000 C 
ATOM     32  C   UNL     1       7.721   5.527  11.616  0.00  0.00    +0.000 C 
ATOM     33  C   UNL     1       8.566   5.869  12.824  0.00  0.00    +0.000 C 
ATOM     34  O   UNL     1       7.792   5.536  13.984  0.00  0.00    +0.000 OA
ENDBRANCH  29  30
ENDBRANCH  27  29
ENDBRANCH   7  25
TORSDOF 6
ENDMDL
MODEL 4
REMARK VINA RESULT:      -7.6      4.004     10.634
REMARK  Name = 
REMARK  8 active torsions:
REMARK  status: ('A' for Active; 'I' for Inactive)
REMARK    1  A    between atoms: C_1  and  O_2
REMARK    2  A    between atoms: O_2  and  C_3
REMARK    3  A    between atoms: C_8  and  N_9
REMARK    4  A    between atoms: N_12  and  C_13
REMARK    5  A    between atoms: C_19  and  C_20
REMARK    6  A    between atoms: N_22  and  C_23
REMARK    7  A    between atoms: C_23  and  C_24
REMARK    8  A    between atoms: C_29  and  C_30
REMARK                            x       y       z     vdW  Elec       q    Type
REMARK                         _______ _______ _______ _____ _____    ______ ____
ROOT
ATOM      1  C   UNL     1       0.719  10.522  19.974  0.00  0.00    +0.000 A 
ATOM      2  N   UNL     1       1.545  11.220  20.804  0.00  0.00    +0.000 NA
ATOM      3  C   UNL     1       1.282  12.490  21.120  0.00  0.00    +0.000 A 
ATOM      4  N   UNL     1       0.246  13.210  20.719  0.00  0.00    +0.000 NA
ATOM      5  C   UNL     1      -0.597  12.509  19.943  0.00  0.00    +0.000 A 
ATOM      6  S   UNL     1      -1.985  13.293  19.360  0.00  0.00    +0.000 S 
ATOM      7  C   UNL     1      -2.530  11.891  18.571  0.00  0.00    +0.000 A 
ATOM      8  C   UNL     1      -1.679  10.808  18.778  0.00  0.00    +0.000 A 
ATOM      9  C   UNL     1      -2.049   9.439  18.294  0.00  0.00    +0.000 C 
ATOM     10  C   UNL     1      -0.474  11.181  19.534  0.00  0.00    +0.000 A 
ENDROOT
BRANCH   1  14
ATOM     11  N   UNL     1       2.499   6.790  19.065  0.00  0.00    +0.000 N 
ATOM     12  C   UNL     1       2.808   7.973  18.254  0.00  0.00    +0.000 C 
ATOM     13  C   UNL     1       1.589   8.905  18.260  0.00  0.00    +0.000 C 
ATOM     14  N   UNL     1       1.185   9.271  19.617  0.00  0.00    +0.000 N 
ATOM     15  C   UNL     1       1.079   8.164  20.591  0.00  0.00    +0.000 C 
ATOM     16  C   UNL     1       2.240   7.140  20.475  0.00  0.00    +0.000 C 
BRANCH  11  22
ATOM     17  C   UNL     1       3.978   4.806  18.839  0.00  0.00    +0.000 A 
ATOM     18  C   UNL     1       4.177   3.519  18.316  0.00  0.00    +0.000 A 
ATOM     19  C   UNL     1       3.184   2.878  17.585  0.00  0.00    +0.000 A 
ATOM     20  C   UNL     1       1.980   3.528  17.367  0.00  0.00    +0.000 A 
ATOM     21  C   UNL     1       1.773   4.812  17.879  0.00  0.00    +0.000 A 
ATOM     22  C   UNL     1       2.754   5.502  18.621  0.00  0.00    +0.000 A 
BRANCH  17  24
ATOM     23  C   UNL     1       6.271   5.453  18.839  0.00  0.00    +0.000 C 
ATOM     24  O   UNL     1       5.002   5.471  19.490  0.00  0.00    +0.000 OA
ENDBRANCH  17  24
ENDBRANCH  11  22
ENDBRANCH   1  14
BRANCH   7  25
ATOM     25  C   UNL     1      -3.758  11.909  17.787  0.00  0.00    +0.000 C 
ATOM     26  O   UNL     1      -3.824  11.474  16.639  0.00  0.00    +0.000 OA
ATOM     27  N   UNL     1      -4.866  12.416  18.425  0.00  0.00    +0.000 N 
ATOM     28  H   UNL     1      -4.769  12.809  19.354  0.00  0.00    +0.000 HD
BRANCH  27  29
ATOM     29  C   UNL     1      -6.181  12.446  17.810  0.00  0.00    +0.000 C 
BRANCH  29  30
ATOM     30  C   UNL     1      -7.216  11.672  18.625  0.00  0.00    +0.000 C 
ATOM     31  C   UNL     1      -7.240  12.003  20.110  0.00  0.00    +0.000 C 
ATOM     32  C   UNL     1      -7.732  10.707  20.710  0.00  0.00    +0.000 C 
ATOM     33  C   UNL     1      -7.072   9.675  19.822  0.00  0.00    +0.000 C 
ATOM     34  O   UNL     1      -6.956  10.257  18.518  0.00  0.00    +0.000 OA
ENDBRANCH  29  30
ENDBRANCH  27  29
ENDBRANCH   7  25
TORSDOF 6
ENDMDL
MODEL 5
REMARK VINA RESULT:      -7.5      1.006      1.943
REMARK  Name = 
REMARK  8 active torsions:
REMARK  status: ('A' for Active; 'I' for Inactive)
REMARK    1  A    between atoms: C_1  and  O_2
REMARK    2  A    between atoms: O_2  and  C_3
REMARK    3  A    between atoms: C_8  and  N_9
REMARK    4  A    between atoms: N_12  and  C_13
REMARK    5  A    between atoms: C_19  and  C_20
REMARK    6  A    between atoms: N_22  and  C_23
REMARK    7  A    between atoms: C_23  and  C_24
REMARK    8  A    between atoms: C_29  and  C_30
REMARK                            x       y       z     vdW  Elec       q    Type
REMARK                         _______ _______ _______ _____ _____    ______ ____
ROOT
ATOM      1  C   UNL     1       2.744   5.821  19.430  0.00  0.00    +0.000 A 
ATOM      2  N   UNL     1       2.270   4.966  20.380  0.00  0.00    +0.000 NA
ATOM      3  C   UNL     1       2.716   3.711  20.453  0.00  0.00    +0.000 A 
ATOM      4  N   UNL     1       3.633   3.147  19.681  0.00  0.00    +0.000 NA
ATOM      5  C   UNL     1       4.140   4.002  18.778  0.00  0.00    +0.000 A 
ATOM      6  S   UNL     1       5.340   3.430  17.722  0.00  0.00    +0.000 S 
ATOM      7  C   UNL     1       5.505   4.947  16.977  0.00  0.00    +0.000 A 
ATOM      8  C   UNL     1       4.675   5.908  17.552  0.00  0.00    +0.000 A 
ATOM      9  C   UNL     1       4.771   7.347  17.143  0.00  0.00    +0.000 C 
ATOM     10  C   UNL     1       3.793   5.339  18.582  0.00  0.00    +0.000 A 
ENDROOT
BRANCH   1  14
ATOM     11  N   UNL     1       1.122   9.728  19.244  0.00  0.00    +0.000 N 
ATOM     12  C   UNL     1       1.634   9.199  20.515  0.00  0.00    +0.000 C 
ATOM     13  C   UNL     1       1.449   7.675  20.523  0.00  0.00    +0.000 C 
ATOM     14  N   UNL     1       2.094   7.039  19.375  0.00  0.00    +0.000 N 
ATOM     15  C   UNL     1       1.835   7.652  18.054  0.00  0.00    +0.000 C 
ATOM     16  C   UNL     1       1.874   9.203  18.087  0.00  0.00    +0.000 C 
BRANCH  11  22
ATOM     17  C   UNL     1       0.718  12.178  19.160  0.00  0.00    +0.000 A 
ATOM     18  C   UNL     1      -0.205  13.235  19.149  0.00  0.00    +0.000 A 
ATOM     19  C   UNL     1      -1.574  12.996  19.148  0.00  0.00    +0.000 A 
ATOM     20  C   UNL     1      -2.031  11.688  19.163  0.00  0.00    +0.000 A 
ATOM     21  C   UNL     1      -1.121  10.627  19.179  0.00  0.00    +0.000 A 
ATOM     22  C   UNL     1       0.275  10.823  19.187  0.00  0.00    +0.000 A 
BRANCH  17  24
ATOM     23  C   UNL     1       2.644  13.188  18.187  0.00  0.00    +0.000 C 
ATOM     24  O   UNL     1       2.076  12.425  19.250  0.00  0.00    +0.000 OA
ENDBRANCH  17  24
ENDBRANCH  11  22
ENDBRANCH   1  14
BRANCH   7  25
ATOM     25  C   UNL     1       6.431   5.134  15.868  0.00  0.00    +0.000 C 
ATOM     26  O   UNL     1       7.382   5.911  15.915  0.00  0.00    +0.000 OA
ATOM     27  N   UNL     1       6.199   4.353  14.759  0.00  0.00    +0.000 N 
ATOM     28  H   UNL     1       5.380   3.756  14.734  0.00  0.00    +0.000 HD
BRANCH  27  29
ATOM     29  C   UNL     1       7.065   4.368  13.594  0.00  0.00    +0.000 C 
BRANCH  29  30
ATOM     30  C   UNL     1       6.321   3.975  12.319  0.00  0.00    +0.000 C 
ATOM     31  C   UNL     1       4.822   3.775  12.486  0.00  0.00    +0.000 C 
ATOM     32  C   UNL     1       4.520   2.765  11.405  0.00  0.00    +0.000 C 
ATOM     33  C   UNL     1       5.757   1.894  11.428  0.00  0.00    +0.000 C 
ATOM     34  O   UNL     1       6.853   2.734  11.811  0.00  0.00    +0.000 OA
ENDBRANCH  29  30
ENDBRANCH  27  29
ENDBRANCH   7  25
TORSDOF 6
ENDMDL
MODEL 6
REMARK VINA RESULT:      -7.5      0.970      1.660
REMARK  Name = 
REMARK  8 active torsions:
REMARK  status: ('A' for Active; 'I' for Inactive)
REMARK    1  A    between atoms: C_1  and  O_2
REMARK    2  A    between atoms: O_2  and  C_3
REMARK    3  A    between atoms: C_8  and  N_9
REMARK    4  A    between atoms: N_12  and  C_13
REMARK    5  A    between atoms: C_19  and  C_20
REMARK    6  A    between atoms: N_22  and  C_23
REMARK    7  A    between atoms: C_23  and  C_24
REMARK    8  A    between atoms: C_29  and  C_30
REMARK                            x       y       z     vdW  Elec       q    Type
REMARK                         _______ _______ _______ _____ _____    ______ ____
ROOT
ATOM      1  C   UNL     1       2.513   6.321  19.330  0.00  0.00    +0.000 A 
ATOM      2  N   UNL     1       1.886   5.510  20.229  0.00  0.00    +0.000 NA
ATOM      3  C   UNL     1       2.176   4.209  20.293  0.00  0.00    +0.000 A 
ATOM      4  N   UNL     1       3.063   3.555  19.558  0.00  0.00    +0.000 NA
ATOM      5  C   UNL     1       3.719   4.361  18.708  0.00  0.00    +0.000 A 
ATOM      6  S   UNL     1       4.901   3.671  17.705  0.00  0.00    +0.000 S 
ATOM      7  C   UNL     1       5.288   5.172  17.011  0.00  0.00    +0.000 A 
ATOM      8  C   UNL     1       4.546   6.213  17.564  0.00  0.00    +0.000 A 
ATOM      9  C   UNL     1       4.835   7.638  17.200  0.00  0.00    +0.000 C 
ATOM     10  C   UNL     1       3.545   5.734  18.528  0.00  0.00    +0.000 A 
ENDROOT
BRANCH   1  14
ATOM     11  N   UNL     1       0.614  10.102  19.177  0.00  0.00    +0.000 N 
ATOM     12  C   UNL     1       0.702   9.269  17.971  0.00  0.00    +0.000 C 
ATOM     13  C   UNL     1       1.976   8.417  18.054  0.00  0.00    +0.000 C 
ATOM     14  N   UNL     1       2.016   7.609  19.272  0.00  0.00    +0.000 N 
ATOM     15  C   UNL     1       1.698   8.309  20.535  0.00  0.00    +0.000 C 
ATOM     16  C   UNL     1       0.499   9.287  20.402  0.00  0.00    +0.000 C 
BRANCH  11  22
ATOM     17  C   UNL     1       1.271  12.449  18.694  0.00  0.00    +0.000 A 
ATOM     18  C   UNL     1       0.931  13.811  18.709  0.00  0.00    +0.000 A 
ATOM     19  C   UNL     1      -0.327  14.233  19.121  0.00  0.00    +0.000 A 
ATOM     20  C   UNL     1      -1.256  13.291  19.528  0.00  0.00    +0.000 A 
ATOM     21  C   UNL     1      -0.927  11.933  19.524  0.00  0.00    +0.000 A 
ATOM     22  C   UNL     1       0.338  11.459  19.120  0.00  0.00    +0.000 A 
BRANCH  17  24
ATOM     23  C   UNL     1       3.463  13.081  18.007  0.00  0.00    +0.000 C 
ATOM     24  O   UNL     1       2.553  12.044  18.367  0.00  0.00    +0.000 OA
ENDBRANCH  17  24
ENDBRANCH  11  22
ENDBRANCH   1  14
BRANCH   7  25
ATOM     25  C   UNL     1       6.292   5.268  15.959  0.00  0.00    +0.000 C 
ATOM     26  O   UNL     1       7.324   5.925  16.079  0.00  0.00    +0.000 OA
ATOM     27  N   UNL     1       6.033   4.543  14.819  0.00  0.00    +0.000 N 
ATOM     28  H   UNL     1       5.153   4.049  14.732  0.00  0.00    +0.000 HD
BRANCH  27  29
ATOM     29  C   UNL     1       6.961   4.478  13.704  0.00  0.00    +0.000 C 
BRANCH  29  30
ATOM     30  C   UNL     1       6.273   4.054  12.407  0.00  0.00    +0.000 C 
ATOM     31  C   UNL     1       4.807   3.676  12.552  0.00  0.00    +0.000 C 
ATOM     32  C   UNL     1       4.628   2.682  11.430  0.00  0.00    +0.000 C 
ATOM     33  C   UNL     1       5.957   1.959  11.430  0.00  0.00    +0.000 C 
ATOM     34  O   UNL     1       6.947   2.904  11.856  0.00  0.00    +0.000 OA
ENDBRANCH  29  30
ENDBRANCH  27  29
ENDBRANCH   7  25
TORSDOF 6
ENDMDL
MODEL 7
REMARK VINA RESULT:      -7.3      1.355      1.456
REMARK  Name = 
REMARK  8 active torsions:
REMARK  status: ('A' for Active; 'I' for Inactive)
REMARK    1  A    between atoms: C_1  and  O_2
REMARK    2  A    between atoms: O_2  and  C_3
REMARK    3  A    between atoms: C_8  and  N_9
REMARK    4  A    between atoms: N_12  and  C_13
REMARK    5  A    between atoms: C_19  and  C_20
REMARK    6  A    between atoms: N_22  and  C_23
REMARK    7  A    between atoms: C_23  and  C_24
REMARK    8  A    between atoms: C_29  and  C_30
REMARK                            x       y       z     vdW  Elec       q    Type
REMARK                         _______ _______ _______ _____ _____    ______ ____
ROOT
ATOM      1  C   UNL     1       2.133   6.196  19.874  0.00  0.00    +0.000 A 
ATOM      2  N   UNL     1       1.328   5.475  20.707  0.00  0.00    +0.000 NA
ATOM      3  C   UNL     1       1.374   4.141  20.715  0.00  0.00    +0.000 A 
ATOM      4  N   UNL     1       2.161   3.369  19.982  0.00  0.00    +0.000 NA
ATOM      5  C   UNL     1       2.991   4.076  19.199  0.00  0.00    +0.000 A 
ATOM      6  S   UNL     1       4.074   3.225  18.208  0.00  0.00    +0.000 S 
ATOM      7  C   UNL     1       4.758   4.659  17.606  0.00  0.00    +0.000 A 
ATOM      8  C   UNL     1       4.192   5.793  18.183  0.00  0.00    +0.000 A 
ATOM      9  C   UNL     1       4.751   7.156  17.904  0.00  0.00    +0.000 C 
ATOM     10  C   UNL     1       3.077   5.464  19.083  0.00  0.00    +0.000 A 
ENDROOT
BRANCH   1  14
ATOM     11  N   UNL     1       0.960  10.263  19.830  0.00  0.00    +0.000 N 
ATOM     12  C   UNL     1       0.986   9.488  18.584  0.00  0.00    +0.000 C 
ATOM     13  C   UNL     1       2.076   8.414  18.696  0.00  0.00    +0.000 C 
ATOM     14  N   UNL     1       1.880   7.554  19.863  0.00  0.00    +0.000 N 
ATOM     15  C   UNL     1       1.601   8.239  21.144  0.00  0.00    +0.000 C 
ATOM     16  C   UNL     1       0.610   9.425  20.993  0.00  0.00    +0.000 C 
BRANCH  11  22
ATOM     17  C   UNL     1       0.556  12.438  20.962  0.00  0.00    +0.000 A 
ATOM     18  C   UNL     1       0.513  13.838  20.877  0.00  0.00    +0.000 A 
ATOM     19  C   UNL     1       0.856  14.498  19.703  0.00  0.00    +0.000 A 
ATOM     20  C   UNL     1       1.241  13.756  18.599  0.00  0.00    +0.000 A 
ATOM     21  C   UNL     1       1.281  12.360  18.670  0.00  0.00    +0.000 A 
ATOM     22  C   UNL     1       0.937  11.649  19.838  0.00  0.00    +0.000 A 
BRANCH  17  24
ATOM     23  C   UNL     1      -1.081  12.270  22.686  0.00  0.00    +0.000 C 
ATOM     24  O   UNL     1       0.129  11.786  22.106  0.00  0.00    +0.000 OA
ENDBRANCH  17  24
ENDBRANCH  11  22
ENDBRANCH   1  14
BRANCH   7  25
ATOM     25  C   UNL     1       5.811   4.615  16.600  0.00  0.00    +0.000 C 
ATOM     26  O   UNL     1       6.954   4.232  16.844  0.00  0.00    +0.000 OA
ATOM     27  N   UNL     1       5.440   4.999  15.332  0.00  0.00    +0.000 N 
ATOM     28  H   UNL     1       4.504   5.353  15.173  0.00  0.00    +0.000 HD
BRANCH  27  29
ATOM     29  C   UNL     1       6.349   4.951  14.200  0.00  0.00    +0.000 C 
BRANCH  29  30
ATOM     30  C   UNL     1       6.191   3.668  13.388  0.00  0.00    +0.000 C 
ATOM     31  C   UNL     1       7.025   3.606  12.116  0.00  0.00    +0.000 C 
ATOM     32  C   UNL     1       6.188   2.708  11.237  0.00  0.00    +0.000 C 
ATOM     33  C   UNL     1       4.781   3.117  11.613  0.00  0.00    +0.000 C 
ATOM     34  O   UNL     1       4.813   3.514  12.990  0.00  0.00    +0.000 OA
ENDBRANCH  29  30
ENDBRANCH  27  29
ENDBRANCH   7  25
TORSDOF 6
ENDMDL
MODEL 8
REMARK VINA RESULT:      -7.2      3.899     11.009
REMARK  Name = 
REMARK  8 active torsions:
REMARK  status: ('A' for Active; 'I' for Inactive)
REMARK    1  A    between atoms: C_1  and  O_2
REMARK    2  A    between atoms: O_2  and  C_3
REMARK    3  A    between atoms: C_8  and  N_9
REMARK    4  A    between atoms: N_12  and  C_13
REMARK    5  A    between atoms: C_19  and  C_20
REMARK    6  A    between atoms: N_22  and  C_23
REMARK    7  A    between atoms: C_23  and  C_24
REMARK    8  A    between atoms: C_29  and  C_30
REMARK                            x       y       z     vdW  Elec       q    Type
REMARK                         _______ _______ _______ _____ _____    ______ ____
ROOT
ATOM      1  C   UNL     1       0.158  10.527  20.087  0.00  0.00    +0.000 A 
ATOM      2  N   UNL     1       0.812  11.142  21.113  0.00  0.00    +0.000 NA
ATOM      3  C   UNL     1       0.385  12.312  21.591  0.00  0.00    +0.000 A 
ATOM      4  N   UNL     1      -0.671  12.999  21.184  0.00  0.00    +0.000 NA
ATOM      5  C   UNL     1      -1.348  12.372  20.209  0.00  0.00    +0.000 A 
ATOM      6  S   UNL     1      -2.738  13.122  19.590  0.00  0.00    +0.000 S 
ATOM      7  C   UNL     1      -3.046  11.834  18.528  0.00  0.00    +0.000 A 
ATOM      8  C   UNL     1      -2.113  10.807  18.663  0.00  0.00    +0.000 A 
ATOM      9  C   UNL     1      -2.284   9.514  17.926  0.00  0.00    +0.000 C 
ATOM     10  C   UNL     1      -1.043  11.148  19.612  0.00  0.00    +0.000 A 
ENDROOT
BRANCH   1  14
ATOM     11  N   UNL     1       2.435   7.219  18.747  0.00  0.00    +0.000 N 
ATOM     12  C   UNL     1       2.472   8.489  18.011  0.00  0.00    +0.000 C 
ATOM     13  C   UNL     1       1.123   9.198  18.186  0.00  0.00    +0.000 C 
ATOM     14  N   UNL     1       0.788   9.400  19.595  0.00  0.00    +0.000 N 
ATOM     15  C   UNL     1       0.952   8.229  20.483  0.00  0.00    +0.000 C 
ATOM     16  C   UNL     1       2.250   7.427  20.197  0.00  0.00    +0.000 C 
BRANCH  11  22
ATOM     17  C   UNL     1       4.189   5.769  17.749  0.00  0.00    +0.000 A 
ATOM     18  C   UNL     1       4.527   4.550  17.143  0.00  0.00    +0.000 A 
ATOM     19  C   UNL     1       3.579   3.550  16.962  0.00  0.00    +0.000 A 
ATOM     20  C   UNL     1       2.278   3.767  17.385  0.00  0.00    +0.000 A 
ATOM     21  C   UNL     1       1.929   4.981  17.984  0.00  0.00    +0.000 A 
ATOM     22  C   UNL     1       2.856   6.025  18.183  0.00  0.00    +0.000 A 
BRANCH  17  24
ATOM     23  C   UNL     1       6.189   6.753  16.906  0.00  0.00    +0.000 C 
ATOM     24  O   UNL     1       5.117   6.792  17.846  0.00  0.00    +0.000 OA
ENDBRANCH  17  24
ENDBRANCH  11  22
ENDBRANCH   1  14
BRANCH   7  25
ATOM     25  C   UNL     1      -4.177  11.880  17.610  0.00  0.00    +0.000 C 
ATOM     26  O   UNL     1      -4.178  11.310  16.521  0.00  0.00    +0.000 OA
ATOM     27  N   UNL     1      -5.276  12.579  18.053  0.00  0.00    +0.000 N 
ATOM     28  H   UNL     1      -5.227  13.075  18.935  0.00  0.00    +0.000 HD
BRANCH  27  29
ATOM     29  C   UNL     1      -6.509  12.667  17.291  0.00  0.00    +0.000 C 
BRANCH  29  30
ATOM     30  C   UNL     1      -7.234  13.992  17.521  0.00  0.00    +0.000 C 
ATOM     31  C   UNL     1      -7.259  14.927  16.321  0.00  0.00    +0.000 C 
ATOM     32  C   UNL     1      -7.331  16.282  16.982  0.00  0.00    +0.000 C 
ATOM     33  C   UNL     1      -6.465  16.085  18.207  0.00  0.00    +0.000 C 
ATOM     34  O   UNL     1      -6.597  14.712  18.596  0.00  0.00    +0.000 OA
ENDBRANCH  29  30
ENDBRANCH  27  29
ENDBRANCH   7  25
TORSDOF 6
ENDMDL
MODEL 9
REMARK VINA RESULT:      -7.2      4.154      9.496
REMARK  Name = 
REMARK  8 active torsions:
REMARK  status: ('A' for Active; 'I' for Inactive)
REMARK    1  A    between atoms: C_1  and  O_2
REMARK    2  A    between atoms: O_2  and  C_3
REMARK    3  A    between atoms: C_8  and  N_9
REMARK    4  A    between atoms: N_12  and  C_13
REMARK    5  A    between atoms: C_19  and  C_20
REMARK    6  A    between atoms: N_22  and  C_23
REMARK    7  A    between atoms: C_23  and  C_24
REMARK    8  A    between atoms: C_29  and  C_30
REMARK                            x       y       z     vdW  Elec       q    Type
REMARK                         _______ _______ _______ _____ _____    ______ ____
ROOT
ATOM      1  C   UNL     1       0.345  10.872  19.733  0.00  0.00    +0.000 A 
ATOM      2  N   UNL     1      -0.828  10.798  20.425  0.00  0.00    +0.000 NA
ATOM      3  C   UNL     1      -1.363  11.887  20.979  0.00  0.00    +0.000 A 
ATOM      4  N   UNL     1      -0.882  13.120  20.935  0.00  0.00    +0.000 NA
ATOM      5  C   UNL     1       0.245  13.206  20.210  0.00  0.00    +0.000 A 
ATOM      6  S   UNL     1       0.976  14.728  20.047  0.00  0.00    +0.000 S 
ATOM      7  C   UNL     1       2.207  14.108  19.055  0.00  0.00    +0.000 A 
ATOM      8  C   UNL     1       2.049  12.746  18.811  0.00  0.00    +0.000 A 
ATOM      9  C   UNL     1       2.941  12.032  17.841  0.00  0.00    +0.000 C 
ATOM     10  C   UNL     1       0.921  12.172  19.560  0.00  0.00    +0.000 A 
ENDROOT
BRANCH   1  14
ATOM     11  N   UNL     1       2.285   7.269  18.648  0.00  0.00    +0.000 N 
ATOM     12  C   UNL     1       2.356   8.441  17.767  0.00  0.00    +0.000 C 
ATOM     13  C   UNL     1       1.075   9.267  17.944  0.00  0.00    +0.000 C 
ATOM     14  N   UNL     1       0.859   9.652  19.338  0.00  0.00    +0.000 N 
ATOM     15  C   UNL     1       1.006   8.579  20.345  0.00  0.00    +0.000 C 
ATOM     16  C   UNL     1       2.222   7.653  20.072  0.00  0.00    +0.000 C 
BRANCH  11  22
ATOM     17  C   UNL     1       3.878   5.563  17.796  0.00  0.00    +0.000 A 
ATOM     18  C   UNL     1       4.087   4.263  17.310  0.00  0.00    +0.000 A 
ATOM     19  C   UNL     1       3.043   3.349  17.228  0.00  0.00    +0.000 A 
ATOM     20  C   UNL     1       1.775   3.735  17.627  0.00  0.00    +0.000 A 
ATOM     21  C   UNL     1       1.553   5.029  18.106  0.00  0.00    +0.000 A 
ATOM     22  C   UNL     1       2.580   5.990  18.202  0.00  0.00    +0.000 A 
BRANCH  17  24
ATOM     23  C   UNL     1       5.542   6.712  16.537  0.00  0.00    +0.000 C 
ATOM     24  O   UNL     1       4.903   6.492  17.792  0.00  0.00    +0.000 OA
ENDBRANCH  17  24
ENDBRANCH  11  22
ENDBRANCH   1  14
BRANCH   7  25
ATOM     25  C   UNL     1       3.271  14.973  18.561  0.00  0.00    +0.000 C 
ATOM     26  O   UNL     1       3.140  15.700  17.578  0.00  0.00    +0.000 OA
ATOM     27  N   UNL     1       4.439  14.957  19.288  0.00  0.00    +0.000 N 
ATOM     28  H   UNL     1       4.532  14.313  20.065  0.00  0.00    +0.000 HD
BRANCH  27  29
ATOM     29  C   UNL     1       5.573  15.807  18.971  0.00  0.00    +0.000 C 
BRANCH  29  30
ATOM     30  C   UNL     1       6.815  14.997  18.605  0.00  0.00    +0.000 C 
ATOM     31  C   UNL     1       7.735  14.670  19.772  0.00  0.00    +0.000 C 
ATOM     32  C   UNL     1       9.079  14.571  19.091  0.00  0.00    +0.000 C 
ATOM     33  C   UNL     1       8.981  15.649  18.034  0.00  0.00    +0.000 C 
ATOM     34  O   UNL     1       7.604  15.730  17.645  0.00  0.00    +0.000 OA
ENDBRANCH  29  30
ENDBRANCH  27  29
ENDBRANCH   7  25
TORSDOF 6
ENDMDL
