MODEL 1
REMARK VINA RESULT:      -8.5      0.000      0.000
REMARK  Name = 
REMARK  9 active torsions:
REMARK  status: ('A' for Active; 'I' for Inactive)
REMARK    1  A    between atoms: C_1  and  N_2
REMARK    2  A    between atoms: N_5  and  C_6
REMARK    3  A    between atoms: C_6  and  C_7
REMARK    4  A    between atoms: C_7  and  C_8
REMARK    5  A    between atoms: C_8  and  N_9
REMARK    6  A    between atoms: N_9  and  C_10
REMARK    7  A    between atoms: C_11  and  C_13
REMARK    8  A    between atoms: C_17  and  N_18
REMARK    9  A    between atoms: C_23  and  C_24
REMARK                            x       y       z     vdW  Elec       q    Type
REMARK                         _______ _______ _______ _____ _____    ______ ____
ROOT
ATOM      1  C   UNL     1       0.355  11.635  19.178  0.00  0.00    +0.000 A 
ATOM      2  C   UNL     1       0.407  10.864  20.328  0.00  0.00    +0.000 A 
ATOM      3  C   UNL     1       1.028   9.629  20.014  0.00  0.00    +0.000 A 
ATOM      4  C   UNL     1       1.295   8.445  20.728  0.00  0.00    +0.000 A 
ATOM      5  C   UNL     1       1.871   7.344  20.071  0.00  0.00    +0.000 A 
ATOM      6  C   UNL     1       2.226   7.482  18.723  0.00  0.00    +0.000 A 
ATOM      7  C   UNL     1       1.995   8.649  17.994  0.00  0.00    +0.000 A 
ATOM      8  C   UNL     1       1.401   9.701  18.678  0.00  0.00    +0.000 A 
ATOM      9  N   UNL     1       1.094  10.961  18.241  0.00  0.00    +0.000 N 
ATOM     10  H   UNL     1       1.352  11.317  17.335  0.00  0.00    +0.000 HD
ENDROOT
BRANCH   5  11
ATOM     11  N   UNL     1       2.088   6.158  20.800  0.00  0.00    +0.000 N 
ATOM     12  C   UNL     1       2.798   5.021  20.423  0.00  0.00    +0.000 A 
ATOM     13  N   UNL     1       2.412   3.870  20.984  0.00  0.00    +0.000 NA
ATOM     14  C   UNL     1       2.984   2.745  20.521  0.00  0.00    +0.000 A 
ATOM     15  C   UNL     1       3.923   2.725  19.519  0.00  0.00    +0.000 A 
ATOM     16  C   UNL     1       4.302   3.954  19.022  0.00  0.00    +0.000 A 
ATOM     17  N   UNL     1       3.758   5.092  19.490  0.00  0.00    +0.000 NA
ATOM     18  H   UNL     1       1.320   5.864  21.390  0.00  0.00    +0.000 HD
BRANCH  16  19
ATOM     19  C   UNL     1       5.291   4.115  17.941  0.00  0.00    +0.000 A 
ATOM     20  C   UNL     1       6.566   4.637  18.182  0.00  0.00    +0.000 A 
ATOM     21  C   UNL     1       7.460   4.779  17.123  0.00  0.00    +0.000 A 
ATOM     22  C   UNL     1       7.057   4.416  15.846  0.00  0.00    +0.000 A 
ATOM     23  C   UNL     1       5.776   3.916  15.682  0.00  0.00    +0.000 A 
ATOM     24  N   UNL     1       4.895   3.745  16.693  0.00  0.00    +0.000 NA
ENDBRANCH  16  19
ENDBRANCH   5  11
BRANCH   1  27
ATOM     25  N   UNL     1       0.528  14.078  19.122  0.00  0.00    +0.000 N 
ATOM     26  C   UNL     1       1.987  14.082  19.103  0.00  0.00    +0.000 C 
ATOM     27  C   UNL     1      -0.269  12.928  19.008  0.00  0.00    +0.000 C 
ATOM     28  O   UNL     1      -1.468  13.011  18.750  0.00  0.00    +0.000 OA
BRANCH  25  29
ATOM     29  C   UNL     1      -0.138  15.366  18.931  0.00  0.00    +0.000 C 
BRANCH  29  30
ATOM     30  C   UNL     1      -0.238  16.195  20.212  0.00  0.00    +0.000 C 
BRANCH  30  31
ATOM     31  C   UNL     1      -1.290  15.680  21.203  0.00  0.00    +0.000 C 
BRANCH  31  36
ATOM     32  C   UNL     1      -3.883  12.634  23.916  0.00  0.00    +0.000 C 
ATOM     33  N   UNL     1      -2.639  13.388  23.826  0.00  0.00    +0.000 NA
ATOM     34  C   UNL     1      -2.896  14.837  23.768  0.00  0.00    +0.000 C 
ATOM     35  C   UNL     1      -1.581  15.641  23.647  0.00  0.00    +0.000 C 
ATOM     36  N   UNL     1      -0.728  15.261  22.498  0.00  0.00    +0.000 NA
ATOM     37  C   UNL     1      -0.528  13.793  22.554  0.00  0.00    +0.000 C 
ATOM     38  C   UNL     1      -1.835  12.969  22.664  0.00  0.00    +0.000 C 
ENDBRANCH  31  36
ENDBRANCH  30  31
ENDBRANCH  29  30
ENDBRANCH  25  29
ENDBRANCH   1  27
TORSDOF 7
ENDMDL
MODEL 2
REMARK VINA RESULT:      -8.4      0.874      1.073
REMARK  Name = 
REMARK  9 active torsions:
REMARK  status: ('A' for Active; 'I' for Inactive)
REMARK    1  A    between atoms: C_1  and  N_2
REMARK    2  A    between atoms: N_5  and  C_6
REMARK    3  A    between atoms: C_6  and  C_7
REMARK    4  A    between atoms: C_7  and  C_8
REMARK    5  A    between atoms: C_8  and  N_9
REMARK    6  A    between atoms: N_9  and  C_10
REMARK    7  A    between atoms: C_11  and  C_13
REMARK    8  A    between atoms: C_17  and  N_18
REMARK    9  A    between atoms: C_23  and  C_24
REMARK                            x       y       z     vdW  Elec       q    Type
REMARK                         _______ _______ _______ _____ _____    ______ ____
ROOT
ATOM      1  C   UNL     1       0.092  11.618  19.462  0.00  0.00    +0.000 A 
ATOM      2  C   UNL     1       0.253  10.764  20.541  0.00  0.00    +0.000 A 
ATOM      3  C   UNL     1       0.945   9.608  20.101  0.00  0.00    +0.000 A 
ATOM      4  C   UNL     1       1.329   8.394  20.702  0.00  0.00    +0.000 A 
ATOM      5  C   UNL     1       1.950   7.395  19.933  0.00  0.00    +0.000 A 
ATOM      6  C   UNL     1       2.230   7.666  18.587  0.00  0.00    +0.000 A 
ATOM      7  C   UNL     1       1.882   8.866  17.968  0.00  0.00    +0.000 A 
ATOM      8  C   UNL     1       1.247   9.813  18.760  0.00  0.00    +0.000 A 
ATOM      9  N   UNL     1       0.832  11.077  18.443  0.00  0.00    +0.000 N 
ATOM     10  H   UNL     1       1.020  11.522  17.559  0.00  0.00    +0.000 HD
ENDROOT
BRANCH   5  11
ATOM     11  N   UNL     1       2.285   6.175  20.552  0.00  0.00    +0.000 N 
ATOM     12  C   UNL     1       2.995   5.097  20.027  0.00  0.00    +0.000 A 
ATOM     13  N   UNL     1       2.711   3.895  20.542  0.00  0.00    +0.000 NA
ATOM     14  C   UNL     1       3.274   2.830  19.946  0.00  0.00    +0.000 A 
ATOM     15  C   UNL     1       4.104   2.917  18.856  0.00  0.00    +0.000 A 
ATOM     16  C   UNL     1       4.383   4.191  18.410  0.00  0.00    +0.000 A 
ATOM     17  N   UNL     1       3.849   5.271  19.009  0.00  0.00    +0.000 NA
ATOM     18  H   UNL     1       1.595   5.808  21.195  0.00  0.00    +0.000 HD
BRANCH  16  19
ATOM     19  C   UNL     1       5.248   4.466  17.248  0.00  0.00    +0.000 A 
ATOM     20  C   UNL     1       5.436   3.525  16.230  0.00  0.00    +0.000 A 
ATOM     21  C   UNL     1       6.272   3.830  15.160  0.00  0.00    +0.000 A 
ATOM     22  C   UNL     1       6.918   5.058  15.136  0.00  0.00    +0.000 A 
ATOM     23  C   UNL     1       6.693   5.935  16.184  0.00  0.00    +0.000 A 
ATOM     24  N   UNL     1       5.868   5.676  17.224  0.00  0.00    +0.000 NA
ENDBRANCH  16  19
ENDBRANCH   5  11
BRANCH   1  27
ATOM     25  N   UNL     1       0.063  14.053  19.725  0.00  0.00    +0.000 N 
ATOM     26  C   UNL     1       1.517  14.172  19.780  0.00  0.00    +0.000 C 
ATOM     27  C   UNL     1      -0.630  12.870  19.425  0.00  0.00    +0.000 C 
ATOM     28  O   UNL     1      -1.820  12.893  19.120  0.00  0.00    +0.000 OA
BRANCH  25  29
ATOM     29  C   UNL     1      -0.699  15.300  19.665  0.00  0.00    +0.000 C 
BRANCH  29  30
ATOM     30  C   UNL     1      -0.938  15.933  21.037  0.00  0.00    +0.000 C 
BRANCH  30  31
ATOM     31  C   UNL     1      -1.930  15.157  21.912  0.00  0.00    +0.000 C 
BRANCH  31  36
ATOM     32  C   UNL     1      -4.727  12.372  24.703  0.00  0.00    +0.000 C 
ATOM     33  N   UNL     1      -3.373  12.863  24.484  0.00  0.00    +0.000 NA
ATOM     34  C   UNL     1      -3.309  14.329  24.612  0.00  0.00    +0.000 C 
ATOM     35  C   UNL     1      -1.879  14.858  24.355  0.00  0.00    +0.000 C 
ATOM     36  N   UNL     1      -1.299  14.466  23.050  0.00  0.00    +0.000 NA
ATOM     37  C   UNL     1      -1.423  12.994  22.929  0.00  0.00    +0.000 C 
ATOM     38  C   UNL     1      -2.851  12.445  23.170  0.00  0.00    +0.000 C 
ENDBRANCH  31  36
ENDBRANCH  30  31
ENDBRANCH  29  30
ENDBRANCH  25  29
ENDBRANCH   1  27
TORSDOF 7
ENDMDL
MODEL 3
REMARK VINA RESULT:      -8.4      1.470      1.814
REMARK  Name = 
REMARK  9 active torsions:
REMARK  status: ('A' for Active; 'I' for Inactive)
REMARK    1  A    between atoms: C_1  and  N_2
REMARK    2  A    between atoms: N_5  and  C_6
REMARK    3  A    between atoms: C_6  and  C_7
REMARK    4  A    between atoms: C_7  and  C_8
REMARK    5  A    between atoms: C_8  and  N_9
REMARK    6  A    between atoms: N_9  and  C_10
REMARK    7  A    between atoms: C_11  and  C_13
REMARK    8  A    between atoms: C_17  and  N_18
REMARK    9  A    between atoms: C_23  and  C_24
REMARK                            x       y       z     vdW  Elec       q    Type
REMARK                         _______ _______ _______ _____ _____    ______ ____
ROOT
ATOM      1  C   UNL     1       0.091  11.380  19.353  0.00  0.00    +0.000 A 
ATOM      2  C   UNL     1       0.089  10.562  20.471  0.00  0.00    +0.000 A 
ATOM      3  C   UNL     1       0.833   9.392  20.174  0.00  0.00    +0.000 A 
ATOM      4  C   UNL     1       1.119   8.199  20.864  0.00  0.00    +0.000 A 
ATOM      5  C   UNL     1       1.842   7.175  20.227  0.00  0.00    +0.000 A 
ATOM      6  C   UNL     1       2.317   7.402  18.928  0.00  0.00    +0.000 A 
ATOM      7  C   UNL     1       2.069   8.581  18.227  0.00  0.00    +0.000 A 
ATOM      8  C   UNL     1       1.329   9.554  18.886  0.00  0.00    +0.000 A 
ATOM      9  N   UNL     1       0.970  10.806  18.471  0.00  0.00    +0.000 N 
ATOM     10  H   UNL     1       1.287  11.223  17.611  0.00  0.00    +0.000 HD
ENDROOT
BRANCH   5  11
ATOM     11  N   UNL     1       2.078   5.976  20.927  0.00  0.00    +0.000 N 
ATOM     12  C   UNL     1       2.812   4.863  20.526  0.00  0.00    +0.000 A 
ATOM     13  N   UNL     1       2.445   3.690  21.055  0.00  0.00    +0.000 NA
ATOM     14  C   UNL     1       3.041   2.588  20.568  0.00  0.00    +0.000 A 
ATOM     15  C   UNL     1       3.986   2.611  19.571  0.00  0.00    +0.000 A 
ATOM     16  C   UNL     1       4.343   3.859  19.108  0.00  0.00    +0.000 A 
ATOM     17  N   UNL     1       3.775   4.975  19.601  0.00  0.00    +0.000 NA
ATOM     18  H   UNL     1       1.313   5.652  21.505  0.00  0.00    +0.000 HD
BRANCH  16  19
ATOM     19  C   UNL     1       5.335   4.066  18.036  0.00  0.00    +0.000 A 
ATOM     20  C   UNL     1       5.021   3.849  16.690  0.00  0.00    +0.000 A 
ATOM     21  C   UNL     1       5.998   4.048  15.718  0.00  0.00    +0.000 A 
ATOM     22  C   UNL     1       7.270   4.441  16.109  0.00  0.00    +0.000 A 
ATOM     23  C   UNL     1       7.510   4.627  17.460  0.00  0.00    +0.000 A 
ATOM     24  N   UNL     1       6.576   4.464  18.424  0.00  0.00    +0.000 NA
ENDBRANCH  16  19
ENDBRANCH   5  11
BRANCH   1  27
ATOM     25  N   UNL     1      -0.277  13.715  19.994  0.00  0.00    +0.000 N 
ATOM     26  C   UNL     1       0.923  13.789  20.821  0.00  0.00    +0.000 C 
ATOM     27  C   UNL     1      -0.612  12.629  19.170  0.00  0.00    +0.000 C 
ATOM     28  O   UNL     1      -1.472  12.738  18.298  0.00  0.00    +0.000 OA
BRANCH  25  29
ATOM     29  C   UNL     1      -1.002  14.965  19.771  0.00  0.00    +0.000 C 
BRANCH  29  30
ATOM     30  C   UNL     1      -1.574  15.574  21.052  0.00  0.00    +0.000 C 
BRANCH  30  31
ATOM     31  C   UNL     1      -3.037  15.193  21.318  0.00  0.00    +0.000 C 
BRANCH  31  36
ATOM     32  C   UNL     1      -7.521  13.693  22.320  0.00  0.00    +0.000 C 
ATOM     33  N   UNL     1      -6.102  13.445  22.543  0.00  0.00    +0.000 NA
ATOM     34  C   UNL     1      -5.461  14.585  23.221  0.00  0.00    +0.000 C 
ATOM     35  C   UNL     1      -3.951  14.339  23.438  0.00  0.00    +0.000 C 
ATOM     36  N   UNL     1      -3.192  14.027  22.205  0.00  0.00    +0.000 NA
ATOM     37  C   UNL     1      -3.887  12.912  21.520  0.00  0.00    +0.000 C 
ATOM     38  C   UNL     1      -5.400  13.145  21.282  0.00  0.00    +0.000 C 
ENDBRANCH  31  36
ENDBRANCH  30  31
ENDBRANCH  29  30
ENDBRANCH  25  29
ENDBRANCH   1  27
TORSDOF 7
ENDMDL
MODEL 4
REMARK VINA RESULT:      -8.3      1.337      1.464
REMARK  Name = 
REMARK  9 active torsions:
REMARK  status: ('A' for Active; 'I' for Inactive)
REMARK    1  A    between atoms: C_1  and  N_2
REMARK    2  A    between atoms: N_5  and  C_6
REMARK    3  A    between atoms: C_6  and  C_7
REMARK    4  A    between atoms: C_7  and  C_8
REMARK    5  A    between atoms: C_8  and  N_9
REMARK    6  A    between atoms: N_9  and  C_10
REMARK    7  A    between atoms: C_11  and  C_13
REMARK    8  A    between atoms: C_17  and  N_18
REMARK    9  A    between atoms: C_23  and  C_24
REMARK                            x       y       z     vdW  Elec       q    Type
REMARK                         _______ _______ _______ _____ _____    ______ ____
ROOT
ATOM      1  C   UNL     1       0.178  11.508  19.326  0.00  0.00    +0.000 A 
ATOM      2  C   UNL     1       0.226  10.685  20.439  0.00  0.00    +0.000 A 
ATOM      3  C   UNL     1       0.937   9.507  20.098  0.00  0.00    +0.000 A 
ATOM      4  C   UNL     1       1.244   8.307  20.767  0.00  0.00    +0.000 A 
ATOM      5  C   UNL     1       1.916   7.276  20.087  0.00  0.00    +0.000 A 
ATOM      6  C   UNL     1       2.323   7.503  18.765  0.00  0.00    +0.000 A 
ATOM      7  C   UNL     1       2.052   8.688  18.083  0.00  0.00    +0.000 A 
ATOM      8  C   UNL     1       1.364   9.667  18.786  0.00  0.00    +0.000 A 
ATOM      9  N   UNL     1       0.999  10.927  18.395  0.00  0.00    +0.000 N 
ATOM     10  H   UNL     1       1.275  11.343  17.520  0.00  0.00    +0.000 HD
ENDROOT
BRANCH   5  11
ATOM     11  N   UNL     1       2.173   6.070  20.769  0.00  0.00    +0.000 N 
ATOM     12  C   UNL     1       2.882   4.955  20.330  0.00  0.00    +0.000 A 
ATOM     13  N   UNL     1       2.530   3.781  20.866  0.00  0.00    +0.000 NA
ATOM     14  C   UNL     1       3.096   2.679  20.346  0.00  0.00    +0.000 A 
ATOM     15  C   UNL     1       3.998   2.703  19.310  0.00  0.00    +0.000 A 
ATOM     16  C   UNL     1       4.343   3.951  18.840  0.00  0.00    +0.000 A 
ATOM     17  N   UNL     1       3.805   5.067  19.364  0.00  0.00    +0.000 NA
ATOM     18  H   UNL     1       1.432   5.748  21.377  0.00  0.00    +0.000 HD
BRANCH  16  19
ATOM     19  C   UNL     1       5.290   4.159  17.728  0.00  0.00    +0.000 A 
ATOM     20  C   UNL     1       6.587   4.635  17.945  0.00  0.00    +0.000 A 
ATOM     21  C   UNL     1       7.438   4.824  16.859  0.00  0.00    +0.000 A 
ATOM     22  C   UNL     1       6.972   4.554  15.580  0.00  0.00    +0.000 A 
ATOM     23  C   UNL     1       5.673   4.095  15.442  0.00  0.00    +0.000 A 
ATOM     24  N   UNL     1       4.832   3.879  16.478  0.00  0.00    +0.000 NA
ENDBRANCH  16  19
ENDBRANCH   5  11
BRANCH   1  27
ATOM     25  N   UNL     1       0.030  13.907  19.799  0.00  0.00    +0.000 N 
ATOM     26  C   UNL     1       1.392  13.999  20.314  0.00  0.00    +0.000 C 
ATOM     27  C   UNL     1      -0.517  12.768  19.187  0.00  0.00    +0.000 C 
ATOM     28  O   UNL     1      -1.554  12.837  18.531  0.00  0.00    +0.000 OA
BRANCH  25  29
ATOM     29  C   UNL     1      -0.696  15.164  19.625  0.00  0.00    +0.000 C 
BRANCH  29  30
ATOM     30  C   UNL     1      -1.219  15.751  20.937  0.00  0.00    +0.000 C 
BRANCH  30  31
ATOM     31  C   UNL     1      -2.750  15.796  21.029  0.00  0.00    +0.000 C 
BRANCH  31  36
ATOM     32  C   UNL     1      -5.842  12.105  20.608  0.00  0.00    +0.000 C 
ATOM     33  N   UNL     1      -5.132  12.966  21.546  0.00  0.00    +0.000 NA
ATOM     34  C   UNL     1      -5.529  14.375  21.383  0.00  0.00    +0.000 C 
ATOM     35  C   UNL     1      -4.761  15.297  22.357  0.00  0.00    +0.000 C 
ATOM     36  N   UNL     1      -3.286  15.202  22.265  0.00  0.00    +0.000 NA
ATOM     37  C   UNL     1      -2.921  13.770  22.382  0.00  0.00    +0.000 C 
ATOM     38  C   UNL     1      -3.671  12.831  21.405  0.00  0.00    +0.000 C 
ENDBRANCH  31  36
ENDBRANCH  30  31
ENDBRANCH  29  30
ENDBRANCH  25  29
ENDBRANCH   1  27
TORSDOF 7
ENDMDL
MODEL 5
REMARK VINA RESULT:      -8.3      1.715      3.547
REMARK  Name = 
REMARK  9 active torsions:
REMARK  status: ('A' for Active; 'I' for Inactive)
REMARK    1  A    between atoms: C_1  and  N_2
REMARK    2  A    between atoms: N_5  and  C_6
REMARK    3  A    between atoms: C_6  and  C_7
REMARK    4  A    between atoms: C_7  and  C_8
REMARK    5  A    between atoms: C_8  and  N_9
REMARK    6  A    between atoms: N_9  and  C_10
REMARK    7  A    between atoms: C_11  and  C_13
REMARK    8  A    between atoms: C_17  and  N_18
REMARK    9  A    between atoms: C_23  and  C_24
REMARK                            x       y       z     vdW  Elec       q    Type
REMARK                         _______ _______ _______ _____ _____    ______ ____
ROOT
ATOM      1  C   UNL     1      -0.049  11.281  19.657  0.00  0.00    +0.000 A 
ATOM      2  C   UNL     1       0.010  10.400  20.725  0.00  0.00    +0.000 A 
ATOM      3  C   UNL     1       0.796   9.283  20.345  0.00  0.00    +0.000 A 
ATOM      4  C   UNL     1       1.149   8.066  20.958  0.00  0.00    +0.000 A 
ATOM      5  C   UNL     1       1.899   7.113  20.247  0.00  0.00    +0.000 A 
ATOM      6  C   UNL     1       2.334   7.435  18.955  0.00  0.00    +0.000 A 
ATOM      7  C   UNL     1       2.019   8.641  18.328  0.00  0.00    +0.000 A 
ATOM      8  C   UNL     1       1.255   9.540  19.059  0.00  0.00    +0.000 A 
ATOM      9  N   UNL     1       0.833  10.798  18.725  0.00  0.00    +0.000 N 
ATOM     10  H   UNL     1       1.112  11.277  17.885  0.00  0.00    +0.000 HD
ENDROOT
BRANCH   5  11
ATOM     11  N   UNL     1       2.202   5.887  20.871  0.00  0.00    +0.000 N 
ATOM     12  C   UNL     1       2.918   4.805  20.365  0.00  0.00    +0.000 A 
ATOM     13  N   UNL     1       2.606   3.604  20.863  0.00  0.00    +0.000 NA
ATOM     14  C   UNL     1       3.179   2.535  20.282  0.00  0.00    +0.000 A 
ATOM     15  C   UNL     1       4.047   2.620  19.220  0.00  0.00    +0.000 A 
ATOM     16  C   UNL     1       4.352   3.893  18.791  0.00  0.00    +0.000 A 
ATOM     17  N   UNL     1       3.808   4.976  19.377  0.00  0.00    +0.000 NA
ATOM     18  H   UNL     1       1.487   5.524  21.488  0.00  0.00    +0.000 HD
BRANCH  16  19
ATOM     19  C   UNL     1       5.259   4.166  17.660  0.00  0.00    +0.000 A 
ATOM     20  C   UNL     1       6.580   4.579  17.859  0.00  0.00    +0.000 A 
ATOM     21  C   UNL     1       7.392   4.834  16.757  0.00  0.00    +0.000 A 
ATOM     22  C   UNL     1       6.864   4.691  15.482  0.00  0.00    +0.000 A 
ATOM     23  C   UNL     1       5.544   4.288  15.362  0.00  0.00    +0.000 A 
ATOM     24  N   UNL     1       4.739   4.010  16.412  0.00  0.00    +0.000 NA
ENDBRANCH  16  19
ENDBRANCH   5  11
BRANCH   1  27
ATOM     25  N   UNL     1      -0.454  13.581  20.395  0.00  0.00    +0.000 N 
ATOM     26  C   UNL     1       0.798  13.679  21.136  0.00  0.00    +0.000 C 
ATOM     27  C   UNL     1      -0.808  12.506  19.563  0.00  0.00    +0.000 C 
ATOM     28  O   UNL     1      -1.731  12.606  18.758  0.00  0.00    +0.000 OA
BRANCH  25  29
ATOM     29  C   UNL     1      -1.239  14.808  20.261  0.00  0.00    +0.000 C 
BRANCH  29  30
ATOM     30  C   UNL     1      -0.381  16.070  20.154  0.00  0.00    +0.000 C 
BRANCH  30  31
ATOM     31  C   UNL     1       0.190  16.313  18.751  0.00  0.00    +0.000 C 
BRANCH  31  36
ATOM     32  C   UNL     1       5.021  16.286  18.601  0.00  0.00    +0.000 C 
ATOM     33  N   UNL     1       3.831  17.126  18.552  0.00  0.00    +0.000 NA
ATOM     34  C   UNL     1       3.061  17.035  19.804  0.00  0.00    +0.000 C 
ATOM     35  C   UNL     1       1.783  17.903  19.748  0.00  0.00    +0.000 C 
ATOM     36  N   UNL     1       0.883  17.605  18.610  0.00  0.00    +0.000 NA
ATOM     37  C   UNL     1       1.695  17.655  17.371  0.00  0.00    +0.000 C 
ATOM     38  C   UNL     1       2.973  16.782  17.403  0.00  0.00    +0.000 C 
ENDBRANCH  31  36
ENDBRANCH  30  31
ENDBRANCH  29  30
ENDBRANCH  25  29
ENDBRANCH   1  27
TORSDOF 7
ENDMDL
MODEL 6
REMARK VINA RESULT:      -8.1      1.309      1.785
REMARK  Name = 
REMARK  9 active torsions:
REMARK  status: ('A' for Active; 'I' for Inactive)
REMARK    1  A    between atoms: C_1  and  N_2
REMARK    2  A    between atoms: N_5  and  C_6
REMARK    3  A    between atoms: C_6  and  C_7
REMARK    4  A    between atoms: C_7  and  C_8
REMARK    5  A    between atoms: C_8  and  N_9
REMARK    6  A    between atoms: N_9  and  C_10
REMARK    7  A    between atoms: C_11  and  C_13
REMARK    8  A    between atoms: C_17  and  N_18
REMARK    9  A    between atoms: C_23  and  C_24
REMARK                            x       y       z     vdW  Elec       q    Type
REMARK                         _______ _______ _______ _____ _____    ______ ____
ROOT
ATOM      1  C   UNL     1       0.448  11.766  19.094  0.00  0.00    +0.000 A 
ATOM      2  C   UNL     1       0.447  11.006  20.253  0.00  0.00    +0.000 A 
ATOM      3  C   UNL     1       1.055   9.757  19.973  0.00  0.00    +0.000 A 
ATOM      4  C   UNL     1       1.275   8.576  20.707  0.00  0.00    +0.000 A 
ATOM      5  C   UNL     1       1.850   7.456  20.081  0.00  0.00    +0.000 A 
ATOM      6  C   UNL     1       2.252   7.573  18.744  0.00  0.00    +0.000 A 
ATOM      7  C   UNL     1       2.067   8.736  17.996  0.00  0.00    +0.000 A 
ATOM      8  C   UNL     1       1.472   9.806  18.649  0.00  0.00    +0.000 A 
ATOM      9  N   UNL     1       1.204  11.067  18.190  0.00  0.00    +0.000 N 
ATOM     10  H   UNL     1       1.498  11.408  17.289  0.00  0.00    +0.000 HD
ENDROOT
BRANCH   5  11
ATOM     11  N   UNL     1       2.020   6.275  20.829  0.00  0.00    +0.000 N 
ATOM     12  C   UNL     1       2.720   5.120  20.487  0.00  0.00    +0.000 A 
ATOM     13  N   UNL     1       2.293   3.982  21.046  0.00  0.00    +0.000 NA
ATOM     14  C   UNL     1       2.858   2.842  20.614  0.00  0.00    +0.000 A 
ATOM     15  C   UNL     1       3.829   2.793  19.644  0.00  0.00    +0.000 A 
ATOM     16  C   UNL     1       4.247   4.009  19.147  0.00  0.00    +0.000 A 
ATOM     17  N   UNL     1       3.711   5.162  19.585  0.00  0.00    +0.000 NA
ATOM     18  H   UNL     1       1.229   6.001  21.396  0.00  0.00    +0.000 HD
BRANCH  16  19
ATOM     19  C   UNL     1       5.274   4.139  18.097  0.00  0.00    +0.000 A 
ATOM     20  C   UNL     1       4.988   3.885  16.751  0.00  0.00    +0.000 A 
ATOM     21  C   UNL     1       5.997   4.012  15.800  0.00  0.00    +0.000 A 
ATOM     22  C   UNL     1       7.273   4.369  16.212  0.00  0.00    +0.000 A 
ATOM     23  C   UNL     1       7.484   4.594  17.562  0.00  0.00    +0.000 A 
ATOM     24  N   UNL     1       6.520   4.502  18.505  0.00  0.00    +0.000 NA
ENDBRANCH  16  19
ENDBRANCH   5  11
BRANCH   1  27
ATOM     25  N   UNL     1       0.507  14.192  19.421  0.00  0.00    +0.000 N 
ATOM     26  C   UNL     1       1.883  14.203  19.906  0.00  0.00    +0.000 C 
ATOM     27  C   UNL     1      -0.144  13.068  18.891  0.00  0.00    +0.000 C 
ATOM     28  O   UNL     1      -1.187  13.184  18.250  0.00  0.00    +0.000 OA
BRANCH  25  29
ATOM     29  C   UNL     1      -0.118  15.493  19.183  0.00  0.00    +0.000 C 
BRANCH  29  30
ATOM     30  C   UNL     1      -1.148  15.877  20.247  0.00  0.00    +0.000 C 
BRANCH  30  31
ATOM     31  C   UNL     1      -0.571  16.722  21.390  0.00  0.00    +0.000 C 
BRANCH  31  36
ATOM     32  C   UNL     1      -1.300  15.677  26.053  0.00  0.00    +0.000 C 
ATOM     33  N   UNL     1      -1.699  16.538  24.947  0.00  0.00    +0.000 NA
ATOM     34  C   UNL     1      -2.279  15.754  23.843  0.00  0.00    +0.000 C 
ATOM     35  C   UNL     1      -2.681  16.659  22.656  0.00  0.00    +0.000 C 
ATOM     36  N   UNL     1      -1.586  17.500  22.121  0.00  0.00    +0.000 NA
ATOM     37  C   UNL     1      -0.990  18.237  23.260  0.00  0.00    +0.000 C 
ATOM     38  C   UNL     1      -0.569  17.347  24.455  0.00  0.00    +0.000 C 
ENDBRANCH  31  36
ENDBRANCH  30  31
ENDBRANCH  29  30
ENDBRANCH  25  29
ENDBRANCH   1  27
TORSDOF 7
ENDMDL
MODEL 7
REMARK VINA RESULT:      -8.0      2.643      3.393
REMARK  Name = 
REMARK  9 active torsions:
REMARK  status: ('A' for Active; 'I' for Inactive)
REMARK    1  A    between atoms: C_1  and  N_2
REMARK    2  A    between atoms: N_5  and  C_6
REMARK    3  A    between atoms: C_6  and  C_7
REMARK    4  A    between atoms: C_7  and  C_8
REMARK    5  A    between atoms: C_8  and  N_9
REMARK    6  A    between atoms: N_9  and  C_10
REMARK    7  A    between atoms: C_11  and  C_13
REMARK    8  A    between atoms: C_17  and  N_18
REMARK    9  A    between atoms: C_23  and  C_24
REMARK                            x       y       z     vdW  Elec       q    Type
REMARK                         _______ _______ _______ _____ _____    ______ ____
ROOT
ATOM      1  C   UNL     1      -0.651  11.171  20.207  0.00  0.00    +0.000 A 
ATOM      2  C   UNL     1      -0.468  10.208  21.187  0.00  0.00    +0.000 A 
ATOM      3  C   UNL     1       0.440   9.236  20.698  0.00  0.00    +0.000 A 
ATOM      4  C   UNL     1       0.948   8.019  21.192  0.00  0.00    +0.000 A 
ATOM      5  C   UNL     1       1.796   7.235  20.390  0.00  0.00    +0.000 A 
ATOM      6  C   UNL     1       2.166   7.726  19.131  0.00  0.00    +0.000 A 
ATOM      7  C   UNL     1       1.697   8.937  18.623  0.00  0.00    +0.000 A 
ATOM      8  C   UNL     1       0.842   9.665  19.440  0.00  0.00    +0.000 A 
ATOM      9  N   UNL     1       0.266  10.887  19.228  0.00  0.00    +0.000 N 
ATOM     10  H   UNL     1       0.470  11.472  18.434  0.00  0.00    +0.000 HD
ENDROOT
BRANCH   5  11
ATOM     11  N   UNL     1       2.255   6.002  20.894  0.00  0.00    +0.000 N 
ATOM     12  C   UNL     1       2.901   4.970  20.217  0.00  0.00    +0.000 A 
ATOM     13  N   UNL     1       2.733   3.740  20.716  0.00  0.00    +0.000 NA
ATOM     14  C   UNL     1       3.222   2.718  19.993  0.00  0.00    +0.000 A 
ATOM     15  C   UNL     1       3.868   2.876  18.791  0.00  0.00    +0.000 A 
ATOM     16  C   UNL     1       4.040   4.175  18.365  0.00  0.00    +0.000 A 
ATOM     17  N   UNL     1       3.580   5.213  19.087  0.00  0.00    +0.000 NA
ATOM     18  H   UNL     1       1.684   5.588  21.619  0.00  0.00    +0.000 HD
BRANCH  16  19
ATOM     19  C   UNL     1       4.705   4.525  17.096  0.00  0.00    +0.000 A 
ATOM     20  C   UNL     1       5.341   3.559  16.307  0.00  0.00    +0.000 A 
ATOM     21  C   UNL     1       5.964   3.944  15.123  0.00  0.00    +0.000 A 
ATOM     22  C   UNL     1       5.956   5.283  14.759  0.00  0.00    +0.000 A 
ATOM     23  C   UNL     1       5.316   6.183  15.594  0.00  0.00    +0.000 A 
ATOM     24  N   UNL     1       4.683   5.837  16.738  0.00  0.00    +0.000 NA
ENDBRANCH  16  19
ENDBRANCH   5  11
BRANCH   1  27
ATOM     25  N   UNL     1      -1.741  12.981  21.445  0.00  0.00    +0.000 N 
ATOM     26  C   UNL     1      -0.881  12.844  22.615  0.00  0.00    +0.000 C 
ATOM     27  C   UNL     1      -1.555  12.298  20.233  0.00  0.00    +0.000 C 
ATOM     28  O   UNL     1      -2.131  12.658  19.208  0.00  0.00    +0.000 OA
BRANCH  25  29
ATOM     29  C   UNL     1      -2.654  14.124  21.427  0.00  0.00    +0.000 C 
BRANCH  29  30
ATOM     30  C   UNL     1      -3.906  13.915  22.281  0.00  0.00    +0.000 C 
BRANCH  30  31
ATOM     31  C   UNL     1      -4.789  12.751  21.810  0.00  0.00    +0.000 C 
BRANCH  31  36
ATOM     32  C   UNL     1      -7.277  12.756  17.666  0.00  0.00    +0.000 C 
ATOM     33  N   UNL     1      -7.364  12.931  19.110  0.00  0.00    +0.000 NA
ATOM     34  C   UNL     1      -6.543  14.068  19.561  0.00  0.00    +0.000 C 
ATOM     35  C   UNL     1      -6.611  14.243  21.095  0.00  0.00    +0.000 C 
ATOM     36  N   UNL     1      -6.232  13.041  21.873  0.00  0.00    +0.000 NA
ATOM     37  C   UNL     1      -7.036  11.905  21.364  0.00  0.00    +0.000 C 
ATOM     38  C   UNL     1      -6.971  11.705  19.829  0.00  0.00    +0.000 C 
ENDBRANCH  31  36
ENDBRANCH  30  31
ENDBRANCH  29  30
ENDBRANCH  25  29
ENDBRANCH   1  27
TORSDOF 7
ENDMDL
MODEL 8
REMARK VINA RESULT:      -7.9      1.623      2.461
REMARK  Name = 
REMARK  9 active torsions:
REMARK  status: ('A' for Active; 'I' for Inactive)
REMARK    1  A    between atoms: C_1  and  N_2
REMARK    2  A    between atoms: N_5  and  C_6
REMARK    3  A    between atoms: C_6  and  C_7
REMARK    4  A    between atoms: C_7  and  C_8
REMARK    5  A    between atoms: C_8  and  N_9
REMARK    6  A    between atoms: N_9  and  C_10
REMARK    7  A    between atoms: C_11  and  C_13
REMARK    8  A    between atoms: C_17  and  N_18
REMARK    9  A    between atoms: C_23  and  C_24
REMARK                            x       y       z     vdW  Elec       q    Type
REMARK                         _______ _______ _______ _____ _____    ______ ____
ROOT
ATOM      1  C   UNL     1      -0.577  11.222  20.013  0.00  0.00    +0.000 A 
ATOM      2  C   UNL     1      -0.402  10.277  21.011  0.00  0.00    +0.000 A 
ATOM      3  C   UNL     1       0.504   9.292  20.545  0.00  0.00    +0.000 A 
ATOM      4  C   UNL     1       1.005   8.083  21.063  0.00  0.00    +0.000 A 
ATOM      5  C   UNL     1       1.853   7.280  20.280  0.00  0.00    +0.000 A 
ATOM      6  C   UNL     1       2.231   7.747  19.014  0.00  0.00    +0.000 A 
ATOM      7  C   UNL     1       1.769   8.950  18.481  0.00  0.00    +0.000 A 
ATOM      8  C   UNL     1       0.914   9.696  19.281  0.00  0.00    +0.000 A 
ATOM      9  N   UNL     1       0.343  10.917  19.044  0.00  0.00    +0.000 N 
ATOM     10  H   UNL     1       0.554  11.486  18.241  0.00  0.00    +0.000 HD
ENDROOT
BRANCH   5  11
ATOM     11  N   UNL     1       2.305   6.055  20.808  0.00  0.00    +0.000 N 
ATOM     12  C   UNL     1       2.962   5.015  20.157  0.00  0.00    +0.000 A 
ATOM     13  N   UNL     1       2.787   3.792  20.670  0.00  0.00    +0.000 NA
ATOM     14  C   UNL     1       3.288   2.760  19.969  0.00  0.00    +0.000 A 
ATOM     15  C   UNL     1       3.954   2.901  18.776  0.00  0.00    +0.000 A 
ATOM     16  C   UNL     1       4.132   4.194  18.334  0.00  0.00    +0.000 A 
ATOM     17  N   UNL     1       3.659   5.242  19.034  0.00  0.00    +0.000 NA
ATOM     18  H   UNL     1       1.723   5.651  21.530  0.00  0.00    +0.000 HD
BRANCH  16  19
ATOM     19  C   UNL     1       4.817   4.527  17.071  0.00  0.00    +0.000 A 
ATOM     20  C   UNL     1       4.803   5.822  16.544  0.00  0.00    +0.000 A 
ATOM     21  C   UNL     1       5.455   6.081  15.342  0.00  0.00    +0.000 A 
ATOM     22  C   UNL     1       6.091   5.040  14.681  0.00  0.00    +0.000 A 
ATOM     23  C   UNL     1       6.055   3.781  15.258  0.00  0.00    +0.000 A 
ATOM     24  N   UNL     1       5.450   3.504  16.435  0.00  0.00    +0.000 NA
ENDBRANCH  16  19
ENDBRANCH   5  11
BRANCH   1  27
ATOM     25  N   UNL     1      -1.375  13.290  21.054  0.00  0.00    +0.000 N 
ATOM     26  C   UNL     1      -0.248  13.388  21.976  0.00  0.00    +0.000 C 
ATOM     27  C   UNL     1      -1.476  12.353  20.014  0.00  0.00    +0.000 C 
ATOM     28  O   UNL     1      -2.298  12.496  19.111  0.00  0.00    +0.000 OA
BRANCH  25  29
ATOM     29  C   UNL     1      -2.294  14.427  21.013  0.00  0.00    +0.000 C 
BRANCH  29  30
ATOM     30  C   UNL     1      -3.403  14.351  22.064  0.00  0.00    +0.000 C 
BRANCH  30  31
ATOM     31  C   UNL     1      -3.595  15.651  22.856  0.00  0.00    +0.000 C 
BRANCH  31  36
ATOM     32  C   UNL     1      -0.369  17.154  26.126  0.00  0.00    +0.000 C 
ATOM     33  N   UNL     1      -1.665  16.516  25.935  0.00  0.00    +0.000 NA
ATOM     34  C   UNL     1      -1.533  15.251  25.192  0.00  0.00    +0.000 C 
ATOM     35  C   UNL     1      -2.907  14.581  24.963  0.00  0.00    +0.000 C 
ATOM     36  N   UNL     1      -3.905  15.436  24.280  0.00  0.00    +0.000 NA
ATOM     37  C   UNL     1      -3.980  16.718  25.019  0.00  0.00    +0.000 C 
ATOM     38  C   UNL     1      -2.614  17.411  25.248  0.00  0.00    +0.000 C 
ENDBRANCH  31  36
ENDBRANCH  30  31
ENDBRANCH  29  30
ENDBRANCH  25  29
ENDBRANCH   1  27
TORSDOF 7
ENDMDL
MODEL 9
REMARK VINA RESULT:      -7.9      1.162      1.579
REMARK  Name = 
REMARK  9 active torsions:
REMARK  status: ('A' for Active; 'I' for Inactive)
REMARK    1  A    between atoms: C_1  and  N_2
REMARK    2  A    between atoms: N_5  and  C_6
REMARK    3  A    between atoms: C_6  and  C_7
REMARK    4  A    between atoms: C_7  and  C_8
REMARK    5  A    between atoms: C_8  and  N_9
REMARK    6  A    between atoms: N_9  and  C_10
REMARK    7  A    between atoms: C_11  and  C_13
REMARK    8  A    between atoms: C_17  and  N_18
REMARK    9  A    between atoms: C_23  and  C_24
REMARK                            x       y       z     vdW  Elec       q    Type
REMARK                         _______ _______ _______ _____ _____    ______ ____
ROOT
ATOM      1  C   UNL     1       0.794  11.899  19.538  0.00  0.00    +0.000 A 
ATOM      2  C   UNL     1       0.877  11.082  20.655  0.00  0.00    +0.000 A 
ATOM      3  C   UNL     1       1.270   9.786  20.236  0.00  0.00    +0.000 A 
ATOM      4  C   UNL     1       1.449   8.548  20.883  0.00  0.00    +0.000 A 
ATOM      5  C   UNL     1       1.774   7.404  20.133  0.00  0.00    +0.000 A 
ATOM      6  C   UNL     1       1.974   7.546  18.753  0.00  0.00    +0.000 A 
ATOM      7  C   UNL     1       1.824   8.761  18.086  0.00  0.00    +0.000 A 
ATOM      8  C   UNL     1       1.478   9.858  18.864  0.00  0.00    +0.000 A 
ATOM      9  N   UNL     1       1.305  11.165  18.499  0.00  0.00    +0.000 N 
ATOM     10  H   UNL     1       1.496  11.518  17.576  0.00  0.00    +0.000 HD
ENDROOT
BRANCH   5  11
ATOM     11  N   UNL     1       1.906   6.171  20.801  0.00  0.00    +0.000 N 
ATOM     12  C   UNL     1       2.615   5.039  20.408  0.00  0.00    +0.000 A 
ATOM     13  N   UNL     1       2.160   3.867  20.866  0.00  0.00    +0.000 NA
ATOM     14  C   UNL     1       2.737   2.756  20.378  0.00  0.00    +0.000 A 
ATOM     15  C   UNL     1       3.748   2.769  19.448  0.00  0.00    +0.000 A 
ATOM     16  C   UNL     1       4.192   4.013  19.057  0.00  0.00    +0.000 A 
ATOM     17  N   UNL     1       3.643   5.137  19.553  0.00  0.00    +0.000 NA
ATOM     18  H   UNL     1       1.090   5.864  21.314  0.00  0.00    +0.000 HD
BRANCH  16  19
ATOM     19  C   UNL     1       5.263   4.210  18.063  0.00  0.00    +0.000 A 
ATOM     20  C   UNL     1       5.020   4.111  16.689  0.00  0.00    +0.000 A 
ATOM     21  C   UNL     1       6.069   4.294  15.792  0.00  0.00    +0.000 A 
ATOM     22  C   UNL     1       7.341   4.553  16.283  0.00  0.00    +0.000 A 
ATOM     23  C   UNL     1       7.508   4.627  17.656  0.00  0.00    +0.000 A 
ATOM     24  N   UNL     1       6.505   4.477  18.550  0.00  0.00    +0.000 NA
ENDBRANCH  16  19
ENDBRANCH   5  11
BRANCH   1  27
ATOM     25  N   UNL     1      -0.993  13.555  19.783  0.00  0.00    +0.000 N 
ATOM     26  C   UNL     1      -1.908  12.629  20.443  0.00  0.00    +0.000 C 
ATOM     27  C   UNL     1       0.347  13.271  19.479  0.00  0.00    +0.000 C 
ATOM     28  O   UNL     1       1.133  14.170  19.186  0.00  0.00    +0.000 OA
BRANCH  25  29
ATOM     29  C   UNL     1      -1.404  14.957  19.724  0.00  0.00    +0.000 C 
BRANCH  29  30
ATOM     30  C   UNL     1      -1.374  15.658  21.083  0.00  0.00    +0.000 C 
BRANCH  30  31
ATOM     31  C   UNL     1      -2.765  15.974  21.648  0.00  0.00    +0.000 C 
BRANCH  31  36
ATOM     32  C   UNL     1      -4.319  12.485  24.611  0.00  0.00    +0.000 C 
ATOM     33  N   UNL     1      -3.785  13.840  24.539  0.00  0.00    +0.000 NA
ATOM     34  C   UNL     1      -4.692  14.732  23.797  0.00  0.00    +0.000 C 
ATOM     35  C   UNL     1      -4.119  16.164  23.695  0.00  0.00    +0.000 C 
ATOM     36  N   UNL     1      -2.768  16.249  23.095  0.00  0.00    +0.000 NA
ATOM     37  C   UNL     1      -1.892  15.305  23.828  0.00  0.00    +0.000 C 
ATOM     38  C   UNL     1      -2.442  13.861  23.931  0.00  0.00    +0.000 C 
ENDBRANCH  31  36
ENDBRANCH  30  31
ENDBRANCH  29  30
ENDBRANCH  25  29
ENDBRANCH   1  27
TORSDOF 7
ENDMDL
