MODEL 1
REMARK VINA RESULT:      -7.3      0.000      0.000
REMARK  Name = 
REMARK  8 active torsions:
REMARK  status: ('A' for Active; 'I' for Inactive)
REMARK    1  A    between atoms: C_2  and  C_3
REMARK    2  A    between atoms: C_3  and  N_4
REMARK    3  A    between atoms: N_6  and  C_7
REMARK    4  A    between atoms: C_7  and  C_8
REMARK    5  A    between atoms: C_8  and  C_9
REMARK    6  A    between atoms: N_13  and  C_14
REMARK    7  A    between atoms: N_17  and  C_18
REMARK    8  A    between atoms: C_18  and  C_19
REMARK                            x       y       z     vdW  Elec       q    Type
REMARK                         _______ _______ _______ _____ _____    ______ ____
ROOT
ATOM      1  N   UNL     1       6.738   6.054  16.195  0.00  0.00    +0.000 NA
ATOM      2  C   UNL     1       5.880   5.097  16.174  0.00  0.00    +0.000 C 
ATOM      3  N   UNL     1       4.798   4.923  17.005  0.00  0.00    +0.000 N 
ATOM      4  N   UNL     1       6.022   4.113  15.238  0.00  0.00    +0.000 N 
ATOM      5  H   UNL     1       4.262   5.774  17.181  0.00  0.00    +0.000 HD
ATOM      6  H   UNL     1       5.279   3.445  15.156  0.00  0.00    +0.000 HD
ENDROOT
BRANCH   1   7
ATOM      7  C   UNL     1       6.753   7.054  17.252  0.00  0.00    +0.000 C 
BRANCH   7   9
ATOM      8  C   UNL     1       7.812   5.832  19.247  0.00  0.00    +0.000 C 
ATOM      9  C   UNL     1       7.833   6.755  18.273  0.00  0.00    +0.000 C 
ENDBRANCH   7   9
ENDBRANCH   1   7
BRANCH   3  10
ATOM     10  C   UNL     1       4.030   3.690  17.166  0.00  0.00    +0.000 C 
BRANCH  10  11
ATOM     11  C   UNL     1       2.529   3.871  17.431  0.00  0.00    +0.000 C 
BRANCH  11  12
ATOM     12  C   UNL     1       2.247   4.682  18.661  0.00  0.00    +0.000 A 
ATOM     13  N   UNL     1       2.560   5.966  18.751  0.00  0.00    +0.000 NA
ATOM     14  C   UNL     1       2.214   6.363  20.012  0.00  0.00    +0.000 A 
ATOM     15  C   UNL     1       1.680   5.317  20.715  0.00  0.00    +0.000 A 
ATOM     16  N   UNL     1       1.704   4.243  19.852  0.00  0.00    +0.000 N 
BRANCH  16  17
ATOM     17  C   UNL     1       1.251   2.920  20.258  0.00  0.00    +0.000 C 
ATOM     18  F   UNL     1       0.886   2.919  21.568  0.00  0.00    +0.000 F 
ATOM     19  F   UNL     1       0.180   2.474  19.561  0.00  0.00    +0.000 F 
ENDBRANCH  16  17
ENDBRANCH  11  12
ENDBRANCH  10  11
ENDBRANCH   3  10
BRANCH   4  20
ATOM     20  C   UNL     1       6.661   4.333  13.951  0.00  0.00    +0.000 C 
BRANCH  20  21
ATOM     21  C   UNL     1       6.044   3.564  12.828  0.00  0.00    +0.000 A 
ATOM     22  C   UNL     1       6.509   2.575  11.987  0.00  0.00    +0.000 A 
ATOM     23  C   UNL     1       5.433   2.234  11.131  0.00  0.00    +0.000 A 
ATOM     24  C   UNL     1       4.380   3.039  11.500  0.00  0.00    +0.000 A 
ATOM     25  O   UNL     1       4.744   3.855  12.522  0.00  0.00    +0.000 OA
ENDBRANCH  20  21
ENDBRANCH   4  20
TORSDOF 8
ENDMDL
MODEL 2
REMARK VINA RESULT:      -7.1      1.721      4.565
REMARK  Name = 
REMARK  8 active torsions:
REMARK  status: ('A' for Active; 'I' for Inactive)
REMARK    1  A    between atoms: C_2  and  C_3
REMARK    2  A    between atoms: C_3  and  N_4
REMARK    3  A    between atoms: N_6  and  C_7
REMARK    4  A    between atoms: C_7  and  C_8
REMARK    5  A    between atoms: C_8  and  C_9
REMARK    6  A    between atoms: N_13  and  C_14
REMARK    7  A    between atoms: N_17  and  C_18
REMARK    8  A    between atoms: C_18  and  C_19
REMARK                            x       y       z     vdW  Elec       q    Type
REMARK                         _______ _______ _______ _____ _____    ______ ____
ROOT
ATOM      1  N   UNL     1       5.810   4.694  14.845  0.00  0.00    +0.000 NA
ATOM      2  C   UNL     1       5.153   4.443  15.921  0.00  0.00    +0.000 C 
ATOM      3  N   UNL     1       4.956   3.219  16.517  0.00  0.00    +0.000 N 
ATOM      4  N   UNL     1       4.559   5.481  16.580  0.00  0.00    +0.000 N 
ATOM      5  H   UNL     1       5.791   2.632  16.556  0.00  0.00    +0.000 HD
ATOM      6  H   UNL     1       4.158   5.286  17.478  0.00  0.00    +0.000 HD
ENDROOT
BRANCH   1   7
ATOM      7  C   UNL     1       6.338   3.635  13.998  0.00  0.00    +0.000 C 
BRANCH   7   9
ATOM      8  C   UNL     1       5.677   2.611  11.738  0.00  0.00    +0.000 C 
ATOM      9  C   UNL     1       5.590   3.561  12.682  0.00  0.00    +0.000 C 
ENDBRANCH   7   9
ENDBRANCH   1   7
BRANCH   3  10
ATOM     10  C   UNL     1       3.963   2.916  17.545  0.00  0.00    +0.000 C 
BRANCH  10  11
ATOM     11  C   UNL     1       4.326   3.357  18.970  0.00  0.00    +0.000 C 
BRANCH  11  12
ATOM     12  C   UNL     1       3.348   4.338  19.546  0.00  0.00    +0.000 A 
ATOM     13  N   UNL     1       3.586   5.640  19.579  0.00  0.00    +0.000 NA
ATOM     14  C   UNL     1       2.521   6.215  20.213  0.00  0.00    +0.000 A 
ATOM     15  C   UNL     1       1.609   5.262  20.579  0.00  0.00    +0.000 A 
ATOM     16  N   UNL     1       2.140   4.062  20.155  0.00  0.00    +0.000 N 
BRANCH  16  17
ATOM     17  C   UNL     1       1.471   2.794  20.404  0.00  0.00    +0.000 C 
ATOM     18  F   UNL     1       1.054   2.717  21.696  0.00  0.00    +0.000 F 
ATOM     19  F   UNL     1       0.375   2.596  19.635  0.00  0.00    +0.000 F 
ENDBRANCH  16  17
ENDBRANCH  11  12
ENDBRANCH  10  11
ENDBRANCH   3  10
BRANCH   4  20
ATOM     20  C   UNL     1       5.063   6.843  16.526  0.00  0.00    +0.000 C 
BRANCH  20  21
ATOM     21  C   UNL     1       6.323   7.055  17.300  0.00  0.00    +0.000 A 
ATOM     22  C   UNL     1       7.030   6.280  18.195  0.00  0.00    +0.000 A 
ATOM     23  C   UNL     1       8.164   7.037  18.578  0.00  0.00    +0.000 A 
ATOM     24  C   UNL     1       8.076   8.229  17.896  0.00  0.00    +0.000 A 
ATOM     25  O   UNL     1       6.959   8.252  17.126  0.00  0.00    +0.000 OA
ENDBRANCH  20  21
ENDBRANCH   4  20
TORSDOF 8
ENDMDL
MODEL 3
REMARK VINA RESULT:      -7.0      1.572      2.062
REMARK  Name = 
REMARK  8 active torsions:
REMARK  status: ('A' for Active; 'I' for Inactive)
REMARK    1  A    between atoms: C_2  and  C_3
REMARK    2  A    between atoms: C_3  and  N_4
REMARK    3  A    between atoms: N_6  and  C_7
REMARK    4  A    between atoms: C_7  and  C_8
REMARK    5  A    between atoms: C_8  and  C_9
REMARK    6  A    between atoms: N_13  and  C_14
REMARK    7  A    between atoms: N_17  and  C_18
REMARK    8  A    between atoms: C_18  and  C_19
REMARK                            x       y       z     vdW  Elec       q    Type
REMARK                         _______ _______ _______ _____ _____    ______ ____
ROOT
ATOM      1  N   UNL     1       6.507   6.085  16.210  0.00  0.00    +0.000 NA
ATOM      2  C   UNL     1       5.732   5.060  16.200  0.00  0.00    +0.000 C 
ATOM      3  N   UNL     1       4.618   4.844  16.977  0.00  0.00    +0.000 N 
ATOM      4  N   UNL     1       6.011   4.037  15.339  0.00  0.00    +0.000 N 
ATOM      5  H   UNL     1       4.005   5.656  17.067  0.00  0.00    +0.000 HD
ATOM      6  H   UNL     1       5.331   3.306  15.257  0.00  0.00    +0.000 HD
ENDROOT
BRANCH   1   7
ATOM      7  C   UNL     1       6.376   7.143  17.200  0.00  0.00    +0.000 C 
BRANCH   7   9
ATOM      8  C   UNL     1       8.221   8.770  17.934  0.00  0.00    +0.000 C 
ATOM      9  C   UNL     1       7.726   7.534  17.767  0.00  0.00    +0.000 C 
ENDBRANCH   7   9
ENDBRANCH   1   7
BRANCH   3  10
ATOM     10  C   UNL     1       3.943   3.562  17.172  0.00  0.00    +0.000 C 
BRANCH  10  11
ATOM     11  C   UNL     1       2.433   3.639  17.435  0.00  0.00    +0.000 C 
BRANCH  11  12
ATOM     12  C   UNL     1       2.088   3.537  18.892  0.00  0.00    +0.000 A 
ATOM     13  N   UNL     1       1.651   2.414  19.440  0.00  0.00    +0.000 NA
ATOM     14  C   UNL     1       1.387   2.697  20.751  0.00  0.00    +0.000 A 
ATOM     15  C   UNL     1       1.663   4.010  21.023  0.00  0.00    +0.000 A 
ATOM     16  N   UNL     1       2.108   4.547  19.833  0.00  0.00    +0.000 N 
BRANCH  16  17
ATOM     17  C   UNL     1       2.464   5.953  19.710  0.00  0.00    +0.000 C 
ATOM     18  F   UNL     1       3.814   6.109  19.734  0.00  0.00    +0.000 F 
ATOM     19  F   UNL     1       2.031   6.526  18.563  0.00  0.00    +0.000 F 
ENDBRANCH  16  17
ENDBRANCH  11  12
ENDBRANCH  10  11
ENDBRANCH   3  10
BRANCH   4  20
ATOM     20  C   UNL     1       6.710   4.235  14.080  0.00  0.00    +0.000 C 
BRANCH  20  21
ATOM     21  C   UNL     1       6.072   3.546  12.917  0.00  0.00    +0.000 A 
ATOM     22  C   UNL     1       6.530   2.644  11.980  0.00  0.00    +0.000 A 
ATOM     23  C   UNL     1       5.432   2.346  11.136  0.00  0.00    +0.000 A 
ATOM     24  C   UNL     1       4.374   3.087  11.609  0.00  0.00    +0.000 A 
ATOM     25  O   UNL     1       4.754   3.824  12.683  0.00  0.00    +0.000 OA
ENDBRANCH  20  21
ENDBRANCH   4  20
TORSDOF 8
ENDMDL
MODEL 4
REMARK VINA RESULT:      -6.9      3.770      7.130
REMARK  Name = 
REMARK  8 active torsions:
REMARK  status: ('A' for Active; 'I' for Inactive)
REMARK    1  A    between atoms: C_2  and  C_3
REMARK    2  A    between atoms: C_3  and  N_4
REMARK    3  A    between atoms: N_6  and  C_7
REMARK    4  A    between atoms: C_7  and  C_8
REMARK    5  A    between atoms: C_8  and  C_9
REMARK    6  A    between atoms: N_13  and  C_14
REMARK    7  A    between atoms: N_17  and  C_18
REMARK    8  A    between atoms: C_18  and  C_19
REMARK                            x       y       z     vdW  Elec       q    Type
REMARK                         _______ _______ _______ _____ _____    ______ ____
ROOT
ATOM      1  N   UNL     1       6.608   6.078  18.753  0.00  0.00    +0.000 NA
ATOM      2  C   UNL     1       5.954   5.185  18.099  0.00  0.00    +0.000 C 
ATOM      3  N   UNL     1       6.446   4.303  17.165  0.00  0.00    +0.000 N 
ATOM      4  N   UNL     1       4.612   5.063  18.321  0.00  0.00    +0.000 N 
ATOM      5  H   UNL     1       7.332   3.867  17.424  0.00  0.00    +0.000 HD
ATOM      6  H   UNL     1       4.145   4.284  17.899  0.00  0.00    +0.000 HD
ENDROOT
BRANCH   1   7
ATOM      7  C   UNL     1       8.001   6.381  18.464  0.00  0.00    +0.000 C 
BRANCH   7   9
ATOM      8  C   UNL     1       7.977   8.796  17.592  0.00  0.00    +0.000 C 
ATOM      9  C   UNL     1       8.262   7.873  18.523  0.00  0.00    +0.000 C 
ENDBRANCH   7   9
ENDBRANCH   1   7
BRANCH   3  10
ATOM     10  C   UNL     1       5.649   3.521  16.221  0.00  0.00    +0.000 C 
BRANCH  10  11
ATOM     11  C   UNL     1       5.150   4.281  14.984  0.00  0.00    +0.000 C 
BRANCH  11  12
ATOM     12  C   UNL     1       6.201   4.422  13.922  0.00  0.00    +0.000 A 
ATOM     13  N   UNL     1       7.240   5.231  14.056  0.00  0.00    +0.000 NA
ATOM     14  C   UNL     1       7.949   5.149  12.891  0.00  0.00    +0.000 A 
ATOM     15  C   UNL     1       7.347   4.280  12.022  0.00  0.00    +0.000 A 
ATOM     16  N   UNL     1       6.227   3.818  12.680  0.00  0.00    +0.000 N 
BRANCH  16  17
ATOM     17  C   UNL     1       5.294   2.894  12.055  0.00  0.00    +0.000 C 
ATOM     18  F   UNL     1       4.441   3.558  11.229  0.00  0.00    +0.000 F 
ATOM     19  F   UNL     1       5.892   1.941  11.302  0.00  0.00    +0.000 F 
ENDBRANCH  16  17
ENDBRANCH  11  12
ENDBRANCH  10  11
ENDBRANCH   3  10
BRANCH   4  20
ATOM     20  C   UNL     1       3.987   5.416  19.585  0.00  0.00    +0.000 C 
BRANCH  20  21
ATOM     21  C   UNL     1       2.858   4.517  19.975  0.00  0.00    +0.000 A 
ATOM     22  C   UNL     1       1.510   4.721  20.182  0.00  0.00    +0.000 A 
ATOM     23  C   UNL     1       0.958   3.461  20.521  0.00  0.00    +0.000 A 
ATOM     24  C   UNL     1       2.004   2.568  20.503  0.00  0.00    +0.000 A 
ATOM     25  O   UNL     1       3.162   3.201  20.181  0.00  0.00    +0.000 OA
ENDBRANCH  20  21
ENDBRANCH   4  20
TORSDOF 8
ENDMDL
MODEL 5
REMARK VINA RESULT:      -6.9      1.493      1.962
REMARK  Name = 
REMARK  8 active torsions:
REMARK  status: ('A' for Active; 'I' for Inactive)
REMARK    1  A    between atoms: C_2  and  C_3
REMARK    2  A    between atoms: C_3  and  N_4
REMARK    3  A    between atoms: N_6  and  C_7
REMARK    4  A    between atoms: C_7  and  C_8
REMARK    5  A    between atoms: C_8  and  C_9
REMARK    6  A    between atoms: N_13  and  C_14
REMARK    7  A    between atoms: N_17  and  C_18
REMARK    8  A    between atoms: C_18  and  C_19
REMARK                            x       y       z     vdW  Elec       q    Type
REMARK                         _______ _______ _______ _____ _____    ______ ____
ROOT
ATOM      1  N   UNL     1       6.935   5.432  17.488  0.00  0.00    +0.000 NA
ATOM      2  C   UNL     1       6.029   4.521  17.545  0.00  0.00    +0.000 C 
ATOM      3  N   UNL     1       5.587   3.848  18.660  0.00  0.00    +0.000 N 
ATOM      4  N   UNL     1       5.411   4.142  16.388  0.00  0.00    +0.000 N 
ATOM      5  H   UNL     1       5.438   4.441  19.477  0.00  0.00    +0.000 HD
ATOM      6  H   UNL     1       4.625   3.524  16.468  0.00  0.00    +0.000 HD
ENDROOT
BRANCH   1   7
ATOM      7  C   UNL     1       7.751   5.782  18.641  0.00  0.00    +0.000 C 
BRANCH   7   9
ATOM      8  C   UNL     1       7.857   8.155  17.666  0.00  0.00    +0.000 C 
ATOM      9  C   UNL     1       8.148   7.244  18.608  0.00  0.00    +0.000 C 
ENDBRANCH   7   9
ENDBRANCH   1   7
BRANCH   3  10
ATOM     10  C   UNL     1       4.795   2.619  18.661  0.00  0.00    +0.000 C 
BRANCH  10  11
ATOM     11  C   UNL     1       3.296   2.794  18.386  0.00  0.00    +0.000 C 
BRANCH  11  12
ATOM     12  C   UNL     1       2.673   3.884  19.208  0.00  0.00    +0.000 A 
ATOM     13  N   UNL     1       2.699   5.154  18.837  0.00  0.00    +0.000 NA
ATOM     14  C   UNL     1       2.096   5.864  19.838  0.00  0.00    +0.000 A 
ATOM     15  C   UNL     1       1.691   5.027  20.843  0.00  0.00    +0.000 A 
ATOM     16  N   UNL     1       2.063   3.762  20.441  0.00  0.00    +0.000 N 
BRANCH  16  17
ATOM     17  C   UNL     1       1.836   2.592  21.276  0.00  0.00    +0.000 C 
ATOM     18  F   UNL     1       2.963   2.269  21.966  0.00  0.00    +0.000 F 
ATOM     19  F   UNL     1       0.859   2.761  22.197  0.00  0.00    +0.000 F 
ENDBRANCH  16  17
ENDBRANCH  11  12
ENDBRANCH  10  11
ENDBRANCH   3  10
BRANCH   4  20
ATOM     20  C   UNL     1       5.254   5.031  15.249  0.00  0.00    +0.000 C 
BRANCH  20  21
ATOM     21  C   UNL     1       6.060   4.634  14.054  0.00  0.00    +0.000 A 
ATOM     22  C   UNL     1       5.911   3.662  13.088  0.00  0.00    +0.000 A 
ATOM     23  C   UNL     1       7.007   3.801  12.202  0.00  0.00    +0.000 A 
ATOM     24  C   UNL     1       7.759   4.847  12.685  0.00  0.00    +0.000 A 
ATOM     25  O   UNL     1       7.197   5.353  13.813  0.00  0.00    +0.000 OA
ENDBRANCH  20  21
ENDBRANCH   4  20
TORSDOF 8
ENDMDL
MODEL 6
REMARK VINA RESULT:      -6.9      0.730      1.041
REMARK  Name = 
REMARK  8 active torsions:
REMARK  status: ('A' for Active; 'I' for Inactive)
REMARK    1  A    between atoms: C_2  and  C_3
REMARK    2  A    between atoms: C_3  and  N_4
REMARK    3  A    between atoms: N_6  and  C_7
REMARK    4  A    between atoms: C_7  and  C_8
REMARK    5  A    between atoms: C_8  and  C_9
REMARK    6  A    between atoms: N_13  and  C_14
REMARK    7  A    between atoms: N_17  and  C_18
REMARK    8  A    between atoms: C_18  and  C_19
REMARK                            x       y       z     vdW  Elec       q    Type
REMARK                         _______ _______ _______ _____ _____    ______ ____
ROOT
ATOM      1  N   UNL     1       6.929   5.474  16.819  0.00  0.00    +0.000 NA
ATOM      2  C   UNL     1       5.939   4.676  16.633  0.00  0.00    +0.000 C 
ATOM      3  N   UNL     1       4.866   4.461  17.467  0.00  0.00    +0.000 N 
ATOM      4  N   UNL     1       5.908   3.929  15.490  0.00  0.00    +0.000 N 
ATOM      5  H   UNL     1       4.467   5.312  17.866  0.00  0.00    +0.000 HD
ATOM      6  H   UNL     1       5.072   3.408  15.304  0.00  0.00    +0.000 HD
ENDROOT
BRANCH   1   7
ATOM      7  C   UNL     1       7.121   6.185  18.074  0.00  0.00    +0.000 C 
BRANCH   7   9
ATOM      8  C   UNL     1       7.685   8.655  17.651  0.00  0.00    +0.000 C 
ATOM      9  C   UNL     1       8.035   7.381  17.892  0.00  0.00    +0.000 C 
ENDBRANCH   7   9
ENDBRANCH   1   7
BRANCH   3  10
ATOM     10  C   UNL     1       3.930   3.342  17.389  0.00  0.00    +0.000 C 
BRANCH  10  11
ATOM     11  C   UNL     1       2.457   3.689  17.642  0.00  0.00    +0.000 C 
BRANCH  11  12
ATOM     12  C   UNL     1       2.277   4.748  18.690  0.00  0.00    +0.000 A 
ATOM     13  N   UNL     1       2.586   6.018  18.474  0.00  0.00    +0.000 NA
ATOM     14  C   UNL     1       2.350   6.680  19.646  0.00  0.00    +0.000 A 
ATOM     15  C   UNL     1       1.890   5.815  20.602  0.00  0.00    +0.000 A 
ATOM     16  N   UNL     1       1.847   4.580  19.991  0.00  0.00    +0.000 N 
BRANCH  16  17
ATOM     17  C   UNL     1       1.443   3.380  20.709  0.00  0.00    +0.000 C 
ATOM     18  F   UNL     1       0.352   2.815  20.124  0.00  0.00    +0.000 F 
ATOM     19  F   UNL     1       2.396   2.421  20.748  0.00  0.00    +0.000 F 
ENDBRANCH  16  17
ENDBRANCH  11  12
ENDBRANCH  10  11
ENDBRANCH   3  10
BRANCH   4  20
ATOM     20  C   UNL     1       6.536   4.356  14.251  0.00  0.00    +0.000 C 
BRANCH  20  21
ATOM     21  C   UNL     1       6.031   3.644  13.037  0.00  0.00    +0.000 A 
ATOM     22  C   UNL     1       6.594   2.736  12.167  0.00  0.00    +0.000 A 
ATOM     23  C   UNL     1       5.595   2.414  11.216  0.00  0.00    +0.000 A 
ATOM     24  C   UNL     1       4.485   3.150  11.564  0.00  0.00    +0.000 A 
ATOM     25  O   UNL     1       4.743   3.905  12.662  0.00  0.00    +0.000 OA
ENDBRANCH  20  21
ENDBRANCH   4  20
TORSDOF 8
ENDMDL
MODEL 7
REMARK VINA RESULT:      -6.9      2.429      3.549
REMARK  Name = 
REMARK  8 active torsions:
REMARK  status: ('A' for Active; 'I' for Inactive)
REMARK    1  A    between atoms: C_2  and  C_3
REMARK    2  A    between atoms: C_3  and  N_4
REMARK    3  A    between atoms: N_6  and  C_7
REMARK    4  A    between atoms: C_7  and  C_8
REMARK    5  A    between atoms: C_8  and  C_9
REMARK    6  A    between atoms: N_13  and  C_14
REMARK    7  A    between atoms: N_17  and  C_18
REMARK    8  A    between atoms: C_18  and  C_19
REMARK                            x       y       z     vdW  Elec       q    Type
REMARK                         _______ _______ _______ _____ _____    ______ ____
ROOT
ATOM      1  N   UNL     1       3.960   6.215  18.249  0.00  0.00    +0.000 NA
ATOM      2  C   UNL     1       3.767   5.121  17.602  0.00  0.00    +0.000 C 
ATOM      3  N   UNL     1       2.611   4.380  17.533  0.00  0.00    +0.000 N 
ATOM      4  N   UNL     1       4.805   4.593  16.888  0.00  0.00    +0.000 N 
ATOM      5  H   UNL     1       1.763   4.935  17.402  0.00  0.00    +0.000 HD
ATOM      6  H   UNL     1       4.603   3.812  16.293  0.00  0.00    +0.000 HD
ENDROOT
BRANCH   1   7
ATOM      7  C   UNL     1       2.963   6.760  19.158  0.00  0.00    +0.000 C 
BRANCH   7   9
ATOM      8  C   UNL     1       2.438   8.803  17.694  0.00  0.00    +0.000 C 
ATOM      9  C   UNL     1       2.068   7.760  18.453  0.00  0.00    +0.000 C 
ENDBRANCH   7   9
ENDBRANCH   1   7
BRANCH   3  10
ATOM     10  C   UNL     1       2.502   3.002  17.058  0.00  0.00    +0.000 C 
BRANCH  10  11
ATOM     11  C   UNL     1       1.930   1.995  18.065  0.00  0.00    +0.000 C 
BRANCH  11  12
ATOM     12  C   UNL     1       1.958   2.500  19.477  0.00  0.00    +0.000 A 
ATOM     13  N   UNL     1       0.891   3.018  20.066  0.00  0.00    +0.000 NA
ATOM     14  C   UNL     1       1.289   3.419  21.310  0.00  0.00    +0.000 A 
ATOM     15  C   UNL     1       2.617   3.148  21.500  0.00  0.00    +0.000 A 
ATOM     16  N   UNL     1       3.045   2.564  20.326  0.00  0.00    +0.000 N 
BRANCH  16  17
ATOM     17  C   UNL     1       4.431   2.167  20.125  0.00  0.00    +0.000 C 
ATOM     18  F   UNL     1       5.183   3.233  19.742  0.00  0.00    +0.000 F 
ATOM     19  F   UNL     1       5.019   1.661  21.234  0.00  0.00    +0.000 F 
ENDBRANCH  16  17
ENDBRANCH  11  12
ENDBRANCH  10  11
ENDBRANCH   3  10
BRANCH   4  20
ATOM     20  C   UNL     1       5.873   5.405  16.329  0.00  0.00    +0.000 C 
BRANCH  20  21
ATOM     21  C   UNL     1       6.319   4.971  14.971  0.00  0.00    +0.000 A 
ATOM     22  C   UNL     1       5.802   4.099  14.035  0.00  0.00    +0.000 A 
ATOM     23  C   UNL     1       6.683   4.127  12.926  0.00  0.00    +0.000 A 
ATOM     24  C   UNL     1       7.684   5.012  13.256  0.00  0.00    +0.000 A 
ATOM     25  O   UNL     1       7.476   5.521  14.497  0.00  0.00    +0.000 OA
ENDBRANCH  20  21
ENDBRANCH   4  20
TORSDOF 8
ENDMDL
MODEL 8
REMARK VINA RESULT:      -6.8      2.544      5.326
REMARK  Name = 
REMARK  8 active torsions:
REMARK  status: ('A' for Active; 'I' for Inactive)
REMARK    1  A    between atoms: C_2  and  C_3
REMARK    2  A    between atoms: C_3  and  N_4
REMARK    3  A    between atoms: N_6  and  C_7
REMARK    4  A    between atoms: C_7  and  C_8
REMARK    5  A    between atoms: C_8  and  C_9
REMARK    6  A    between atoms: N_13  and  C_14
REMARK    7  A    between atoms: N_17  and  C_18
REMARK    8  A    between atoms: C_18  and  C_19
REMARK                            x       y       z     vdW  Elec       q    Type
REMARK                         _______ _______ _______ _____ _____    ______ ____
ROOT
ATOM      1  N   UNL     1       5.152   4.801  15.954  0.00  0.00    +0.000 NA
ATOM      2  C   UNL     1       5.036   4.803  17.234  0.00  0.00    +0.000 C 
ATOM      3  N   UNL     1       5.614   3.934  18.130  0.00  0.00    +0.000 N 
ATOM      4  N   UNL     1       4.252   5.757  17.818  0.00  0.00    +0.000 N 
ATOM      5  H   UNL     1       6.596   3.725  17.939  0.00  0.00    +0.000 HD
ATOM      6  H   UNL     1       4.272   5.820  18.818  0.00  0.00    +0.000 HD
ENDROOT
BRANCH   1   7
ATOM      7  C   UNL     1       5.834   3.731  15.243  0.00  0.00    +0.000 C 
BRANCH   7   9
ATOM      8  C   UNL     1       6.254   3.489  12.721  0.00  0.00    +0.000 C 
ATOM      9  C   UNL     1       6.283   4.186  13.868  0.00  0.00    +0.000 C 
ENDBRANCH   7   9
ENDBRANCH   1   7
BRANCH   3  10
ATOM     10  C   UNL     1       5.228   3.761  19.529  0.00  0.00    +0.000 C 
BRANCH  10  11
ATOM     11  C   UNL     1       4.486   2.459  19.858  0.00  0.00    +0.000 C 
BRANCH  11  12
ATOM     12  C   UNL     1       3.089   2.428  19.312  0.00  0.00    +0.000 A 
ATOM     13  N   UNL     1       2.822   2.070  18.065  0.00  0.00    +0.000 NA
ATOM     14  C   UNL     1       1.473   2.210  17.900  0.00  0.00    +0.000 A 
ATOM     15  C   UNL     1       0.892   2.659  19.055  0.00  0.00    +0.000 A 
ATOM     16  N   UNL     1       1.926   2.801  19.956  0.00  0.00    +0.000 N 
BRANCH  16  17
ATOM     17  C   UNL     1       1.708   3.305  21.304  0.00  0.00    +0.000 C 
ATOM     18  F   UNL     1       2.046   2.367  22.228  0.00  0.00    +0.000 F 
ATOM     19  F   UNL     1       2.433   4.410  21.597  0.00  0.00    +0.000 F 
ENDBRANCH  16  17
ENDBRANCH  11  12
ENDBRANCH  10  11
ENDBRANCH   3  10
BRANCH   4  20
ATOM     20  C   UNL     1       4.026   7.064  17.223  0.00  0.00    +0.000 C 
BRANCH  20  21
ATOM     21  C   UNL     1       2.953   7.859  17.895  0.00  0.00    +0.000 A 
ATOM     22  C   UNL     1       2.302   7.743  19.105  0.00  0.00    +0.000 A 
ATOM     23  C   UNL     1       1.388   8.823  19.177  0.00  0.00    +0.000 A 
ATOM     24  C   UNL     1       1.536   9.528  18.005  0.00  0.00    +0.000 A 
ATOM     25  O   UNL     1       2.476   8.946  17.218  0.00  0.00    +0.000 OA
ENDBRANCH  20  21
ENDBRANCH   4  20
TORSDOF 8
ENDMDL
MODEL 9
REMARK VINA RESULT:      -6.8      3.225      6.281
REMARK  Name = 
REMARK  8 active torsions:
REMARK  status: ('A' for Active; 'I' for Inactive)
REMARK    1  A    between atoms: C_2  and  C_3
REMARK    2  A    between atoms: C_3  and  N_4
REMARK    3  A    between atoms: N_6  and  C_7
REMARK    4  A    between atoms: C_7  and  C_8
REMARK    5  A    between atoms: C_8  and  C_9
REMARK    6  A    between atoms: N_13  and  C_14
REMARK    7  A    between atoms: N_17  and  C_18
REMARK    8  A    between atoms: C_18  and  C_19
REMARK                            x       y       z     vdW  Elec       q    Type
REMARK                         _______ _______ _______ _____ _____    ______ ____
ROOT
ATOM      1  N   UNL     1       4.289   6.375  17.852  0.00  0.00    +0.000 NA
ATOM      2  C   UNL     1       3.381   6.355  18.761  0.00  0.00    +0.000 C 
ATOM      3  N   UNL     1       3.390   5.643  19.938  0.00  0.00    +0.000 N 
ATOM      4  N   UNL     1       2.256   7.108  18.579  0.00  0.00    +0.000 N 
ATOM      5  H   UNL     1       4.282   5.663  20.435  0.00  0.00    +0.000 HD
ATOM      6  H   UNL     1       1.620   7.177  19.350  0.00  0.00    +0.000 HD
ENDROOT
BRANCH   1   7
ATOM      7  C   UNL     1       5.440   5.486  17.890  0.00  0.00    +0.000 C 
BRANCH   7   9
ATOM      8  C   UNL     1       6.013   4.132  15.784  0.00  0.00    +0.000 C 
ATOM      9  C   UNL     1       5.291   4.353  16.894  0.00  0.00    +0.000 C 
ENDBRANCH   7   9
ENDBRANCH   1   7
BRANCH   3  10
ATOM     10  C   UNL     1       2.233   5.392  20.797  0.00  0.00    +0.000 C 
BRANCH  10  11
ATOM     11  C   UNL     1       1.977   3.921  21.153  0.00  0.00    +0.000 C 
BRANCH  11  12
ATOM     12  C   UNL     1       2.777   2.968  20.314  0.00  0.00    +0.000 A 
ATOM     13  N   UNL     1       3.962   2.514  20.691  0.00  0.00    +0.000 NA
ATOM     14  C   UNL     1       4.418   1.725  19.674  0.00  0.00    +0.000 A 
ATOM     15  C   UNL     1       3.509   1.686  18.651  0.00  0.00    +0.000 A 
ATOM     16  N   UNL     1       2.462   2.484  19.060  0.00  0.00    +0.000 N 
BRANCH  16  17
ATOM     17  C   UNL     1       1.305   2.728  18.211  0.00  0.00    +0.000 C 
ATOM     18  F   UNL     1       0.164   2.316  18.826  0.00  0.00    +0.000 F 
ATOM     19  F   UNL     1       1.123   4.032  17.900  0.00  0.00    +0.000 F 
ENDBRANCH  16  17
ENDBRANCH  11  12
ENDBRANCH  10  11
ENDBRANCH   3  10
BRANCH   4  20
ATOM     20  C   UNL     1       2.243   8.327  17.788  0.00  0.00    +0.000 C 
BRANCH  20  21
ATOM     21  C   UNL     1       1.659   9.505  18.499  0.00  0.00    +0.000 A 
ATOM     22  C   UNL     1       0.801   9.639  19.569  0.00  0.00    +0.000 A 
ATOM     23  C   UNL     1       0.635  11.029  19.783  0.00  0.00    +0.000 A 
ATOM     24  C   UNL     1       1.400  11.657  18.828  0.00  0.00    +0.000 A 
ATOM     25  O   UNL     1       2.018  10.742  18.039  0.00  0.00    +0.000 OA
ENDBRANCH  20  21
ENDBRANCH   4  20
TORSDOF 8
ENDMDL
