MODEL 1
REMARK VINA RESULT:      -9.8      0.000      0.000
REMARK  Name = 
REMARK  9 active torsions:
REMARK  status: ('A' for Active; 'I' for Inactive)
REMARK    1  A    between atoms: C_1  and  C_2
REMARK    2  A    between atoms: C_5  and  C_6
REMARK    3  A    between atoms: C_6  and  C_7
REMARK    4  A    between atoms: C_7  and  N_8
REMARK    5  A    between atoms: C_9  and  C_11
REMARK    6  A    between atoms: N_15  and  C_16
REMARK    7  A    between atoms: C_16  and  C_17
REMARK    8  A    between atoms: C_19  and  C_20
REMARK    9  A    between atoms: C_28  and  C_29
REMARK                            x       y       z     vdW  Elec       q    Type
REMARK                         _______ _______ _______ _____ _____    ______ ____
ROOT
ATOM      1  C   UNL     1       7.325   5.384  17.503  0.00  0.00    +0.000 C 
ATOM      2  C   UNL     1       7.166   4.699  16.147  0.00  0.00    +0.000 C 
ATOM      3  C   UNL     1       5.703   4.534  15.770  0.00  0.00    +0.000 C 
ATOM      4  C   UNL     1       4.871   3.924  16.902  0.00  0.00    +0.000 C 
ATOM      5  N   UNL     1       5.037   4.611  18.202  0.00  0.00    +0.000 NA
ATOM      6  C   UNL     1       6.474   4.676  18.567  0.00  0.00    +0.000 C 
ENDROOT
BRANCH   1   8
ATOM      7  N   UNL     1       8.099   7.702  17.788  0.00  0.00    +0.000 N 
ATOM      8  C   UNL     1       7.054   6.889  17.418  0.00  0.00    +0.000 C 
ATOM      9  O   UNL     1       5.949   7.325  17.103  0.00  0.00    +0.000 OA
ATOM     10  H   UNL     1       8.959   7.246  18.095  0.00  0.00    +0.000 HD
BRANCH   7  11
ATOM     11  C   UNL     1       7.985   9.144  17.854  0.00  0.00    +0.000 C 
BRANCH  11  12
ATOM     12  C   UNL     1       8.964   9.745  18.865  0.00  0.00    +0.000 C 
BRANCH  12  17
ATOM     13  C   UNL     1      11.315  14.722  16.949  0.00  0.00    +0.000 C 
ATOM     14  C   UNL     1      10.701  13.441  17.431  0.00  0.00    +0.000 A 
ATOM     15  C   UNL     1       9.314  13.305  17.547  0.00  0.00    +0.000 A 
ATOM     16  C   UNL     1       8.754  12.112  18.011  0.00  0.00    +0.000 A 
ATOM     17  C   UNL     1       9.573  11.035  18.372  0.00  0.00    +0.000 A 
ATOM     18  C   UNL     1      10.959  11.167  18.245  0.00  0.00    +0.000 A 
ATOM     19  C   UNL     1      11.519  12.360  17.781  0.00  0.00    +0.000 A 
ENDBRANCH  12  17
ENDBRANCH  11  12
ENDBRANCH   7  11
ENDBRANCH   1   8
BRANCH   5  20
ATOM     20  C   UNL     1       4.293   3.922  19.295  0.00  0.00    +0.000 C 
BRANCH  20  21
ATOM     21  C   UNL     1       3.165   4.752  19.827  0.00  0.00    +0.000 A 
ATOM     22  N   UNL     1       2.997   6.061  19.414  0.00  0.00    +0.000 NA
ATOM     23  C   UNL     1       1.998   6.512  20.138  0.00  0.00    +0.000 A 
ATOM     24  O   UNL     1       1.402   5.558  20.915  0.00  0.00    +0.000 OA
ATOM     25  C   UNL     1       2.141   4.429  20.698  0.00  0.00    +0.000 A 
ATOM     26  C   UNL     1       1.685   3.216  21.400  0.00  0.00    +0.000 C 
BRANCH  23  27
ATOM     27  C   UNL     1       1.490   7.872  20.249  0.00  0.00    +0.000 A 
ATOM     28  C   UNL     1       1.642   8.762  19.172  0.00  0.00    +0.000 A 
ATOM     29  C   UNL     1       1.187  10.077  19.263  0.00  0.00    +0.000 A 
ATOM     30  C   UNL     1       0.578  10.524  20.433  0.00  0.00    +0.000 A 
ATOM     31  C   UNL     1       0.430   9.652  21.507  0.00  0.00    +0.000 A 
ATOM     32 CL   UNL     1      -0.311  10.203  22.961  0.00  0.00    +0.000 Cl
ATOM     33  C   UNL     1       0.881   8.335  21.423  0.00  0.00    +0.000 A 
ENDBRANCH  23  27
ENDBRANCH  20  21
ENDBRANCH   5  20
TORSDOF 7
ENDMDL
MODEL 2
REMARK VINA RESULT:      -9.5      0.956      1.410
REMARK  Name = 
REMARK  9 active torsions:
REMARK  status: ('A' for Active; 'I' for Inactive)
REMARK    1  A    between atoms: C_1  and  C_2
REMARK    2  A    between atoms: C_5  and  C_6
REMARK    3  A    between atoms: C_6  and  C_7
REMARK    4  A    between atoms: C_7  and  N_8
REMARK    5  A    between atoms: C_9  and  C_11
REMARK    6  A    between atoms: N_15  and  C_16
REMARK    7  A    between atoms: C_16  and  C_17
REMARK    8  A    between atoms: C_19  and  C_20
REMARK    9  A    between atoms: C_28  and  C_29
REMARK                            x       y       z     vdW  Elec       q    Type
REMARK                         _______ _______ _______ _____ _____    ______ ____
ROOT
ATOM      1  C   UNL     1       7.015   5.561  18.213  0.00  0.00    +0.000 C 
ATOM      2  C   UNL     1       7.657   4.561  17.254  0.00  0.00    +0.000 C 
ATOM      3  C   UNL     1       6.780   4.304  16.040  0.00  0.00    +0.000 C 
ATOM      4  C   UNL     1       5.329   3.992  16.421  0.00  0.00    +0.000 C 
ATOM      5  N   UNL     1       4.728   4.980  17.344  0.00  0.00    +0.000 NA
ATOM      6  C   UNL     1       5.578   5.136  18.550  0.00  0.00    +0.000 C 
ENDROOT
BRANCH   1   8
ATOM      7  N   UNL     1       8.106   7.766  18.249  0.00  0.00    +0.000 N 
ATOM      8  C   UNL     1       7.112   6.998  17.691  0.00  0.00    +0.000 C 
ATOM      9  O   UNL     1       6.306   7.439  16.875  0.00  0.00    +0.000 OA
ATOM     10  H   UNL     1       8.687   7.328  18.965  0.00  0.00    +0.000 HD
BRANCH   7  11
ATOM     11  C   UNL     1       8.281   9.169  17.937  0.00  0.00    +0.000 C 
BRANCH  11  12
ATOM     12  C   UNL     1       9.161   9.875  18.971  0.00  0.00    +0.000 C 
BRANCH  12  17
ATOM     13  C   UNL     1      11.373  14.873  16.949  0.00  0.00    +0.000 C 
ATOM     14  C   UNL     1      10.812  13.587  17.480  0.00  0.00    +0.000 A 
ATOM     15  C   UNL     1      11.654  12.549  17.893  0.00  0.00    +0.000 A 
ATOM     16  C   UNL     1      11.121  11.351  18.373  0.00  0.00    +0.000 A 
ATOM     17  C   UNL     1       9.734  11.167  18.445  0.00  0.00    +0.000 A 
ATOM     18  C   UNL     1       8.892  12.210  18.043  0.00  0.00    +0.000 A 
ATOM     19  C   UNL     1       9.426  13.408  17.563  0.00  0.00    +0.000 A 
ENDBRANCH  12  17
ENDBRANCH  11  12
ENDBRANCH   7  11
ENDBRANCH   1   8
BRANCH   5  20
ATOM     20  C   UNL     1       3.356   4.582  17.769  0.00  0.00    +0.000 C 
BRANCH  20  21
ATOM     21  C   UNL     1       2.708   5.614  18.641  0.00  0.00    +0.000 A 
ATOM     22  N   UNL     1       2.370   6.855  18.133  0.00  0.00    +0.000 NA
ATOM     23  C   UNL     1       1.927   7.529  19.169  0.00  0.00    +0.000 A 
ATOM     24  O   UNL     1       1.824   6.785  20.311  0.00  0.00    +0.000 OA
ATOM     25  C   UNL     1       2.307   5.555  19.963  0.00  0.00    +0.000 A 
ATOM     26  C   UNL     1       2.277   4.528  21.020  0.00  0.00    +0.000 C 
BRANCH  23  27
ATOM     27  C   UNL     1       1.585   8.941  19.263  0.00  0.00    +0.000 A 
ATOM     28  C   UNL     1       1.966   9.820  18.235  0.00  0.00    +0.000 A 
ATOM     29  C   UNL     1       1.674  11.181  18.314  0.00  0.00    +0.000 A 
ATOM     30  C   UNL     1       1.000  11.685  19.423  0.00  0.00    +0.000 A 
ATOM     31  C   UNL     1       0.624  10.823  20.450  0.00  0.00    +0.000 A 
ATOM     32 CL   UNL     1      -0.199  11.444  21.829  0.00  0.00    +0.000 Cl
ATOM     33  C   UNL     1       0.912   9.461  20.377  0.00  0.00    +0.000 A 
ENDBRANCH  23  27
ENDBRANCH  20  21
ENDBRANCH   5  20
TORSDOF 7
ENDMDL
MODEL 3
REMARK VINA RESULT:      -8.9      1.595      2.646
REMARK  Name = 
REMARK  9 active torsions:
REMARK  status: ('A' for Active; 'I' for Inactive)
REMARK    1  A    between atoms: C_1  and  C_2
REMARK    2  A    between atoms: C_5  and  C_6
REMARK    3  A    between atoms: C_6  and  C_7
REMARK    4  A    between atoms: C_7  and  N_8
REMARK    5  A    between atoms: C_9  and  C_11
REMARK    6  A    between atoms: N_15  and  C_16
REMARK    7  A    between atoms: C_16  and  C_17
REMARK    8  A    between atoms: C_19  and  C_20
REMARK    9  A    between atoms: C_28  and  C_29
REMARK                            x       y       z     vdW  Elec       q    Type
REMARK                         _______ _______ _______ _____ _____    ______ ____
ROOT
ATOM      1  C   UNL     1       6.436   5.373  18.154  0.00  0.00    +0.000 C 
ATOM      2  C   UNL     1       6.118   4.334  17.080  0.00  0.00    +0.000 C 
ATOM      3  C   UNL     1       4.757   4.576  16.450  0.00  0.00    +0.000 C 
ATOM      4  C   UNL     1       3.656   4.781  17.495  0.00  0.00    +0.000 C 
ATOM      5  N   UNL     1       3.985   5.798  18.518  0.00  0.00    +0.000 NA
ATOM      6  C   UNL     1       5.282   5.475  19.162  0.00  0.00    +0.000 C 
ENDROOT
BRANCH   1   8
ATOM      7  N   UNL     1       7.786   7.428  18.229  0.00  0.00    +0.000 N 
ATOM      8  C   UNL     1       6.826   6.723  17.544  0.00  0.00    +0.000 C 
ATOM      9  O   UNL     1       6.260   7.163  16.546  0.00  0.00    +0.000 OA
ATOM     10  H   UNL     1       8.153   7.007  19.084  0.00  0.00    +0.000 HD
BRANCH   7  11
ATOM     11  C   UNL     1       8.205   8.760  17.844  0.00  0.00    +0.000 C 
BRANCH  11  12
ATOM     12  C   UNL     1       8.942   9.474  18.980  0.00  0.00    +0.000 C 
BRANCH  12  17
ATOM     13  C   UNL     1      11.066  14.644  17.330  0.00  0.00    +0.000 C 
ATOM     14  C   UNL     1      10.524  13.315  17.768  0.00  0.00    +0.000 A 
ATOM     15  C   UNL     1      11.330  12.397  18.449  0.00  0.00    +0.000 A 
ATOM     16  C   UNL     1      10.819  11.157  18.838  0.00  0.00    +0.000 A 
ATOM     17  C   UNL     1       9.492  10.811  18.550  0.00  0.00    +0.000 A 
ATOM     18  C   UNL     1       8.683  11.734  17.879  0.00  0.00    +0.000 A 
ATOM     19  C   UNL     1       9.195  12.974  17.490  0.00  0.00    +0.000 A 
ENDBRANCH  12  17
ENDBRANCH  11  12
ENDBRANCH   7  11
ENDBRANCH   1   8
BRANCH   5  20
ATOM     20  C   UNL     1       2.934   5.889  19.572  0.00  0.00    +0.000 C 
BRANCH  20  21
ATOM     21  C   UNL     1       2.288   7.240  19.616  0.00  0.00    +0.000 A 
ATOM     22  N   UNL     1       1.707   7.706  20.781  0.00  0.00    +0.000 NA
ATOM     23  C   UNL     1       1.159   8.851  20.444  0.00  0.00    +0.000 A 
ATOM     24  O   UNL     1       1.443   9.246  19.166  0.00  0.00    +0.000 OA
ATOM     25  C   UNL     1       2.182   8.220  18.646  0.00  0.00    +0.000 A 
ATOM     26  C   UNL     1       2.659   8.406  17.265  0.00  0.00    +0.000 C 
BRANCH  23  27
ATOM     27  C   UNL     1       0.275   9.706  21.223  0.00  0.00    +0.000 A 
ATOM     28  C   UNL     1       0.092   9.454  22.593  0.00  0.00    +0.000 A 
ATOM     29  C   UNL     1      -0.770  10.242  23.355  0.00  0.00    +0.000 A 
ATOM     30  C   UNL     1      -1.466  11.291  22.758  0.00  0.00    +0.000 A 
ATOM     31  C   UNL     1      -1.297  11.543  21.400  0.00  0.00    +0.000 A 
ATOM     32 CL   UNL     1      -2.165  12.830  20.655  0.00  0.00    +0.000 Cl
ATOM     33  C   UNL     1      -0.436  10.760  20.632  0.00  0.00    +0.000 A 
ENDBRANCH  23  27
ENDBRANCH  20  21
ENDBRANCH   5  20
TORSDOF 7
ENDMDL
MODEL 4
REMARK VINA RESULT:      -8.9      1.248      1.631
REMARK  Name = 
REMARK  9 active torsions:
REMARK  status: ('A' for Active; 'I' for Inactive)
REMARK    1  A    between atoms: C_1  and  C_2
REMARK    2  A    between atoms: C_5  and  C_6
REMARK    3  A    between atoms: C_6  and  C_7
REMARK    4  A    between atoms: C_7  and  N_8
REMARK    5  A    between atoms: C_9  and  C_11
REMARK    6  A    between atoms: N_15  and  C_16
REMARK    7  A    between atoms: C_16  and  C_17
REMARK    8  A    between atoms: C_19  and  C_20
REMARK    9  A    between atoms: C_28  and  C_29
REMARK                            x       y       z     vdW  Elec       q    Type
REMARK                         _______ _______ _______ _____ _____    ______ ____
ROOT
ATOM      1  C   UNL     1       7.185   5.401  17.321  0.00  0.00    +0.000 C 
ATOM      2  C   UNL     1       6.987   4.892  15.894  0.00  0.00    +0.000 C 
ATOM      3  C   UNL     1       5.517   4.843  15.514  0.00  0.00    +0.000 C 
ATOM      4  C   UNL     1       4.661   4.141  16.573  0.00  0.00    +0.000 C 
ATOM      5  N   UNL     1       4.866   4.657  17.944  0.00  0.00    +0.000 NA
ATOM      6  C   UNL     1       6.305   4.610  18.300  0.00  0.00    +0.000 C 
ENDROOT
BRANCH   1   8
ATOM      7  N   UNL     1       8.102   7.639  17.768  0.00  0.00    +0.000 N 
ATOM      8  C   UNL     1       6.986   6.916  17.420  0.00  0.00    +0.000 C 
ATOM      9  O   UNL     1       5.881   7.429  17.262  0.00  0.00    +0.000 OA
ATOM     10  H   UNL     1       8.962   7.117  17.939  0.00  0.00    +0.000 HD
BRANCH   7  11
ATOM     11  C   UNL     1       8.070   9.069  17.994  0.00  0.00    +0.000 C 
BRANCH  11  12
ATOM     12  C   UNL     1       9.238   9.532  18.869  0.00  0.00    +0.000 C 
BRANCH  12  17
ATOM     13  C   UNL     1       9.423  15.330  19.426  0.00  0.00    +0.000 C 
ATOM     14  C   UNL     1       9.386  13.838  19.273  0.00  0.00    +0.000 A 
ATOM     15  C   UNL     1       9.355  13.243  18.008  0.00  0.00    +0.000 A 
ATOM     16  C   UNL     1       9.306  11.853  17.878  0.00  0.00    +0.000 A 
ATOM     17  C   UNL     1       9.283  11.033  19.013  0.00  0.00    +0.000 A 
ATOM     18  C   UNL     1       9.325  11.627  20.278  0.00  0.00    +0.000 A 
ATOM     19  C   UNL     1       9.374  13.017  20.408  0.00  0.00    +0.000 A 
ENDBRANCH  12  17
ENDBRANCH  11  12
ENDBRANCH   7  11
ENDBRANCH   1   8
BRANCH   5  20
ATOM     20  C   UNL     1       4.094   3.878  18.954  0.00  0.00    +0.000 C 
BRANCH  20  21
ATOM     21  C   UNL     1       3.110   4.727  19.699  0.00  0.00    +0.000 A 
ATOM     22  N   UNL     1       2.880   6.037  19.320  0.00  0.00    +0.000 NA
ATOM     23  C   UNL     1       2.056   6.506  20.229  0.00  0.00    +0.000 A 
ATOM     24  O   UNL     1       1.617   5.565  21.117  0.00  0.00    +0.000 OA
ATOM     25  C   UNL     1       2.280   4.423  20.762  0.00  0.00    +0.000 A 
ATOM     26  C   UNL     1       1.959   3.220  21.551  0.00  0.00    +0.000 C 
BRANCH  23  27
ATOM     27  C   UNL     1       1.601   7.874  20.432  0.00  0.00    +0.000 A 
ATOM     28  C   UNL     1       1.191   8.290  21.709  0.00  0.00    +0.000 A 
ATOM     29  C   UNL     1       0.726   9.587  21.923  0.00  0.00    +0.000 A 
ATOM     30  C   UNL     1       0.659  10.487  20.863  0.00  0.00    +0.000 A 
ATOM     31  C   UNL     1       1.057  10.082  19.592  0.00  0.00    +0.000 A 
ATOM     32 CL   UNL     1       0.965  11.188  18.275  0.00  0.00    +0.000 Cl
ATOM     33  C   UNL     1       1.524   8.787  19.370  0.00  0.00    +0.000 A 
ENDBRANCH  23  27
ENDBRANCH  20  21
ENDBRANCH   5  20
TORSDOF 7
ENDMDL
MODEL 5
REMARK VINA RESULT:      -8.9      0.957      1.072
REMARK  Name = 
REMARK  9 active torsions:
REMARK  status: ('A' for Active; 'I' for Inactive)
REMARK    1  A    between atoms: C_1  and  C_2
REMARK    2  A    between atoms: C_5  and  C_6
REMARK    3  A    between atoms: C_6  and  C_7
REMARK    4  A    between atoms: C_7  and  N_8
REMARK    5  A    between atoms: C_9  and  C_11
REMARK    6  A    between atoms: N_15  and  C_16
REMARK    7  A    between atoms: C_16  and  C_17
REMARK    8  A    between atoms: C_19  and  C_20
REMARK    9  A    between atoms: C_28  and  C_29
REMARK                            x       y       z     vdW  Elec       q    Type
REMARK                         _______ _______ _______ _____ _____    ______ ____
ROOT
ATOM      1  C   UNL     1       7.305   5.387  17.254  0.00  0.00    +0.000 C 
ATOM      2  C   UNL     1       7.053   5.074  15.780  0.00  0.00    +0.000 C 
ATOM      3  C   UNL     1       5.580   5.190  15.426  0.00  0.00    +0.000 C 
ATOM      4  C   UNL     1       4.679   4.435  16.408  0.00  0.00    +0.000 C 
ATOM      5  N   UNL     1       4.938   4.762  17.828  0.00  0.00    +0.000 NA
ATOM      6  C   UNL     1       6.372   4.555  18.147  0.00  0.00    +0.000 C 
ENDROOT
BRANCH   1   8
ATOM      7  N   UNL     1       8.202   7.380  18.382  0.00  0.00    +0.000 N 
ATOM      8  C   UNL     1       7.233   6.890  17.540  0.00  0.00    +0.000 C 
ATOM      9  O   UNL     1       6.322   7.584  17.093  0.00  0.00    +0.000 OA
ATOM     10  H   UNL     1       8.880   6.713  18.753  0.00  0.00    +0.000 HD
BRANCH   7  11
ATOM     11  C   UNL     1       8.227   8.758  18.829  0.00  0.00    +0.000 C 
BRANCH  11  12
ATOM     12  C   UNL     1       8.863   9.681  17.788  0.00  0.00    +0.000 C 
BRANCH  12  17
ATOM     13  C   UNL     1      11.380  14.343  20.218  0.00  0.00    +0.000 C 
ATOM     14  C   UNL     1      10.742  13.142  19.583  0.00  0.00    +0.000 A 
ATOM     15  C   UNL     1      10.479  13.108  18.209  0.00  0.00    +0.000 A 
ATOM     16  C   UNL     1       9.872  11.991  17.631  0.00  0.00    +0.000 A 
ATOM     17  C   UNL     1       9.511  10.889  18.417  0.00  0.00    +0.000 A 
ATOM     18  C   UNL     1       9.784  10.919  19.789  0.00  0.00    +0.000 A 
ATOM     19  C   UNL     1      10.392  12.037  20.367  0.00  0.00    +0.000 A 
ENDBRANCH  12  17
ENDBRANCH  11  12
ENDBRANCH   7  11
ENDBRANCH   1   8
BRANCH   5  20
ATOM     20  C   UNL     1       4.115   3.929  18.750  0.00  0.00    +0.000 C 
BRANCH  20  21
ATOM     21  C   UNL     1       3.137   4.747  19.536  0.00  0.00    +0.000 A 
ATOM     22  N   UNL     1       2.796   6.024  19.128  0.00  0.00    +0.000 NA
ATOM     23  C   UNL     1       2.014   6.479  20.080  0.00  0.00    +0.000 A 
ATOM     24  O   UNL     1       1.703   5.551  21.033  0.00  0.00    +0.000 OA
ATOM     25  C   UNL     1       2.409   4.438  20.671  0.00  0.00    +0.000 A 
ATOM     26  C   UNL     1       2.225   3.251  21.526  0.00  0.00    +0.000 C 
BRANCH  23  27
ATOM     27  C   UNL     1       1.489   7.824  20.266  0.00  0.00    +0.000 A 
ATOM     28  C   UNL     1       1.612   8.769  19.233  0.00  0.00    +0.000 A 
ATOM     29  C   UNL     1       1.141  10.071  19.397  0.00  0.00    +0.000 A 
ATOM     30  C   UNL     1       0.543  10.450  20.596  0.00  0.00    +0.000 A 
ATOM     31  C   UNL     1       0.423   9.523  21.628  0.00  0.00    +0.000 A 
ATOM     32 CL   UNL     1      -0.303   9.991  23.117  0.00  0.00    +0.000 Cl
ATOM     33  C   UNL     1       0.891   8.219  21.471  0.00  0.00    +0.000 A 
ENDBRANCH  23  27
ENDBRANCH  20  21
ENDBRANCH   5  20
TORSDOF 7
ENDMDL
MODEL 6
REMARK VINA RESULT:      -8.8      4.267      6.076
REMARK  Name = 
REMARK  9 active torsions:
REMARK  status: ('A' for Active; 'I' for Inactive)
REMARK    1  A    between atoms: C_1  and  C_2
REMARK    2  A    between atoms: C_5  and  C_6
REMARK    3  A    between atoms: C_6  and  C_7
REMARK    4  A    between atoms: C_7  and  N_8
REMARK    5  A    between atoms: C_9  and  C_11
REMARK    6  A    between atoms: N_15  and  C_16
REMARK    7  A    between atoms: C_16  and  C_17
REMARK    8  A    between atoms: C_19  and  C_20
REMARK    9  A    between atoms: C_28  and  C_29
REMARK                            x       y       z     vdW  Elec       q    Type
REMARK                         _______ _______ _______ _____ _____    ______ ____
ROOT
ATOM      1  C   UNL     1       4.541   3.475  19.207  0.00  0.00    +0.000 C 
ATOM      2  C   UNL     1       3.787   2.758  18.087  0.00  0.00    +0.000 C 
ATOM      3  C   UNL     1       2.746   3.660  17.445  0.00  0.00    +0.000 C 
ATOM      4  C   UNL     1       1.856   4.356  18.479  0.00  0.00    +0.000 C 
ATOM      5  N   UNL     1       2.610   5.049  19.547  0.00  0.00    +0.000 NA
ATOM      6  C   UNL     1       3.555   4.108  20.199  0.00  0.00    +0.000 C 
ENDROOT
BRANCH   1   8
ATOM      7  N   UNL     1       6.454   3.961  17.739  0.00  0.00    +0.000 N 
ATOM      8  C   UNL     1       5.568   4.469  18.658  0.00  0.00    +0.000 C 
ATOM      9  O   UNL     1       5.626   5.625  19.072  0.00  0.00    +0.000 OA
ATOM     10  H   UNL     1       6.366   2.971  17.504  0.00  0.00    +0.000 HD
BRANCH   7  11
ATOM     11  C   UNL     1       7.546   4.738  17.189  0.00  0.00    +0.000 C 
BRANCH  11  12
ATOM     12  C   UNL     1       7.072   5.669  16.071  0.00  0.00    +0.000 C 
BRANCH  12  17
ATOM     13  C   UNL     1       5.267   2.723  11.378  0.00  0.00    +0.000 C 
ATOM     14  C   UNL     1       5.728   3.471  12.594  0.00  0.00    +0.000 A 
ATOM     15  C   UNL     1       4.894   3.620  13.707  0.00  0.00    +0.000 A 
ATOM     16  C   UNL     1       5.328   4.331  14.829  0.00  0.00    +0.000 A 
ATOM     17  C   UNL     1       6.604   4.909  14.855  0.00  0.00    +0.000 A 
ATOM     18  C   UNL     1       7.441   4.751  13.746  0.00  0.00    +0.000 A 
ATOM     19  C   UNL     1       7.007   4.040  12.625  0.00  0.00    +0.000 A 
ENDBRANCH  12  17
ENDBRANCH  11  12
ENDBRANCH   7  11
ENDBRANCH   1   8
BRANCH   5  20
ATOM     20  C   UNL     1       1.707   5.621  20.586  0.00  0.00    +0.000 C 
BRANCH  20  21
ATOM     21  C   UNL     1       1.516   7.098  20.423  0.00  0.00    +0.000 A 
ATOM     22  N   UNL     1       0.865   7.836  21.394  0.00  0.00    +0.000 NA
ATOM     23  C   UNL     1       0.785   9.048  20.893  0.00  0.00    +0.000 A 
ATOM     24  O   UNL     1       1.451   9.202  19.709  0.00  0.00    +0.000 OA
ATOM     25  C   UNL     1       1.933   7.956  19.422  0.00  0.00    +0.000 A 
ATOM     26  C   UNL     1       2.737   7.844  18.191  0.00  0.00    +0.000 C 
BRANCH  23  27
ATOM     27  C   UNL     1       0.058  10.202  21.402  0.00  0.00    +0.000 A 
ATOM     28  C   UNL     1      -0.572  10.130  22.656  0.00  0.00    +0.000 A 
ATOM     29  C   UNL     1      -1.296  11.213  23.154  0.00  0.00    +0.000 A 
ATOM     30  C   UNL     1      -1.405  12.382  22.405  0.00  0.00    +0.000 A 
ATOM     31  C   UNL     1      -0.789  12.460  21.159  0.00  0.00    +0.000 A 
ATOM     32 CL   UNL     1      -0.931  13.899  20.224  0.00  0.00    +0.000 Cl
ATOM     33  C   UNL     1      -0.063  11.382  20.655  0.00  0.00    +0.000 A 
ENDBRANCH  23  27
ENDBRANCH  20  21
ENDBRANCH   5  20
TORSDOF 7
ENDMDL
MODEL 7
REMARK VINA RESULT:      -8.7      1.351      1.676
REMARK  Name = 
REMARK  9 active torsions:
REMARK  status: ('A' for Active; 'I' for Inactive)
REMARK    1  A    between atoms: C_1  and  C_2
REMARK    2  A    between atoms: C_5  and  C_6
REMARK    3  A    between atoms: C_6  and  C_7
REMARK    4  A    between atoms: C_7  and  N_8
REMARK    5  A    between atoms: C_9  and  C_11
REMARK    6  A    between atoms: N_15  and  C_16
REMARK    7  A    between atoms: C_16  and  C_17
REMARK    8  A    between atoms: C_19  and  C_20
REMARK    9  A    between atoms: C_28  and  C_29
REMARK                            x       y       z     vdW  Elec       q    Type
REMARK                         _______ _______ _______ _____ _____    ______ ____
ROOT
ATOM      1  C   UNL     1       6.915   4.401  16.829  0.00  0.00    +0.000 C 
ATOM      2  C   UNL     1       6.004   3.848  15.734  0.00  0.00    +0.000 C 
ATOM      3  C   UNL     1       4.581   4.360  15.876  0.00  0.00    +0.000 C 
ATOM      4  C   UNL     1       4.041   4.206  17.301  0.00  0.00    +0.000 C 
ATOM      5  N   UNL     1       4.938   4.757  18.341  0.00  0.00    +0.000 NA
ATOM      6  C   UNL     1       6.293   4.167  18.214  0.00  0.00    +0.000 C 
ENDROOT
BRANCH   1   8
ATOM      7  N   UNL     1       7.308   6.673  17.686  0.00  0.00    +0.000 N 
ATOM      8  C   UNL     1       7.289   5.864  16.575  0.00  0.00    +0.000 C 
ATOM      9  O   UNL     1       7.491   6.286  15.439  0.00  0.00    +0.000 OA
ATOM     10  H   UNL     1       7.066   6.244  18.580  0.00  0.00    +0.000 HD
BRANCH   7  11
ATOM     11  C   UNL     1       7.553   8.099  17.614  0.00  0.00    +0.000 C 
BRANCH  11  12
ATOM     12  C   UNL     1       8.568   8.555  18.664  0.00  0.00    +0.000 C 
BRANCH  12  17
ATOM     13  C   UNL     1       9.746  14.248  18.260  0.00  0.00    +0.000 C 
ATOM     14  C   UNL     1       9.443  12.781  18.350  0.00  0.00    +0.000 A 
ATOM     15  C   UNL     1       8.409  12.212  17.600  0.00  0.00    +0.000 A 
ATOM     16  C   UNL     1       8.127  10.847  17.703  0.00  0.00    +0.000 A 
ATOM     17  C   UNL     1       8.871  10.029  18.562  0.00  0.00    +0.000 A 
ATOM     18  C   UNL     1       9.912  10.597  19.303  0.00  0.00    +0.000 A 
ATOM     19  C   UNL     1      10.195  11.961  19.200  0.00  0.00    +0.000 A 
ENDBRANCH  12  17
ENDBRANCH  11  12
ENDBRANCH   7  11
ENDBRANCH   1   8
BRANCH   5  20
ATOM     20  C   UNL     1       4.425   4.493  19.716  0.00  0.00    +0.000 C 
BRANCH  20  21
ATOM     21  C   UNL     1       3.144   5.217  19.995  0.00  0.00    +0.000 A 
ATOM     22  N   UNL     1       3.056   6.587  19.823  0.00  0.00    +0.000 NA
ATOM     23  C   UNL     1       1.852   6.898  20.245  0.00  0.00    +0.000 A 
ATOM     24  O   UNL     1       1.081   5.817  20.568  0.00  0.00    +0.000 OA
ATOM     25  C   UNL     1       1.906   4.742  20.388  0.00  0.00    +0.000 A 
ATOM     26  C   UNL     1       1.305   3.419  20.636  0.00  0.00    +0.000 C 
BRANCH  23  27
ATOM     27  C   UNL     1       1.268   8.216  20.451  0.00  0.00    +0.000 A 
ATOM     28  C   UNL     1       0.484   8.460  21.591  0.00  0.00    +0.000 A 
ATOM     29  C   UNL     1      -0.108   9.705  21.798  0.00  0.00    +0.000 A 
ATOM     30  C   UNL     1       0.071  10.724  20.866  0.00  0.00    +0.000 A 
ATOM     31  C   UNL     1       0.840  10.490  19.730  0.00  0.00    +0.000 A 
ATOM     32 CL   UNL     1       1.055  11.744  18.569  0.00  0.00    +0.000 Cl
ATOM     33  C   UNL     1       1.437   9.248  19.517  0.00  0.00    +0.000 A 
ENDBRANCH  23  27
ENDBRANCH  20  21
ENDBRANCH   5  20
TORSDOF 7
ENDMDL
MODEL 8
REMARK VINA RESULT:      -8.7      4.111      9.207
REMARK  Name = 
REMARK  9 active torsions:
REMARK  status: ('A' for Active; 'I' for Inactive)
REMARK    1  A    between atoms: C_1  and  C_2
REMARK    2  A    between atoms: C_5  and  C_6
REMARK    3  A    between atoms: C_6  and  C_7
REMARK    4  A    between atoms: C_7  and  N_8
REMARK    5  A    between atoms: C_9  and  C_11
REMARK    6  A    between atoms: N_15  and  C_16
REMARK    7  A    between atoms: C_16  and  C_17
REMARK    8  A    between atoms: C_19  and  C_20
REMARK    9  A    between atoms: C_28  and  C_29
REMARK                            x       y       z     vdW  Elec       q    Type
REMARK                         _______ _______ _______ _____ _____    ______ ____
ROOT
ATOM      1  C   UNL     1       2.488   6.324  18.062  0.00  0.00    +0.000 C 
ATOM      2  C   UNL     1       1.644   5.053  18.143  0.00  0.00    +0.000 C 
ATOM      3  C   UNL     1       2.081   4.162  19.293  0.00  0.00    +0.000 C 
ATOM      4  C   UNL     1       3.595   3.933  19.314  0.00  0.00    +0.000 C 
ATOM      5  N   UNL     1       4.389   5.179  19.243  0.00  0.00    +0.000 NA
ATOM      6  C   UNL     1       3.984   5.977  18.060  0.00  0.00    +0.000 C 
ENDROOT
BRANCH   1   8
ATOM      7  N   UNL     1       1.421   8.444  18.710  0.00  0.00    +0.000 N 
ATOM      8  C   UNL     1       2.105   7.335  19.147  0.00  0.00    +0.000 C 
ATOM      9  O   UNL     1       2.451   7.182  20.316  0.00  0.00    +0.000 OA
ATOM     10  H   UNL     1       1.233   8.511  17.709  0.00  0.00    +0.000 HD
BRANCH   7  11
ATOM     11  C   UNL     1       1.062   9.540  19.586  0.00  0.00    +0.000 C 
BRANCH  11  12
ATOM     12  C   UNL     1       0.706  10.803  18.800  0.00  0.00    +0.000 C 
BRANCH  12  17
ATOM     13  C   UNL     1      -5.020  11.258  17.815  0.00  0.00    +0.000 C 
ATOM     14  C   UNL     1      -3.543  11.141  18.055  0.00  0.00    +0.000 A 
ATOM     15  C   UNL     1      -2.769  10.218  17.345  0.00  0.00    +0.000 A 
ATOM     16  C   UNL     1      -1.397  10.108  17.587  0.00  0.00    +0.000 A 
ATOM     17  C   UNL     1      -0.776  10.918  18.547  0.00  0.00    +0.000 A 
ATOM     18  C   UNL     1      -1.550  11.850  19.248  0.00  0.00    +0.000 A 
ATOM     19  C   UNL     1      -2.921  11.959  19.006  0.00  0.00    +0.000 A 
ENDBRANCH  12  17
ENDBRANCH  11  12
ENDBRANCH   7  11
ENDBRANCH   1   8
BRANCH   5  20
ATOM     20  C   UNL     1       5.852   4.904  19.161  0.00  0.00    +0.000 C 
BRANCH  20  21
ATOM     21  C   UNL     1       6.438   5.325  17.848  0.00  0.00    +0.000 A 
ATOM     22  N   UNL     1       6.038   4.720  16.671  0.00  0.00    +0.000 NA
ATOM     23  C   UNL     1       6.809   5.247  15.747  0.00  0.00    +0.000 A 
ATOM     24  O   UNL     1       7.608   6.258  16.204  0.00  0.00    +0.000 OA
ATOM     25  C   UNL     1       7.353   6.317  17.546  0.00  0.00    +0.000 A 
ATOM     26  C   UNL     1       8.071   7.365  18.293  0.00  0.00    +0.000 C 
BRANCH  23  27
ATOM     27  C   UNL     1       6.948   4.871  14.348  0.00  0.00    +0.000 A 
ATOM     28  C   UNL     1       7.840   5.577  13.523  0.00  0.00    +0.000 A 
ATOM     29  C   UNL     1       7.971   5.253  12.173  0.00  0.00    +0.000 A 
ATOM     30  C   UNL     1       7.211   4.222  11.626  0.00  0.00    +0.000 A 
ATOM     31  C   UNL     1       6.320   3.522  12.435  0.00  0.00    +0.000 A 
ATOM     32 CL   UNL     1       5.368   2.254  11.761  0.00  0.00    +0.000 Cl
ATOM     33  C   UNL     1       6.184   3.839  13.786  0.00  0.00    +0.000 A 
ENDBRANCH  23  27
ENDBRANCH  20  21
ENDBRANCH   5  20
TORSDOF 7
ENDMDL
MODEL 9
REMARK VINA RESULT:      -8.7      1.701      2.160
REMARK  Name = 
REMARK  9 active torsions:
REMARK  status: ('A' for Active; 'I' for Inactive)
REMARK    1  A    between atoms: C_1  and  C_2
REMARK    2  A    between atoms: C_5  and  C_6
REMARK    3  A    between atoms: C_6  and  C_7
REMARK    4  A    between atoms: C_7  and  N_8
REMARK    5  A    between atoms: C_9  and  C_11
REMARK    6  A    between atoms: N_15  and  C_16
REMARK    7  A    between atoms: C_16  and  C_17
REMARK    8  A    between atoms: C_19  and  C_20
REMARK    9  A    between atoms: C_28  and  C_29
REMARK                            x       y       z     vdW  Elec       q    Type
REMARK                         _______ _______ _______ _____ _____    ______ ____
ROOT
ATOM      1  C   UNL     1       7.081   4.543  17.695  0.00  0.00    +0.000 C 
ATOM      2  C   UNL     1       7.372   4.789  16.216  0.00  0.00    +0.000 C 
ATOM      3  C   UNL     1       6.477   5.873  15.640  0.00  0.00    +0.000 C 
ATOM      4  C   UNL     1       4.999   5.654  15.979  0.00  0.00    +0.000 C 
ATOM      5  N   UNL     1       4.744   5.425  17.418  0.00  0.00    +0.000 NA
ATOM      6  C   UNL     1       5.580   4.306  17.915  0.00  0.00    +0.000 C 
ENDROOT
BRANCH   1   8
ATOM      7  N   UNL     1       7.764   6.888  17.991  0.00  0.00    +0.000 N 
ATOM      8  C   UNL     1       7.653   5.653  18.582  0.00  0.00    +0.000 C 
ATOM      9  O   UNL     1       8.046   5.422  19.724  0.00  0.00    +0.000 OA
ATOM     10  H   UNL     1       7.468   6.967  17.016  0.00  0.00    +0.000 HD
BRANCH   7  11
ATOM     11  C   UNL     1       8.367   8.025  18.655  0.00  0.00    +0.000 C 
BRANCH  11  12
ATOM     12  C   UNL     1       8.187   9.314  17.850  0.00  0.00    +0.000 C 
BRANCH  12  17
ATOM     13  C   UNL     1      10.949  13.834  20.279  0.00  0.00    +0.000 C 
ATOM     14  C   UNL     1      10.230  12.669  19.665  0.00  0.00    +0.000 A 
ATOM     15  C   UNL     1      10.072  11.469  20.367  0.00  0.00    +0.000 A 
ATOM     16  C   UNL     1       9.413  10.386  19.779  0.00  0.00    +0.000 A 
ATOM     17  C   UNL     1       8.905  10.483  18.478  0.00  0.00    +0.000 A 
ATOM     18  C   UNL     1       9.053  11.687  17.781  0.00  0.00    +0.000 A 
ATOM     19  C   UNL     1       9.712  12.770  18.369  0.00  0.00    +0.000 A 
ENDBRANCH  12  17
ENDBRANCH  11  12
ENDBRANCH   7  11
ENDBRANCH   1   8
BRANCH   5  20
ATOM     20  C   UNL     1       3.311   5.113  17.687  0.00  0.00    +0.000 C 
BRANCH  20  21
ATOM     21  C   UNL     1       2.638   6.177  18.498  0.00  0.00    +0.000 A 
ATOM     22  N   UNL     1       2.263   7.375  17.919  0.00  0.00    +0.000 NA
ATOM     23  C   UNL     1       1.806   8.098  18.915  0.00  0.00    +0.000 A 
ATOM     24  O   UNL     1       1.728   7.421  20.100  0.00  0.00    +0.000 OA
ATOM     25  C   UNL     1       2.244   6.186  19.824  0.00  0.00    +0.000 A 
ATOM     26  C   UNL     1       2.247   5.224  20.941  0.00  0.00    +0.000 C 
BRANCH  23  27
ATOM     27  C   UNL     1       1.426   9.503  18.926  0.00  0.00    +0.000 A 
ATOM     28  C   UNL     1       2.254  10.454  18.307  0.00  0.00    +0.000 A 
ATOM     29  C   UNL     1       1.925  11.809  18.327  0.00  0.00    +0.000 A 
ATOM     30  C   UNL     1       0.765  12.235  18.969  0.00  0.00    +0.000 A 
ATOM     31  C   UNL     1      -0.058  11.301  19.591  0.00  0.00    +0.000 A 
ATOM     32 CL   UNL     1      -1.488  11.824  20.397  0.00  0.00    +0.000 Cl
ATOM     33  C   UNL     1       0.264   9.944  19.575  0.00  0.00    +0.000 A 
ENDBRANCH  23  27
ENDBRANCH  20  21
ENDBRANCH   5  20
TORSDOF 7
ENDMDL
