MODEL 1
REMARK VINA RESULT:      -7.7      0.000      0.000
REMARK  Name = 
REMARK  7 active torsions:
REMARK  status: ('A' for Active; 'I' for Inactive)
REMARK    1  A    between atoms: C_1  and  C_2
REMARK    2  A    between atoms: C_2  and  C_3
REMARK    3  A    between atoms: C_3  and  C_4
REMARK    4  A    between atoms: C_4  and  C_5
REMARK    5  A    between atoms: C_5  and  C_6
REMARK    6  A    between atoms: C_6  and  O_8
REMARK    7  A    between atoms: C_17  and  C_18
REMARK                            x       y       z     vdW  Elec       q    Type
REMARK                         _______ _______ _______ _____ _____    ______ ____
ROOT
ATOM      1  C   UNL     1       6.013   4.815  16.282  0.00  0.00    +0.000 C 
ATOM      2  O   UNL     1       5.562   5.966  15.496  0.00  0.00    +0.000 OA
ATOM      3  C   UNL     1       5.318   7.174  16.243  0.00  0.00    +0.000 C 
ATOM      4  C   UNL     1       4.194   7.043  17.287  0.00  0.00    +0.000 C 
ATOM      5  C   UNL     1       4.203   5.690  17.894  0.00  0.00    +0.000 A 
ATOM      6  C   UNL     1       5.030   4.694  17.415  0.00  0.00    +0.000 A 
ATOM      7  N   UNL     1       4.811   3.575  18.173  0.00  0.00    +0.000 N 
ATOM      8  C   UNL     1       3.784   3.797  19.061  0.00  0.00    +0.000 A 
ATOM      9  C   UNL     1       3.174   2.914  19.959  0.00  0.00    +0.000 A 
ATOM     10  C   UNL     1       2.152   3.412  20.779  0.00  0.00    +0.000 A 
ATOM     11  C   UNL     1       1.458   2.506  21.753  0.00  0.00    +0.000 C 
ATOM     12  C   UNL     1       1.778   4.759  20.691  0.00  0.00    +0.000 A 
ATOM     13  C   UNL     1       2.392   5.627  19.777  0.00  0.00    +0.000 A 
ATOM     14  C   UNL     1       3.409   5.135  18.936  0.00  0.00    +0.000 A 
ATOM     15  H   UNL     1       5.315   2.698  18.086  0.00  0.00    +0.000 HD
ENDROOT
BRANCH   1  16
ATOM     16  C   UNL     1       7.448   5.072  16.808  0.00  0.00    +0.000 C 
BRANCH  16  18
ATOM     17  C   UNL     1       7.837   6.460  18.879  0.00  0.00    +0.000 C 
ATOM     18  C   UNL     1       7.563   5.065  18.339  0.00  0.00    +0.000 C 
ENDBRANCH  16  18
ENDBRANCH   1  16
BRANCH   1  19
ATOM     19  C   UNL     1       5.918   3.631  15.296  0.00  0.00    +0.000 C 
BRANCH  19  20
ATOM     20  C   UNL     1       6.050   3.980  13.832  0.00  0.00    +0.000 C 
ATOM     21  O   UNL     1       5.299   3.631  12.937  0.00  0.00    +0.000 OA
BRANCH  20  22
ATOM     22  O   UNL     1       7.092   4.811  13.589  0.00  0.00    +0.000 OA
ATOM     23  H   UNL     1       7.324   4.889  12.644  0.00  0.00    +0.000 HD
ENDBRANCH  20  22
ENDBRANCH  19  20
ENDBRANCH   1  19
TORSDOF 5
ENDMDL
MODEL 2
REMARK VINA RESULT:      -7.4      1.119      1.384
REMARK  Name = 
REMARK  7 active torsions:
REMARK  status: ('A' for Active; 'I' for Inactive)
REMARK    1  A    between atoms: C_1  and  C_2
REMARK    2  A    between atoms: C_2  and  C_3
REMARK    3  A    between atoms: C_3  and  C_4
REMARK    4  A    between atoms: C_4  and  C_5
REMARK    5  A    between atoms: C_5  and  C_6
REMARK    6  A    between atoms: C_6  and  O_8
REMARK    7  A    between atoms: C_17  and  C_18
REMARK                            x       y       z     vdW  Elec       q    Type
REMARK                         _______ _______ _______ _____ _____    ______ ____
ROOT
ATOM      1  C   UNL     1       6.426   5.722  17.386  0.00  0.00    +0.000 C 
ATOM      2  O   UNL     1       5.861   6.514  16.291  0.00  0.00    +0.000 OA
ATOM      3  C   UNL     1       4.983   7.587  16.685  0.00  0.00    +0.000 C 
ATOM      4  C   UNL     1       3.716   7.113  17.420  0.00  0.00    +0.000 C 
ATOM      5  C   UNL     1       4.019   5.943  18.278  0.00  0.00    +0.000 A 
ATOM      6  C   UNL     1       5.252   5.323  18.238  0.00  0.00    +0.000 A 
ATOM      7  N   UNL     1       5.223   4.289  19.135  0.00  0.00    +0.000 N 
ATOM      8  C   UNL     1       3.965   4.161  19.672  0.00  0.00    +0.000 A 
ATOM      9  C   UNL     1       3.464   3.197  20.555  0.00  0.00    +0.000 A 
ATOM     10  C   UNL     1       2.131   3.317  20.972  0.00  0.00    +0.000 A 
ATOM     11  C   UNL     1       1.541   2.304  21.910  0.00  0.00    +0.000 C 
ATOM     12  C   UNL     1       1.348   4.384  20.515  0.00  0.00    +0.000 A 
ATOM     13  C   UNL     1       1.862   5.335  19.623  0.00  0.00    +0.000 A 
ATOM     14  C   UNL     1       3.194   5.217  19.182  0.00  0.00    +0.000 A 
ATOM     15  H   UNL     1       6.008   3.684  19.360  0.00  0.00    +0.000 HD
ENDROOT
BRANCH   1  16
ATOM     16  C   UNL     1       7.436   6.583  18.187  0.00  0.00    +0.000 C 
BRANCH  16  18
ATOM     17  C   UNL     1       8.511   8.850  18.452  0.00  0.00    +0.000 C 
ATOM     18  C   UNL     1       7.842   7.885  17.485  0.00  0.00    +0.000 C 
ENDBRANCH  16  18
ENDBRANCH   1  16
BRANCH   1  19
ATOM     19  C   UNL     1       7.071   4.512  16.676  0.00  0.00    +0.000 C 
BRANCH  19  20
ATOM     20  C   UNL     1       6.945   4.487  15.171  0.00  0.00    +0.000 C 
ATOM     21  O   UNL     1       6.220   3.753  14.521  0.00  0.00    +0.000 OA
BRANCH  20  22
ATOM     22  O   UNL     1       7.695   5.442  14.571  0.00  0.00    +0.000 OA
ATOM     23  H   UNL     1       7.324   5.767  13.729  0.00  0.00    +0.000 HD
ENDBRANCH  20  22
ENDBRANCH  19  20
ENDBRANCH   1  19
TORSDOF 5
ENDMDL
MODEL 3
REMARK VINA RESULT:      -7.3      2.570      4.392
REMARK  Name = 
REMARK  7 active torsions:
REMARK  status: ('A' for Active; 'I' for Inactive)
REMARK    1  A    between atoms: C_1  and  C_2
REMARK    2  A    between atoms: C_2  and  C_3
REMARK    3  A    between atoms: C_3  and  C_4
REMARK    4  A    between atoms: C_4  and  C_5
REMARK    5  A    between atoms: C_5  and  C_6
REMARK    6  A    between atoms: C_6  and  O_8
REMARK    7  A    between atoms: C_17  and  C_18
REMARK                            x       y       z     vdW  Elec       q    Type
REMARK                         _______ _______ _______ _____ _____    ______ ____
ROOT
ATOM      1  C   UNL     1       5.148   4.842  17.870  0.00  0.00    +0.000 C 
ATOM      2  O   UNL     1       5.500   3.848  18.885  0.00  0.00    +0.000 OA
ATOM      3  C   UNL     1       4.397   3.106  19.442  0.00  0.00    +0.000 C 
ATOM      4  C   UNL     1       3.378   3.980  20.195  0.00  0.00    +0.000 C 
ATOM      5  C   UNL     1       3.230   5.297  19.529  0.00  0.00    +0.000 A 
ATOM      6  C   UNL     1       4.050   5.669  18.483  0.00  0.00    +0.000 A 
ATOM      7  N   UNL     1       3.670   6.922  18.086  0.00  0.00    +0.000 N 
ATOM      8  C   UNL     1       2.695   7.410  18.922  0.00  0.00    +0.000 A 
ATOM      9  C   UNL     1       2.082   8.669  18.943  0.00  0.00    +0.000 A 
ATOM     10  C   UNL     1       1.084   8.899  19.899  0.00  0.00    +0.000 A 
ATOM     11  C   UNL     1       0.402  10.234  19.970  0.00  0.00    +0.000 C 
ATOM     12  C   UNL     1       0.719   7.881  20.789  0.00  0.00    +0.000 A 
ATOM     13  C   UNL     1       1.350   6.630  20.762  0.00  0.00    +0.000 A 
ATOM     14  C   UNL     1       2.366   6.391  19.818  0.00  0.00    +0.000 A 
ATOM     15  H   UNL     1       4.062   7.434  17.300  0.00  0.00    +0.000 HD
ENDROOT
BRANCH   1  16
ATOM     16  C   UNL     1       4.661   4.126  16.584  0.00  0.00    +0.000 C 
BRANCH  16  18
ATOM     17  C   UNL     1       6.149   3.858  14.565  0.00  0.00    +0.000 C 
ATOM     18  C   UNL     1       5.163   4.767  15.283  0.00  0.00    +0.000 C 
ENDBRANCH  16  18
ENDBRANCH   1  16
BRANCH   1  19
ATOM     19  C   UNL     1       6.448   5.651  17.673  0.00  0.00    +0.000 C 
BRANCH  19  20
ATOM     20  C   UNL     1       7.685   5.075  18.322  0.00  0.00    +0.000 C 
ATOM     21  O   UNL     1       8.166   5.420  19.388  0.00  0.00    +0.000 OA
BRANCH  20  22
ATOM     22  O   UNL     1       8.211   4.045  17.617  0.00  0.00    +0.000 OA
ATOM     23  H   UNL     1       7.739   3.852  16.786  0.00  0.00    +0.000 HD
ENDBRANCH  20  22
ENDBRANCH  19  20
ENDBRANCH   1  19
TORSDOF 5
ENDMDL
MODEL 4
REMARK VINA RESULT:      -7.2      2.499      4.477
REMARK  Name = 
REMARK  7 active torsions:
REMARK  status: ('A' for Active; 'I' for Inactive)
REMARK    1  A    between atoms: C_1  and  C_2
REMARK    2  A    between atoms: C_2  and  C_3
REMARK    3  A    between atoms: C_3  and  C_4
REMARK    4  A    between atoms: C_4  and  C_5
REMARK    5  A    between atoms: C_5  and  C_6
REMARK    6  A    between atoms: C_6  and  O_8
REMARK    7  A    between atoms: C_17  and  C_18
REMARK                            x       y       z     vdW  Elec       q    Type
REMARK                         _______ _______ _______ _____ _____    ______ ____
ROOT
ATOM      1  C   UNL     1       5.663   5.129  17.122  0.00  0.00    +0.000 C 
ATOM      2  O   UNL     1       6.190   4.387  18.269  0.00  0.00    +0.000 OA
ATOM      3  C   UNL     1       5.208   3.712  19.080  0.00  0.00    +0.000 C 
ATOM      4  C   UNL     1       4.201   4.661  19.753  0.00  0.00    +0.000 C 
ATOM      5  C   UNL     1       3.885   5.803  18.861  0.00  0.00    +0.000 A 
ATOM      6  C   UNL     1       4.568   5.999  17.678  0.00  0.00    +0.000 A 
ATOM      7  N   UNL     1       4.053   7.120  17.085  0.00  0.00    +0.000 N 
ATOM      8  C   UNL     1       3.128   7.712  17.912  0.00  0.00    +0.000 A 
ATOM      9  C   UNL     1       2.422   8.910  17.751  0.00  0.00    +0.000 A 
ATOM     10  C   UNL     1       1.506   9.273  18.747  0.00  0.00    +0.000 A 
ATOM     11  C   UNL     1       0.731  10.553  18.628  0.00  0.00    +0.000 C 
ATOM     12  C   UNL     1       1.311   8.440  19.856  0.00  0.00    +0.000 A 
ATOM     13  C   UNL     1       2.034   7.248  20.006  0.00  0.00    +0.000 A 
ATOM     14  C   UNL     1       2.970   6.880  19.021  0.00  0.00    +0.000 A 
ATOM     15  H   UNL     1       4.325   7.483  16.175  0.00  0.00    +0.000 HD
ENDROOT
BRANCH   1  16
ATOM     16  C   UNL     1       5.112   4.138  16.065  0.00  0.00    +0.000 C 
BRANCH  16  18
ATOM     17  C   UNL     1       5.749   3.948  13.631  0.00  0.00    +0.000 C 
ATOM     18  C   UNL     1       6.164   3.644  15.063  0.00  0.00    +0.000 C 
ENDBRANCH  16  18
ENDBRANCH   1  16
BRANCH   1  19
ATOM     19  C   UNL     1       6.870   5.954  16.626  0.00  0.00    +0.000 C 
BRANCH  19  20
ATOM     20  C   UNL     1       7.347   7.046  17.556  0.00  0.00    +0.000 C 
ATOM     21  O   UNL     1       7.207   8.246  17.390  0.00  0.00    +0.000 OA
BRANCH  20  22
ATOM     22  O   UNL     1       7.919   6.557  18.682  0.00  0.00    +0.000 OA
ATOM     23  H   UNL     1       7.400   5.855  19.118  0.00  0.00    +0.000 HD
ENDBRANCH  20  22
ENDBRANCH  19  20
ENDBRANCH   1  19
TORSDOF 5
ENDMDL
MODEL 5
REMARK VINA RESULT:      -7.2      2.773      4.138
REMARK  Name = 
REMARK  7 active torsions:
REMARK  status: ('A' for Active; 'I' for Inactive)
REMARK    1  A    between atoms: C_1  and  C_2
REMARK    2  A    between atoms: C_2  and  C_3
REMARK    3  A    between atoms: C_3  and  C_4
REMARK    4  A    between atoms: C_4  and  C_5
REMARK    5  A    between atoms: C_5  and  C_6
REMARK    6  A    between atoms: C_6  and  O_8
REMARK    7  A    between atoms: C_17  and  C_18
REMARK                            x       y       z     vdW  Elec       q    Type
REMARK                         _______ _______ _______ _____ _____    ______ ____
ROOT
ATOM      1  C   UNL     1       4.844   4.278  17.924  0.00  0.00    +0.000 C 
ATOM      2  O   UNL     1       4.993   4.285  16.467  0.00  0.00    +0.000 OA
ATOM      3  C   UNL     1       5.475   5.517  15.895  0.00  0.00    +0.000 C 
ATOM      4  C   UNL     1       4.536   6.715  16.122  0.00  0.00    +0.000 C 
ATOM      5  C   UNL     1       3.891   6.626  17.454  0.00  0.00    +0.000 A 
ATOM      6  C   UNL     1       4.038   5.507  18.249  0.00  0.00    +0.000 A 
ATOM      7  N   UNL     1       3.333   5.724  19.402  0.00  0.00    +0.000 N 
ATOM      8  C   UNL     1       2.647   6.913  19.323  0.00  0.00    +0.000 A 
ATOM      9  C   UNL     1       1.744   7.486  20.225  0.00  0.00    +0.000 A 
ATOM     10  C   UNL     1       1.200   8.738  19.907  0.00  0.00    +0.000 A 
ATOM     11  C   UNL     1       0.219   9.392  20.836  0.00  0.00    +0.000 C 
ATOM     12  C   UNL     1       1.575   9.382  18.721  0.00  0.00    +0.000 A 
ATOM     13  C   UNL     1       2.473   8.790  17.823  0.00  0.00    +0.000 A 
ATOM     14  C   UNL     1       3.013   7.525  18.122  0.00  0.00    +0.000 A 
ATOM     15  H   UNL     1       3.299   5.094  20.198  0.00  0.00    +0.000 HD
ENDROOT
BRANCH   1  16
ATOM     16  C   UNL     1       6.241   4.330  18.593  0.00  0.00    +0.000 C 
BRANCH  16  18
ATOM     17  C   UNL     1       7.801   6.309  18.719  0.00  0.00    +0.000 C 
ATOM     18  C   UNL     1       6.550   5.660  19.293  0.00  0.00    +0.000 C 
ENDBRANCH  16  18
ENDBRANCH   1  16
BRANCH   1  19
ATOM     19  C   UNL     1       4.067   2.976  18.213  0.00  0.00    +0.000 C 
BRANCH  19  20
ATOM     20  C   UNL     1       4.148   2.462  19.631  0.00  0.00    +0.000 C 
ATOM     21  O   UNL     1       3.454   2.818  20.568  0.00  0.00    +0.000 OA
BRANCH  20  22
ATOM     22  O   UNL     1       5.062   1.472  19.773  0.00  0.00    +0.000 OA
ATOM     23  H   UNL     1       5.157   1.149  20.689  0.00  0.00    +0.000 HD
ENDBRANCH  20  22
ENDBRANCH  19  20
ENDBRANCH   1  19
TORSDOF 5
ENDMDL
MODEL 6
REMARK VINA RESULT:      -7.1      2.650      4.570
REMARK  Name = 
REMARK  7 active torsions:
REMARK  status: ('A' for Active; 'I' for Inactive)
REMARK    1  A    between atoms: C_1  and  C_2
REMARK    2  A    between atoms: C_2  and  C_3
REMARK    3  A    between atoms: C_3  and  C_4
REMARK    4  A    between atoms: C_4  and  C_5
REMARK    5  A    between atoms: C_5  and  C_6
REMARK    6  A    between atoms: C_6  and  O_8
REMARK    7  A    between atoms: C_17  and  C_18
REMARK                            x       y       z     vdW  Elec       q    Type
REMARK                         _______ _______ _______ _____ _____    ______ ____
ROOT
ATOM      1  C   UNL     1       5.170   4.862  17.760  0.00  0.00    +0.000 C 
ATOM      2  O   UNL     1       5.412   4.032  18.942  0.00  0.00    +0.000 OA
ATOM      3  C   UNL     1       4.236   3.489  19.575  0.00  0.00    +0.000 C 
ATOM      4  C   UNL     1       3.280   4.561  20.131  0.00  0.00    +0.000 C 
ATOM      5  C   UNL     1       3.262   5.751  19.247  0.00  0.00    +0.000 A 
ATOM      6  C   UNL     1       4.135   5.869  18.184  0.00  0.00    +0.000 A 
ATOM      7  N   UNL     1       3.875   7.063  17.566  0.00  0.00    +0.000 N 
ATOM      8  C   UNL     1       2.927   7.765  18.271  0.00  0.00    +0.000 A 
ATOM      9  C   UNL     1       2.426   9.054  18.056  0.00  0.00    +0.000 A 
ATOM     10  C   UNL     1       1.431   9.527  18.921  0.00  0.00    +0.000 A 
ATOM     11  C   UNL     1       0.866  10.906  18.740  0.00  0.00    +0.000 C 
ATOM     12  C   UNL     1       0.958   8.710  19.957  0.00  0.00    +0.000 A 
ATOM     13  C   UNL     1       1.479   7.425  20.165  0.00  0.00    +0.000 A 
ATOM     14  C   UNL     1       2.491   6.945  19.313  0.00  0.00    +0.000 A 
ATOM     15  H   UNL     1       4.327   7.398  16.720  0.00  0.00    +0.000 HD
ENDROOT
BRANCH   1  16
ATOM     16  C   UNL     1       4.652   3.978  16.597  0.00  0.00    +0.000 C 
BRANCH  16  18
ATOM     17  C   UNL     1       5.468   4.292  14.230  0.00  0.00    +0.000 C 
ATOM     18  C   UNL     1       5.726   3.610  15.565  0.00  0.00    +0.000 C 
ENDBRANCH  16  18
ENDBRANCH   1  16
BRANCH   1  19
ATOM     19  C   UNL     1       6.540   5.515  17.478  0.00  0.00    +0.000 C 
BRANCH  19  20
ATOM     20  C   UNL     1       7.719   4.914  18.207  0.00  0.00    +0.000 C 
ATOM     21  O   UNL     1       8.499   4.090  17.760  0.00  0.00    +0.000 OA
BRANCH  20  22
ATOM     22  O   UNL     1       7.888   5.439  19.444  0.00  0.00    +0.000 OA
ATOM     23  H   UNL     1       8.595   6.110  19.497  0.00  0.00    +0.000 HD
ENDBRANCH  20  22
ENDBRANCH  19  20
ENDBRANCH   1  19
TORSDOF 5
ENDMDL
MODEL 7
REMARK VINA RESULT:      -7.1      2.620      6.147
REMARK  Name = 
REMARK  7 active torsions:
REMARK  status: ('A' for Active; 'I' for Inactive)
REMARK    1  A    between atoms: C_1  and  C_2
REMARK    2  A    between atoms: C_2  and  C_3
REMARK    3  A    between atoms: C_3  and  C_4
REMARK    4  A    between atoms: C_4  and  C_5
REMARK    5  A    between atoms: C_5  and  C_6
REMARK    6  A    between atoms: C_6  and  O_8
REMARK    7  A    between atoms: C_17  and  C_18
REMARK                            x       y       z     vdW  Elec       q    Type
REMARK                         _______ _______ _______ _____ _____    ______ ____
ROOT
ATOM      1  C   UNL     1       4.520   4.258  18.667  0.00  0.00    +0.000 C 
ATOM      2  O   UNL     1       5.635   4.367  19.610  0.00  0.00    +0.000 OA
ATOM      3  C   UNL     1       6.523   5.483  19.400  0.00  0.00    +0.000 C 
ATOM      4  C   UNL     1       7.256   5.447  18.047  0.00  0.00    +0.000 C 
ATOM      5  C   UNL     1       6.374   4.889  16.993  0.00  0.00    +0.000 A 
ATOM      6  C   UNL     1       5.142   4.347  17.300  0.00  0.00    +0.000 A 
ATOM      7  N   UNL     1       4.574   3.923  16.129  0.00  0.00    +0.000 N 
ATOM      8  C   UNL     1       5.458   4.081  15.088  0.00  0.00    +0.000 A 
ATOM      9  C   UNL     1       5.334   3.707  13.745  0.00  0.00    +0.000 A 
ATOM     10  C   UNL     1       6.389   4.014  12.876  0.00  0.00    +0.000 A 
ATOM     11  C   UNL     1       6.310   3.626  11.428  0.00  0.00    +0.000 C 
ATOM     12  C   UNL     1       7.519   4.687  13.357  0.00  0.00    +0.000 A 
ATOM     13  C   UNL     1       7.632   5.045  14.708  0.00  0.00    +0.000 A 
ATOM     14  C   UNL     1       6.587   4.727  15.595  0.00  0.00    +0.000 A 
ATOM     15  H   UNL     1       3.643   3.528  16.036  0.00  0.00    +0.000 HD
ENDROOT
BRANCH   1  16
ATOM     16  C   UNL     1       3.518   5.417  18.905  0.00  0.00    +0.000 C 
BRANCH  16  18
ATOM     17  C   UNL     1       1.722   5.341  20.675  0.00  0.00    +0.000 C 
ATOM     18  C   UNL     1       2.097   4.953  19.253  0.00  0.00    +0.000 C 
ENDBRANCH  16  18
ENDBRANCH   1  16
BRANCH   1  19
ATOM     19  C   UNL     1       3.928   2.861  18.950  0.00  0.00    +0.000 C 
BRANCH  19  20
ATOM     20  C   UNL     1       4.257   2.267  20.300  0.00  0.00    +0.000 C 
ATOM     21  O   UNL     1       3.606   2.397  21.322  0.00  0.00    +0.000 OA
BRANCH  20  22
ATOM     22  O   UNL     1       5.361   1.483  20.268  0.00  0.00    +0.000 OA
ATOM     23  H   UNL     1       5.188   0.565  19.988  0.00  0.00    +0.000 HD
ENDBRANCH  20  22
ENDBRANCH  19  20
ENDBRANCH   1  19
TORSDOF 5
ENDMDL
MODEL 8
REMARK VINA RESULT:      -7.1      2.780      5.176
REMARK  Name = 
REMARK  7 active torsions:
REMARK  status: ('A' for Active; 'I' for Inactive)
REMARK    1  A    between atoms: C_1  and  C_2
REMARK    2  A    between atoms: C_2  and  C_3
REMARK    3  A    between atoms: C_3  and  C_4
REMARK    4  A    between atoms: C_4  and  C_5
REMARK    5  A    between atoms: C_5  and  C_6
REMARK    6  A    between atoms: C_6  and  O_8
REMARK    7  A    between atoms: C_17  and  C_18
REMARK                            x       y       z     vdW  Elec       q    Type
REMARK                         _______ _______ _______ _____ _____    ______ ____
ROOT
ATOM      1  C   UNL     1       3.911   3.889  18.587  0.00  0.00    +0.000 C 
ATOM      2  O   UNL     1       4.243   3.295  19.884  0.00  0.00    +0.000 OA
ATOM      3  C   UNL     1       3.148   3.177  20.814  0.00  0.00    +0.000 C 
ATOM      4  C   UNL     1       2.539   4.528  21.231  0.00  0.00    +0.000 C 
ATOM      5  C   UNL     1       2.550   5.477  20.092  0.00  0.00    +0.000 A 
ATOM      6  C   UNL     1       3.186   5.168  18.907  0.00  0.00    +0.000 A 
ATOM      7  N   UNL     1       3.020   6.231  18.060  0.00  0.00    +0.000 N 
ATOM      8  C   UNL     1       2.384   7.262  18.711  0.00  0.00    +0.000 A 
ATOM      9  C   UNL     1       2.089   8.554  18.263  0.00  0.00    +0.000 A 
ATOM     10  C   UNL     1       1.399   9.410  19.133  0.00  0.00    +0.000 A 
ATOM     11  C   UNL     1       1.066  10.810  18.706  0.00  0.00    +0.000 C 
ATOM     12  C   UNL     1       1.016   8.958  20.402  0.00  0.00    +0.000 A 
ATOM     13  C   UNL     1       1.329   7.664  20.838  0.00  0.00    +0.000 A 
ATOM     14  C   UNL     1       2.037   6.800  19.982  0.00  0.00    +0.000 A 
ATOM     15  H   UNL     1       3.337   6.270  17.095  0.00  0.00    +0.000 HD
ENDROOT
BRANCH   1  16
ATOM     16  C   UNL     1       3.009   2.918  17.782  0.00  0.00    +0.000 C 
BRANCH  16  18
ATOM     17  C   UNL     1       0.711   2.372  18.670  0.00  0.00    +0.000 C 
ATOM     18  C   UNL     1       1.523   3.302  17.781  0.00  0.00    +0.000 C 
ENDBRANCH  16  18
ENDBRANCH   1  16
BRANCH   1  19
ATOM     19  C   UNL     1       5.285   4.144  17.932  0.00  0.00    +0.000 C 
BRANCH  19  20
ATOM     20  C   UNL     1       6.083   5.294  18.500  0.00  0.00    +0.000 C 
ATOM     21  O   UNL     1       6.259   6.379  17.973  0.00  0.00    +0.000 OA
BRANCH  20  22
ATOM     22  O   UNL     1       6.560   5.032  19.741  0.00  0.00    +0.000 OA
ATOM     23  H   UNL     1       5.883   4.713  20.367  0.00  0.00    +0.000 HD
ENDBRANCH  20  22
ENDBRANCH  19  20
ENDBRANCH   1  19
TORSDOF 5
ENDMDL
MODEL 9
REMARK VINA RESULT:      -7.1      3.514      5.799
REMARK  Name = 
REMARK  7 active torsions:
REMARK  status: ('A' for Active; 'I' for Inactive)
REMARK    1  A    between atoms: C_1  and  C_2
REMARK    2  A    between atoms: C_2  and  C_3
REMARK    3  A    between atoms: C_3  and  C_4
REMARK    4  A    between atoms: C_4  and  C_5
REMARK    5  A    between atoms: C_5  and  C_6
REMARK    6  A    between atoms: C_6  and  O_8
REMARK    7  A    between atoms: C_17  and  C_18
REMARK                            x       y       z     vdW  Elec       q    Type
REMARK                         _______ _______ _______ _____ _____    ______ ____
ROOT
ATOM      1  C   UNL     1       3.143   5.346  18.581  0.00  0.00    +0.000 C 
ATOM      2  O   UNL     1       3.274   4.734  19.905  0.00  0.00    +0.000 OA
ATOM      3  C   UNL     1       2.090   4.767  20.727  0.00  0.00    +0.000 C 
ATOM      4  C   UNL     1       1.619   6.189  21.080  0.00  0.00    +0.000 C 
ATOM      5  C   UNL     1       1.856   7.113  19.945  0.00  0.00    +0.000 A 
ATOM      6  C   UNL     1       2.558   6.711  18.827  0.00  0.00    +0.000 A 
ATOM      7  N   UNL     1       2.607   7.774  17.966  0.00  0.00    +0.000 N 
ATOM      8  C   UNL     1       2.047   8.885  18.550  0.00  0.00    +0.000 A 
ATOM      9  C   UNL     1       1.960  10.198  18.074  0.00  0.00    +0.000 A 
ATOM     10  C   UNL     1       1.304  11.145  18.871  0.00  0.00    +0.000 A 
ATOM     11  C   UNL     1       1.191  12.569  18.411  0.00  0.00    +0.000 C 
ATOM     12  C   UNL     1       0.749  10.763  20.099  0.00  0.00    +0.000 A 
ATOM     13  C   UNL     1       0.855   9.445  20.567  0.00  0.00    +0.000 A 
ATOM     14  C   UNL     1       1.526   8.488  19.783  0.00  0.00    +0.000 A 
ATOM     15  H   UNL     1       3.017   7.759  17.036  0.00  0.00    +0.000 HD
ENDROOT
BRANCH   1  16
ATOM     16  C   UNL     1       2.207   4.484  17.696  0.00  0.00    +0.000 C 
BRANCH  16  18
ATOM     17  C   UNL     1       2.643   2.007  17.890  0.00  0.00    +0.000 C 
ATOM     18  C   UNL     1       2.891   3.263  17.068  0.00  0.00    +0.000 C 
ENDBRANCH  16  18
ENDBRANCH   1  16
BRANCH   1  19
ATOM     19  C   UNL     1       4.595   5.418  18.059  0.00  0.00    +0.000 C 
BRANCH  19  20
ATOM     20  C   UNL     1       5.656   4.884  18.992  0.00  0.00    +0.000 C 
ATOM     21  O   UNL     1       6.420   5.549  19.671  0.00  0.00    +0.000 OA
BRANCH  20  22
ATOM     22  O   UNL     1       5.650   3.532  19.066  0.00  0.00    +0.000 OA
ATOM     23  H   UNL     1       6.327   3.101  18.510  0.00  0.00    +0.000 HD
ENDBRANCH  20  22
ENDBRANCH  19  20
ENDBRANCH   1  19
TORSDOF 5
ENDMDL
