MODEL 1
REMARK VINA RESULT:      -6.5      0.000      0.000
REMARK  Name = 
REMARK  7 active torsions:
REMARK  status: ('A' for Active; 'I' for Inactive)
REMARK    1  A    between atoms: C_1  and  O_2
REMARK    2  A    between atoms: O_2  and  C_3
REMARK    3  A    between atoms: C_5  and  C_6
REMARK    4  A    between atoms: C_10  and  C_11
REMARK    5  A    between atoms: C_12  and  C_13
REMARK    6  A    between atoms: C_18  and  C_19
REMARK    7  A    between atoms: C_19  and  N_20
REMARK                            x       y       z     vdW  Elec       q    Type
REMARK                         _______ _______ _______ _____ _____    ______ ____
ROOT
ATOM      1  C   UNL     1      -1.676  13.671  20.099  0.00  0.00    +0.000 A 
ATOM      2  C   UNL     1      -2.267  13.805  21.393  0.00  0.00    +0.000 A 
ATOM      3  C   UNL     1      -3.394  12.988  21.438  0.00  0.00    +0.000 A 
ATOM      4  N   UNL     1      -3.578  12.529  20.142  0.00  0.00    +0.000 N 
ATOM      5  N   UNL     1      -4.681  11.945  19.628  0.00  0.00    +0.000 NA
ATOM      6  C   UNL     1      -4.539  11.535  18.399  0.00  0.00    +0.000 A 
ATOM      7  N   UNL     1      -3.379  11.496  17.672  0.00  0.00    +0.000 NA
ATOM      8  C   UNL     1      -2.322  12.068  18.158  0.00  0.00    +0.000 A 
ATOM      9  N   UNL     1      -1.160  11.902  17.459  0.00  0.00    +0.000 N 
ATOM     10  C   UNL     1      -2.452  12.770  19.400  0.00  0.00    +0.000 A 
ATOM     11  H   UNL     1      -1.301  11.569  16.513  0.00  0.00    +0.000 HD
ATOM     12  H   UNL     1      -0.474  12.646  17.523  0.00  0.00    +0.000 HD
ENDROOT
BRANCH   1  20
ATOM     13  C   UNL     1       2.237  16.704  18.116  0.00  0.00    +0.000 A 
ATOM     14  C   UNL     1       3.566  16.349  17.846  0.00  0.00    +0.000 A 
ATOM     15  C   UNL     1       4.033  15.053  18.081  0.00  0.00    +0.000 A 
ATOM     16  C   UNL     1       5.474  14.689  17.845  0.00  0.00    +0.000 C 
ATOM     17  C   UNL     1       3.160  14.079  18.586  0.00  0.00    +0.000 A 
ATOM     18  C   UNL     1       1.821  14.407  18.884  0.00  0.00    +0.000 A 
ATOM     19  C   UNL     1       0.762  13.583  19.380  0.00  0.00    +0.000 A 
ATOM     20  C   UNL     1      -0.408  14.272  19.583  0.00  0.00    +0.000 A 
ATOM     21  S   UNL     1      -0.237  15.919  19.185  0.00  0.00    +0.000 S 
ATOM     22  C   UNL     1       1.392  15.720  18.674  0.00  0.00    +0.000 A 
BRANCH  13  24
ATOM     23  C   UNL     1       1.238  18.257  16.628  0.00  0.00    +0.000 C 
ATOM     24  O   UNL     1       1.713  17.957  17.932  0.00  0.00    +0.000 OA
ENDBRANCH  13  24
ENDBRANCH   1  20
BRANCH   2  25
ATOM     25  C   UNL     1      -1.794  14.647  22.525  0.00  0.00    +0.000 A 
ATOM     26  C   UNL     1      -1.166  14.232  23.684  0.00  0.00    +0.000 A 
ATOM     27  N   UNL     1      -0.949  15.293  24.524  0.00  0.00    +0.000 NA
ATOM     28  C   UNL     1      -1.399  16.313  23.831  0.00  0.00    +0.000 A 
ATOM     29  O   UNL     1      -1.911  16.009  22.611  0.00  0.00    +0.000 OA
ENDBRANCH   2  25
BRANCH   3  30
ATOM     30  C   UNL     1      -4.280  12.562  22.585  0.00  0.00    +0.000 C 
BRANCH  30  31
ATOM     31  N   UNL     1      -5.060  13.645  23.222  0.00  0.00    +0.000 NA
ATOM     32  C   UNL     1      -5.878  14.404  22.260  0.00  0.00    +0.000 C 
ATOM     33  C   UNL     1      -7.021  13.578  21.628  0.00  0.00    +0.000 C 
ATOM     34  N   UNL     1      -7.910  12.921  22.600  0.00  0.00    +0.000 NA
ATOM     35  C   UNL     1      -7.169  12.278  23.695  0.00  0.00    +0.000 C 
ATOM     36  C   UNL     1      -5.996  13.122  24.250  0.00  0.00    +0.000 C 
ATOM     37  H   UNL     1      -8.472  12.222  22.118  0.00  0.00    +0.000 HD
ENDBRANCH  30  31
ENDBRANCH   3  30
TORSDOF 5
ENDMDL
MODEL 2
REMARK VINA RESULT:      -6.5      1.418      1.662
REMARK  Name = 
REMARK  7 active torsions:
REMARK  status: ('A' for Active; 'I' for Inactive)
REMARK    1  A    between atoms: C_1  and  O_2
REMARK    2  A    between atoms: O_2  and  C_3
REMARK    3  A    between atoms: C_5  and  C_6
REMARK    4  A    between atoms: C_10  and  C_11
REMARK    5  A    between atoms: C_12  and  C_13
REMARK    6  A    between atoms: C_18  and  C_19
REMARK    7  A    between atoms: C_19  and  N_20
REMARK                            x       y       z     vdW  Elec       q    Type
REMARK                         _______ _______ _______ _____ _____    ______ ____
ROOT
ATOM      1  C   UNL     1      -1.382  13.631  20.505  0.00  0.00    +0.000 A 
ATOM      2  C   UNL     1      -2.325  13.804  21.563  0.00  0.00    +0.000 A 
ATOM      3  C   UNL     1      -3.447  13.034  21.270  0.00  0.00    +0.000 A 
ATOM      4  N   UNL     1      -3.255  12.567  19.978  0.00  0.00    +0.000 N 
ATOM      5  N   UNL     1      -4.179  12.021  19.158  0.00  0.00    +0.000 NA
ATOM      6  C   UNL     1      -3.695  11.592  18.027  0.00  0.00    +0.000 A 
ATOM      7  N   UNL     1      -2.373  11.498  17.679  0.00  0.00    +0.000 NA
ATOM      8  C   UNL     1      -1.486  12.034  18.458  0.00  0.00    +0.000 A 
ATOM      9  N   UNL     1      -0.176  11.813  18.137  0.00  0.00    +0.000 N 
ATOM     10  C   UNL     1      -1.951  12.754  19.605  0.00  0.00    +0.000 A 
ATOM     11  H   UNL     1      -0.043  11.474  17.192  0.00  0.00    +0.000 HD
ATOM     12  H   UNL     1       0.489  12.530  18.403  0.00  0.00    +0.000 HD
ENDROOT
BRANCH   1  20
ATOM     13  C   UNL     1       3.130  16.232  19.353  0.00  0.00    +0.000 A 
ATOM     14  C   UNL     1       4.419  16.010  19.857  0.00  0.00    +0.000 A 
ATOM     15  C   UNL     1       4.672  14.993  20.782  0.00  0.00    +0.000 A 
ATOM     16  C   UNL     1       6.044  14.793  21.365  0.00  0.00    +0.000 C 
ATOM     17  C   UNL     1       3.625  14.166  21.211  0.00  0.00    +0.000 A 
ATOM     18  C   UNL     1       2.312  14.373  20.737  0.00  0.00    +0.000 A 
ATOM     19  C   UNL     1       1.110  13.651  21.017  0.00  0.00    +0.000 A 
ATOM     20  C   UNL     1       0.006  14.176  20.391  0.00  0.00    +0.000 A 
ATOM     21  S   UNL     1       0.411  15.547  19.466  0.00  0.00    +0.000 S 
ATOM     22  C   UNL     1       2.083  15.421  19.842  0.00  0.00    +0.000 A 
BRANCH  13  24
ATOM     23  C   UNL     1       2.979  16.915  17.087  0.00  0.00    +0.000 C 
ATOM     24  O   UNL     1       2.802  17.220  18.462  0.00  0.00    +0.000 OA
ENDBRANCH  13  24
ENDBRANCH   1  20
BRANCH   2  25
ATOM     25  C   UNL     1      -2.176  14.640  22.785  0.00  0.00    +0.000 A 
ATOM     26  C   UNL     1      -1.507  14.321  23.953  0.00  0.00    +0.000 A 
ATOM     27  N   UNL     1      -1.654  15.318  24.883  0.00  0.00    +0.000 NA
ATOM     28  C   UNL     1      -2.354  16.221  24.236  0.00  0.00    +0.000 A 
ATOM     29  O   UNL     1      -2.695  15.894  22.964  0.00  0.00    +0.000 OA
ENDBRANCH   2  25
BRANCH   3  30
ATOM     30  C   UNL     1      -4.651  12.657  22.100  0.00  0.00    +0.000 C 
BRANCH  30  31
ATOM     31  N   UNL     1      -5.913  13.337  21.736  0.00  0.00    +0.000 NA
ATOM     32  C   UNL     1      -7.103  12.675  22.299  0.00  0.00    +0.000 C 
ATOM     33  C   UNL     1      -7.186  12.751  23.841  0.00  0.00    +0.000 C 
ATOM     34  N   UNL     1      -7.088  14.113  24.391  0.00  0.00    +0.000 NA
ATOM     35  C   UNL     1      -6.023  14.902  23.756  0.00  0.00    +0.000 C 
ATOM     36  C   UNL     1      -5.944  14.741  22.218  0.00  0.00    +0.000 C 
ATOM     37  H   UNL     1      -6.912  14.056  25.393  0.00  0.00    +0.000 HD
ENDBRANCH  30  31
ENDBRANCH   3  30
TORSDOF 5
ENDMDL
MODEL 3
REMARK VINA RESULT:      -6.4      1.971      2.510
REMARK  Name = 
REMARK  7 active torsions:
REMARK  status: ('A' for Active; 'I' for Inactive)
REMARK    1  A    between atoms: C_1  and  O_2
REMARK    2  A    between atoms: O_2  and  C_3
REMARK    3  A    between atoms: C_5  and  C_6
REMARK    4  A    between atoms: C_10  and  C_11
REMARK    5  A    between atoms: C_12  and  C_13
REMARK    6  A    between atoms: C_18  and  C_19
REMARK    7  A    between atoms: C_19  and  N_20
REMARK                            x       y       z     vdW  Elec       q    Type
REMARK                         _______ _______ _______ _____ _____    ______ ____
ROOT
ATOM      1  C   UNL     1      -1.797  13.242  19.894  0.00  0.00    +0.000 A 
ATOM      2  C   UNL     1      -2.866  13.920  20.554  0.00  0.00    +0.000 A 
ATOM      3  C   UNL     1      -4.037  13.199  20.329  0.00  0.00    +0.000 A 
ATOM      4  N   UNL     1      -3.705  12.225  19.399  0.00  0.00    +0.000 N 
ATOM      5  N   UNL     1      -4.550  11.473  18.662  0.00  0.00    +0.000 NA
ATOM      6  C   UNL     1      -3.956  10.573  17.930  0.00  0.00    +0.000 A 
ATOM      7  N   UNL     1      -2.631  10.227  17.962  0.00  0.00    +0.000 NA
ATOM      8  C   UNL     1      -1.816  10.957  18.658  0.00  0.00    +0.000 A 
ATOM      9  N   UNL     1      -0.529  10.509  18.759  0.00  0.00    +0.000 N 
ATOM     10  C   UNL     1      -2.343  12.125  19.296  0.00  0.00    +0.000 A 
ATOM     11  H   UNL     1      -0.292   9.799  18.077  0.00  0.00    +0.000 HD
ATOM     12  H   UNL     1       0.194  11.210  18.875  0.00  0.00    +0.000 HD
ENDROOT
BRANCH   1  20
ATOM     13  C   UNL     1       3.301  14.341  21.012  0.00  0.00    +0.000 A 
ATOM     14  C   UNL     1       4.342  14.652  20.126  0.00  0.00    +0.000 A 
ATOM     15  C   UNL     1       4.126  14.720  18.747  0.00  0.00    +0.000 A 
ATOM     16  C   UNL     1       5.257  14.996  17.794  0.00  0.00    +0.000 C 
ATOM     17  C   UNL     1       2.845  14.485  18.231  0.00  0.00    +0.000 A 
ATOM     18  C   UNL     1       1.778  14.153  19.093  0.00  0.00    +0.000 A 
ATOM     19  C   UNL     1       0.403  13.896  18.796  0.00  0.00    +0.000 A 
ATOM     20  C   UNL     1      -0.337  13.566  19.904  0.00  0.00    +0.000 A 
ATOM     21  S   UNL     1       0.623  13.557  21.311  0.00  0.00    +0.000 S 
ATOM     22  C   UNL     1       2.032  14.056  20.463  0.00  0.00    +0.000 A 
BRANCH  13  24
ATOM     23  C   UNL     1       4.629  14.779  22.927  0.00  0.00    +0.000 C 
ATOM     24  O   UNL     1       3.441  14.236  22.371  0.00  0.00    +0.000 OA
ENDBRANCH  13  24
ENDBRANCH   1  20
BRANCH   2  25
ATOM     25  C   UNL     1      -2.792  15.170  21.358  0.00  0.00    +0.000 A 
ATOM     26  C   UNL     1      -2.395  15.307  22.675  0.00  0.00    +0.000 A 
ATOM     27  N   UNL     1      -2.531  16.607  23.089  0.00  0.00    +0.000 NA
ATOM     28  C   UNL     1      -2.949  17.218  22.006  0.00  0.00    +0.000 A 
ATOM     29  O   UNL     1      -3.118  16.424  20.917  0.00  0.00    +0.000 OA
ENDBRANCH   2  25
BRANCH   3  30
ATOM     30  C   UNL     1      -5.415  13.307  20.936  0.00  0.00    +0.000 C 
BRANCH  30  31
ATOM     31  N   UNL     1      -5.683  12.399  22.072  0.00  0.00    +0.000 NA
ATOM     32  C   UNL     1      -5.003  12.816  23.311  0.00  0.00    +0.000 C 
ATOM     33  C   UNL     1      -5.532  14.147  23.893  0.00  0.00    +0.000 C 
ATOM     34  N   UNL     1      -6.987  14.182  24.109  0.00  0.00    +0.000 NA
ATOM     35  C   UNL     1      -7.739  13.622  22.977  0.00  0.00    +0.000 C 
ATOM     36  C   UNL     1      -7.131  12.324  22.391  0.00  0.00    +0.000 C 
ATOM     37  H   UNL     1      -7.278  15.147  24.261  0.00  0.00    +0.000 HD
ENDBRANCH  30  31
ENDBRANCH   3  30
TORSDOF 5
ENDMDL
MODEL 4
REMARK VINA RESULT:      -6.4      4.972      8.538
REMARK  Name = 
REMARK  7 active torsions:
REMARK  status: ('A' for Active; 'I' for Inactive)
REMARK    1  A    between atoms: C_1  and  O_2
REMARK    2  A    between atoms: O_2  and  C_3
REMARK    3  A    between atoms: C_5  and  C_6
REMARK    4  A    between atoms: C_10  and  C_11
REMARK    5  A    between atoms: C_12  and  C_13
REMARK    6  A    between atoms: C_18  and  C_19
REMARK    7  A    between atoms: C_19  and  N_20
REMARK                            x       y       z     vdW  Elec       q    Type
REMARK                         _______ _______ _______ _____ _____    ______ ____
ROOT
ATOM      1  C   UNL     1       6.147  15.260  20.766  0.00  0.00    +0.000 A 
ATOM      2  C   UNL     1       4.774  15.505  20.458  0.00  0.00    +0.000 A 
ATOM      3  C   UNL     1       4.046  15.423  21.643  0.00  0.00    +0.000 A 
ATOM      4  N   UNL     1       4.935  14.951  22.598  0.00  0.00    +0.000 N 
ATOM      5  N   UNL     1       4.638  14.445  23.814  0.00  0.00    +0.000 NA
ATOM      6  C   UNL     1       5.684  14.159  24.537  0.00  0.00    +0.000 A 
ATOM      7  N   UNL     1       6.990  14.464  24.255  0.00  0.00    +0.000 NA
ATOM      8  C   UNL     1       7.278  14.937  23.083  0.00  0.00    +0.000 A 
ATOM      9  N   UNL     1       8.569  15.339  22.886  0.00  0.00    +0.000 N 
ATOM     10  C   UNL     1       6.217  15.047  22.127  0.00  0.00    +0.000 A 
ATOM     11  H   UNL     1       9.213  14.990  23.586  0.00  0.00    +0.000 HD
ATOM     12  H   UNL     1       8.931  15.276  21.942  0.00  0.00    +0.000 HD
ENDROOT
BRANCH   1  20
ATOM     13  C   UNL     1      10.112  16.521  17.428  0.00  0.00    +0.000 A 
ATOM     14  C   UNL     1      11.085  15.679  16.871  0.00  0.00    +0.000 A 
ATOM     15  C   UNL     1      11.109  14.310  17.153  0.00  0.00    +0.000 A 
ATOM     16  C   UNL     1      12.189  13.420  16.601  0.00  0.00    +0.000 C 
ATOM     17  C   UNL     1      10.138  13.756  17.998  0.00  0.00    +0.000 A 
ATOM     18  C   UNL     1       9.154  14.577  18.588  0.00  0.00    +0.000 A 
ATOM     19  C   UNL     1       8.068  14.232  19.453  0.00  0.00    +0.000 A 
ATOM     20  C   UNL     1       7.334  15.319  19.858  0.00  0.00    +0.000 A 
ATOM     21  S   UNL     1       7.953  16.765  19.205  0.00  0.00    +0.000 S 
ATOM     22  C   UNL     1       9.177  15.947  18.318  0.00  0.00    +0.000 A 
BRANCH  13  24
ATOM     23  C   UNL     1      11.189  18.629  17.556  0.00  0.00    +0.000 C 
ATOM     24  O   UNL     1      10.037  17.872  17.216  0.00  0.00    +0.000 OA
ENDBRANCH  13  24
ENDBRANCH   1  20
BRANCH   2  25
ATOM     25  C   UNL     1       4.181  15.807  19.127  0.00  0.00    +0.000 A 
ATOM     26  C   UNL     1       4.122  14.981  18.020  0.00  0.00    +0.000 A 
ATOM     27  N   UNL     1       3.565  15.640  16.954  0.00  0.00    +0.000 NA
ATOM     28  C   UNL     1       3.259  16.811  17.461  0.00  0.00    +0.000 A 
ATOM     29  O   UNL     1       3.585  16.986  18.767  0.00  0.00    +0.000 OA
ENDBRANCH   2  25
BRANCH   3  30
ATOM     30  C   UNL     1       2.618  15.789  21.971  0.00  0.00    +0.000 C 
BRANCH  30  31
ATOM     31  N   UNL     1       1.696  14.648  22.160  0.00  0.00    +0.000 NA
ATOM     32  C   UNL     1       0.326  15.069  22.499  0.00  0.00    +0.000 C 
ATOM     33  C   UNL     1      -0.396  15.819  21.356  0.00  0.00    +0.000 C 
ATOM     34  N   UNL     1      -0.419  15.099  20.073  0.00  0.00    +0.000 NA
ATOM     35  C   UNL     1       0.881  14.498  19.740  0.00  0.00    +0.000 C 
ATOM     36  C   UNL     1       1.589  13.815  20.935  0.00  0.00    +0.000 C 
ATOM     37  H   UNL     1      -0.690  15.745  19.333  0.00  0.00    +0.000 HD
ENDBRANCH  30  31
ENDBRANCH   3  30
TORSDOF 5
ENDMDL
MODEL 5
REMARK VINA RESULT:      -6.3      1.837      2.478
REMARK  Name = 
REMARK  7 active torsions:
REMARK  status: ('A' for Active; 'I' for Inactive)
REMARK    1  A    between atoms: C_1  and  O_2
REMARK    2  A    between atoms: O_2  and  C_3
REMARK    3  A    between atoms: C_5  and  C_6
REMARK    4  A    between atoms: C_10  and  C_11
REMARK    5  A    between atoms: C_12  and  C_13
REMARK    6  A    between atoms: C_18  and  C_19
REMARK    7  A    between atoms: C_19  and  N_20
REMARK                            x       y       z     vdW  Elec       q    Type
REMARK                         _______ _______ _______ _____ _____    ______ ____
ROOT
ATOM      1  C   UNL     1      -1.843  13.173  20.241  0.00  0.00    +0.000 A 
ATOM      2  C   UNL     1      -2.769  13.474  21.285  0.00  0.00    +0.000 A 
ATOM      3  C   UNL     1      -3.977  12.851  20.982  0.00  0.00    +0.000 A 
ATOM      4  N   UNL     1      -3.830  12.352  19.696  0.00  0.00    +0.000 N 
ATOM      5  N   UNL     1      -4.805  11.921  18.867  0.00  0.00    +0.000 NA
ATOM      6  C   UNL     1      -4.365  11.423  17.747  0.00  0.00    +0.000 A 
ATOM      7  N   UNL     1      -3.062  11.157  17.417  0.00  0.00    +0.000 NA
ATOM      8  C   UNL     1      -2.124  11.583  18.205  0.00  0.00    +0.000 A 
ATOM      9  N   UNL     1      -0.849  11.194  17.903  0.00  0.00    +0.000 N 
ATOM     10  C   UNL     1      -2.508  12.367  19.340  0.00  0.00    +0.000 A 
ATOM     11  H   UNL     1      -0.748  10.832  16.963  0.00  0.00    +0.000 HD
ATOM     12  H   UNL     1      -0.101  11.822  18.173  0.00  0.00    +0.000 HD
ENDROOT
BRANCH   1  20
ATOM     13  C   UNL     1       3.326  14.273  20.960  0.00  0.00    +0.000 A 
ATOM     14  C   UNL     1       4.264  14.719  20.016  0.00  0.00    +0.000 A 
ATOM     15  C   UNL     1       3.903  14.946  18.686  0.00  0.00    +0.000 A 
ATOM     16  C   UNL     1       4.923  15.367  17.663  0.00  0.00    +0.000 C 
ATOM     17  C   UNL     1       2.578  14.739  18.278  0.00  0.00    +0.000 A 
ATOM     18  C   UNL     1       1.613  14.275  19.197  0.00  0.00    +0.000 A 
ATOM     19  C   UNL     1       0.219  14.017  19.012  0.00  0.00    +0.000 A 
ATOM     20  C   UNL     1      -0.395  13.534  20.142  0.00  0.00    +0.000 A 
ATOM     21  S   UNL     1       0.707  13.383  21.431  0.00  0.00    +0.000 S 
ATOM     22  C   UNL     1       2.011  14.021  20.512  0.00  0.00    +0.000 A 
BRANCH  13  24
ATOM     23  C   UNL     1       4.984  13.928  22.619  0.00  0.00    +0.000 C 
ATOM     24  O   UNL     1       3.609  14.010  22.273  0.00  0.00    +0.000 OA
ENDBRANCH  13  24
ENDBRANCH   1  20
BRANCH   2  25
ATOM     25  C   UNL     1      -2.531  14.296  22.502  0.00  0.00    +0.000 A 
ATOM     26  C   UNL     1      -2.447  15.673  22.591  0.00  0.00    +0.000 A 
ATOM     27  N   UNL     1      -2.144  16.058  23.872  0.00  0.00    +0.000 NA
ATOM     28  C   UNL     1      -2.107  14.917  24.520  0.00  0.00    +0.000 A 
ATOM     29  O   UNL     1      -2.343  13.811  23.769  0.00  0.00    +0.000 OA
ENDBRANCH   2  25
BRANCH   3  30
ATOM     30  C   UNL     1      -5.230  12.638  21.798  0.00  0.00    +0.000 C 
BRANCH  30  31
ATOM     31  N   UNL     1      -6.310  13.625  21.575  0.00  0.00    +0.000 NA
ATOM     32  C   UNL     1      -7.621  13.157  22.057  0.00  0.00    +0.000 C 
ATOM     33  C   UNL     1      -7.700  13.007  23.594  0.00  0.00    +0.000 C 
ATOM     34  N   UNL     1      -7.313  14.211  24.346  0.00  0.00    +0.000 NA
ATOM     35  C   UNL     1      -6.095  14.839  23.815  0.00  0.00    +0.000 C 
ATOM     36  C   UNL     1      -6.038  14.908  22.270  0.00  0.00    +0.000 C 
ATOM     37  H   UNL     1      -7.164  13.960  25.322  0.00  0.00    +0.000 HD
ENDBRANCH  30  31
ENDBRANCH   3  30
TORSDOF 5
ENDMDL
MODEL 6
REMARK VINA RESULT:      -6.3      2.075      2.712
REMARK  Name = 
REMARK  7 active torsions:
REMARK  status: ('A' for Active; 'I' for Inactive)
REMARK    1  A    between atoms: C_1  and  O_2
REMARK    2  A    between atoms: O_2  and  C_3
REMARK    3  A    between atoms: C_5  and  C_6
REMARK    4  A    between atoms: C_10  and  C_11
REMARK    5  A    between atoms: C_12  and  C_13
REMARK    6  A    between atoms: C_18  and  C_19
REMARK    7  A    between atoms: C_19  and  N_20
REMARK                            x       y       z     vdW  Elec       q    Type
REMARK                         _______ _______ _______ _____ _____    ______ ____
ROOT
ATOM      1  C   UNL     1      -1.410  12.892  19.654  0.00  0.00    +0.000 A 
ATOM      2  C   UNL     1      -2.542  13.390  20.368  0.00  0.00    +0.000 A 
ATOM      3  C   UNL     1      -3.644  12.611  20.025  0.00  0.00    +0.000 A 
ATOM      4  N   UNL     1      -3.219  11.794  18.988  0.00  0.00    +0.000 N 
ATOM      5  N   UNL     1      -3.988  11.075  18.143  0.00  0.00    +0.000 NA
ATOM      6  C   UNL     1      -3.311  10.328  17.318  0.00  0.00    +0.000 A 
ATOM      7  N   UNL     1      -1.962  10.090  17.338  0.00  0.00    +0.000 NA
ATOM      8  C   UNL     1      -1.220  10.789  18.140  0.00  0.00    +0.000 A 
ATOM      9  N   UNL     1       0.098  10.438  18.215  0.00  0.00    +0.000 N 
ATOM     10  C   UNL     1      -1.852  11.819  18.907  0.00  0.00    +0.000 A 
ATOM     11  H   UNL     1       0.403   9.843  17.455  0.00  0.00    +0.000 HD
ATOM     12  H   UNL     1       0.758  11.175  18.436  0.00  0.00    +0.000 HD
ENDROOT
BRANCH   1  20
ATOM     13  C   UNL     1       3.522  14.377  21.036  0.00  0.00    +0.000 A 
ATOM     14  C   UNL     1       4.578  14.779  20.206  0.00  0.00    +0.000 A 
ATOM     15  C   UNL     1       4.426  14.845  18.818  0.00  0.00    +0.000 A 
ATOM     16  C   UNL     1       5.578  15.220  17.925  0.00  0.00    +0.000 C 
ATOM     17  C   UNL     1       3.195  14.515  18.236  0.00  0.00    +0.000 A 
ATOM     18  C   UNL     1       2.116  14.091  19.041  0.00  0.00    +0.000 A 
ATOM     19  C   UNL     1       0.782  13.729  18.673  0.00  0.00    +0.000 A 
ATOM     20  C   UNL     1       0.017  13.330  19.740  0.00  0.00    +0.000 A 
ATOM     21  S   UNL     1       0.904  13.381  21.194  0.00  0.00    +0.000 S 
ATOM     22  C   UNL     1       2.309  13.999  20.421  0.00  0.00    +0.000 A 
BRANCH  13  24
ATOM     23  C   UNL     1       4.871  14.529  22.980  0.00  0.00    +0.000 C 
ATOM     24  O   UNL     1       3.602  14.269  22.399  0.00  0.00    +0.000 OA
ENDBRANCH  13  24
ENDBRANCH   1  20
BRANCH   2  25
ATOM     25  C   UNL     1      -2.584  14.529  21.324  0.00  0.00    +0.000 A 
ATOM     26  C   UNL     1      -2.617  14.474  22.705  0.00  0.00    +0.000 A 
ATOM     27  N   UNL     1      -2.726  15.734  23.238  0.00  0.00    +0.000 NA
ATOM     28  C   UNL     1      -2.700  16.504  22.176  0.00  0.00    +0.000 A 
ATOM     29  O   UNL     1      -2.602  15.856  20.987  0.00  0.00    +0.000 OA
ENDBRANCH   2  25
BRANCH   3  30
ATOM     30  C   UNL     1      -5.036  12.528  20.608  0.00  0.00    +0.000 C 
BRANCH  30  31
ATOM     31  N   UNL     1      -6.042  13.412  19.981  0.00  0.00    +0.000 NA
ATOM     32  C   UNL     1      -7.420  12.918  20.145  0.00  0.00    +0.000 C 
ATOM     33  C   UNL     1      -7.916  12.934  21.609  0.00  0.00    +0.000 C 
ATOM     34  N   UNL     1      -7.789  14.236  22.283  0.00  0.00    +0.000 NA
ATOM     35  C   UNL     1      -6.493  14.879  22.027  0.00  0.00    +0.000 C 
ATOM     36  C   UNL     1      -6.013  14.780  20.558  0.00  0.00    +0.000 C 
ATOM     37  H   UNL     1      -7.908  14.105  23.286  0.00  0.00    +0.000 HD
ENDBRANCH  30  31
ENDBRANCH   3  30
TORSDOF 5
ENDMDL
MODEL 7
REMARK VINA RESULT:      -6.3      3.487      5.873
REMARK  Name = 
REMARK  7 active torsions:
REMARK  status: ('A' for Active; 'I' for Inactive)
REMARK    1  A    between atoms: C_1  and  O_2
REMARK    2  A    between atoms: O_2  and  C_3
REMARK    3  A    between atoms: C_5  and  C_6
REMARK    4  A    between atoms: C_10  and  C_11
REMARK    5  A    between atoms: C_12  and  C_13
REMARK    6  A    between atoms: C_18  and  C_19
REMARK    7  A    between atoms: C_19  and  N_20
REMARK                            x       y       z     vdW  Elec       q    Type
REMARK                         _______ _______ _______ _____ _____    ______ ____
ROOT
ATOM      1  C   UNL     1      -1.149  14.137  22.066  0.00  0.00    +0.000 A 
ATOM      2  C   UNL     1      -2.140  14.419  23.054  0.00  0.00    +0.000 A 
ATOM      3  C   UNL     1      -1.711  15.518  23.794  0.00  0.00    +0.000 A 
ATOM      4  N   UNL     1      -0.409  15.764  23.381  0.00  0.00    +0.000 N 
ATOM      5  N   UNL     1       0.514  16.534  23.995  0.00  0.00    +0.000 NA
ATOM      6  C   UNL     1       1.629  16.652  23.332  0.00  0.00    +0.000 A 
ATOM      7  N   UNL     1       1.880  16.223  22.055  0.00  0.00    +0.000 NA
ATOM      8  C   UNL     1       1.000  15.471  21.470  0.00  0.00    +0.000 A 
ATOM      9  N   UNL     1       1.233  15.165  20.159  0.00  0.00    +0.000 N 
ATOM     10  C   UNL     1      -0.152  15.078  22.224  0.00  0.00    +0.000 A 
ATOM     11  H   UNL     1       2.185  15.345  19.864  0.00  0.00    +0.000 HD
ATOM     12  H   UNL     1       0.870  14.281  19.821  0.00  0.00    +0.000 HD
ENDROOT
BRANCH   1  20
ATOM     13  C   UNL     1      -0.299  10.176  18.597  0.00  0.00    +0.000 A 
ATOM     14  C   UNL     1      -1.086   9.790  17.502  0.00  0.00    +0.000 A 
ATOM     15  C   UNL     1      -2.264  10.469  17.179  0.00  0.00    +0.000 A 
ATOM     16  C   UNL     1      -3.136  10.017  16.040  0.00  0.00    +0.000 C 
ATOM     17  C   UNL     1      -2.670  11.565  17.952  0.00  0.00    +0.000 A 
ATOM     18  C   UNL     1      -1.911  11.970  19.071  0.00  0.00    +0.000 A 
ATOM     19  C   UNL     1      -2.119  13.056  19.978  0.00  0.00    +0.000 A 
ATOM     20  C   UNL     1      -1.178  13.113  20.976  0.00  0.00    +0.000 A 
ATOM     21  S   UNL     1      -0.041  11.854  20.832  0.00  0.00    +0.000 S 
ATOM     22  C   UNL     1      -0.758  11.249  19.391  0.00  0.00    +0.000 A 
BRANCH  13  24
ATOM     23  C   UNL     1       1.900   9.496  18.028  0.00  0.00    +0.000 C 
ATOM     24  O   UNL     1       0.854   9.547  18.987  0.00  0.00    +0.000 OA
ENDBRANCH  13  24
ENDBRANCH   1  20
BRANCH   2  25
ATOM     25  C   UNL     1      -3.422  13.700  23.286  0.00  0.00    +0.000 A 
ATOM     26  C   UNL     1      -3.712  12.786  24.281  0.00  0.00    +0.000 A 
ATOM     27  N   UNL     1      -4.978  12.283  24.124  0.00  0.00    +0.000 NA
ATOM     28  C   UNL     1      -5.427  12.942  23.081  0.00  0.00    +0.000 A 
ATOM     29  O   UNL     1      -4.556  13.823  22.527  0.00  0.00    +0.000 OA
ENDBRANCH   2  25
BRANCH   3  30
ATOM     30  C   UNL     1      -2.419  16.384  24.809  0.00  0.00    +0.000 C 
BRANCH  30  31
ATOM     31  N   UNL     1      -2.694  17.772  24.379  0.00  0.00    +0.000 NA
ATOM     32  C   UNL     1      -3.427  17.842  23.103  0.00  0.00    +0.000 C 
ATOM     33  C   UNL     1      -4.868  17.289  23.183  0.00  0.00    +0.000 C 
ATOM     34  N   UNL     1      -5.694  17.887  24.244  0.00  0.00    +0.000 NA
ATOM     35  C   UNL     1      -4.971  18.010  25.518  0.00  0.00    +0.000 C 
ATOM     36  C   UNL     1      -3.513  18.508  25.376  0.00  0.00    +0.000 C 
ATOM     37  H   UNL     1      -6.525  17.314  24.383  0.00  0.00    +0.000 HD
ENDBRANCH  30  31
ENDBRANCH   3  30
TORSDOF 5
ENDMDL
MODEL 8
REMARK VINA RESULT:      -6.3      3.501      8.166
REMARK  Name = 
REMARK  7 active torsions:
REMARK  status: ('A' for Active; 'I' for Inactive)
REMARK    1  A    between atoms: C_1  and  O_2
REMARK    2  A    between atoms: O_2  and  C_3
REMARK    3  A    between atoms: C_5  and  C_6
REMARK    4  A    between atoms: C_10  and  C_11
REMARK    5  A    between atoms: C_12  and  C_13
REMARK    6  A    between atoms: C_18  and  C_19
REMARK    7  A    between atoms: C_19  and  N_20
REMARK                            x       y       z     vdW  Elec       q    Type
REMARK                         _______ _______ _______ _____ _____    ______ ____
ROOT
ATOM      1  C   UNL     1      -1.025  13.765  20.381  0.00  0.00    +0.000 A 
ATOM      2  C   UNL     1       0.165  13.047  20.711  0.00  0.00    +0.000 A 
ATOM      3  C   UNL     1       1.256  13.838  20.360  0.00  0.00    +0.000 A 
ATOM      4  N   UNL     1       0.730  14.916  19.663  0.00  0.00    +0.000 N 
ATOM      5  N   UNL     1       1.399  15.795  18.886  0.00  0.00    +0.000 NA
ATOM      6  C   UNL     1       0.658  16.761  18.422  0.00  0.00    +0.000 A 
ATOM      7  N   UNL     1      -0.637  17.046  18.768  0.00  0.00    +0.000 NA
ATOM      8  C   UNL     1      -1.285  16.196  19.503  0.00  0.00    +0.000 A 
ATOM      9  N   UNL     1      -2.528  16.575  19.922  0.00  0.00    +0.000 N 
ATOM     10  C   UNL     1      -0.625  14.974  19.850  0.00  0.00    +0.000 A 
ATOM     11  H   UNL     1      -2.908  17.361  19.409  0.00  0.00    +0.000 HD
ATOM     12  H   UNL     1      -3.205  15.836  20.081  0.00  0.00    +0.000 HD
ENDROOT
BRANCH   1  20
ATOM     13  C   UNL     1      -6.064  12.022  20.283  0.00  0.00    +0.000 A 
ATOM     14  C   UNL     1      -7.048  12.139  21.275  0.00  0.00    +0.000 A 
ATOM     15  C   UNL     1      -6.786  12.786  22.486  0.00  0.00    +0.000 A 
ATOM     16  C   UNL     1      -7.825  12.859  23.571  0.00  0.00    +0.000 C 
ATOM     17  C   UNL     1      -5.521  13.343  22.717  0.00  0.00    +0.000 A 
ATOM     18  C   UNL     1      -4.502  13.229  21.748  0.00  0.00    +0.000 A 
ATOM     19  C   UNL     1      -3.163  13.730  21.759  0.00  0.00    +0.000 A 
ATOM     20  C   UNL     1      -2.448  13.385  20.639  0.00  0.00    +0.000 A 
ATOM     21  S   UNL     1      -3.384  12.448  19.568  0.00  0.00    +0.000 S 
ATOM     22  C   UNL     1      -4.783  12.544  20.562  0.00  0.00    +0.000 A 
BRANCH  13  24
ATOM     23  C   UNL     1      -7.031  12.064  18.118  0.00  0.00    +0.000 C 
ATOM     24  O   UNL     1      -6.241  11.385  19.083  0.00  0.00    +0.000 OA
ENDBRANCH  13  24
ENDBRANCH   1  20
BRANCH   2  25
ATOM     25  C   UNL     1       0.270  11.698  21.328  0.00  0.00    +0.000 A 
ATOM     26  C   UNL     1       0.739  10.535  20.746  0.00  0.00    +0.000 A 
ATOM     27  N   UNL     1       0.612   9.476  21.608  0.00  0.00    +0.000 NA
ATOM     28  C   UNL     1       0.126  10.036  22.691  0.00  0.00    +0.000 A 
ATOM     29  O   UNL     1      -0.095  11.373  22.607  0.00  0.00    +0.000 OA
ENDBRANCH   2  25
BRANCH   3  30
ATOM     30  C   UNL     1       2.731  13.704  20.657  0.00  0.00    +0.000 C 
BRANCH  30  31
ATOM     31  N   UNL     1       3.148  14.126  22.011  0.00  0.00    +0.000 NA
ATOM     32  C   UNL     1       4.595  13.969  22.240  0.00  0.00    +0.000 C 
ATOM     33  C   UNL     1       5.467  14.911  21.378  0.00  0.00    +0.000 C 
ATOM     34  N   UNL     1       5.116  16.336  21.486  0.00  0.00    +0.000 NA
ATOM     35  C   UNL     1       3.665  16.564  21.437  0.00  0.00    +0.000 C 
ATOM     36  C   UNL     1       2.834  15.555  22.266  0.00  0.00    +0.000 C 
ATOM     37  H   UNL     1       5.563  16.848  20.727  0.00  0.00    +0.000 HD
ENDBRANCH  30  31
ENDBRANCH   3  30
TORSDOF 5
ENDMDL
MODEL 9
REMARK VINA RESULT:      -6.2      1.101      1.203
REMARK  Name = 
REMARK  7 active torsions:
REMARK  status: ('A' for Active; 'I' for Inactive)
REMARK    1  A    between atoms: C_1  and  O_2
REMARK    2  A    between atoms: O_2  and  C_3
REMARK    3  A    between atoms: C_5  and  C_6
REMARK    4  A    between atoms: C_10  and  C_11
REMARK    5  A    between atoms: C_12  and  C_13
REMARK    6  A    between atoms: C_18  and  C_19
REMARK    7  A    between atoms: C_19  and  N_20
REMARK                            x       y       z     vdW  Elec       q    Type
REMARK                         _______ _______ _______ _____ _____    ______ ____
ROOT
ATOM      1  C   UNL     1      -1.539  13.758  20.185  0.00  0.00    +0.000 A 
ATOM      2  C   UNL     1      -2.428  13.974  21.282  0.00  0.00    +0.000 A 
ATOM      3  C   UNL     1      -3.518  13.121  21.127  0.00  0.00    +0.000 A 
ATOM      4  N   UNL     1      -3.374  12.551  19.871  0.00  0.00    +0.000 N 
ATOM      5  N   UNL     1      -4.310  11.885  19.161  0.00  0.00    +0.000 NA
ATOM      6  C   UNL     1      -3.867  11.383  18.043  0.00  0.00    +0.000 A 
ATOM      7  N   UNL     1      -2.565  11.329  17.622  0.00  0.00    +0.000 NA
ATOM      8  C   UNL     1      -1.667  11.980  18.295  0.00  0.00    +0.000 A 
ATOM      9  N   UNL     1      -0.368  11.802  17.912  0.00  0.00    +0.000 N 
ATOM     10  C   UNL     1      -2.107  12.774  19.402  0.00  0.00    +0.000 A 
ATOM     11  H   UNL     1      -0.269  11.387  16.993  0.00  0.00    +0.000 HD
ATOM     12  H   UNL     1       0.269  12.574  18.072  0.00  0.00    +0.000 HD
ENDROOT
BRANCH   1  20
ATOM     13  C   UNL     1       2.698  16.647  18.719  0.00  0.00    +0.000 A 
ATOM     14  C   UNL     1       4.052  16.412  18.995  0.00  0.00    +0.000 A 
ATOM     15  C   UNL     1       4.460  15.300  19.736  0.00  0.00    +0.000 A 
ATOM     16  C   UNL     1       5.909  15.082  20.080  0.00  0.00    +0.000 C 
ATOM     17  C   UNL     1       3.506  14.388  20.207  0.00  0.00    +0.000 A 
ATOM     18  C   UNL     1       2.133  14.603  19.962  0.00  0.00    +0.000 A 
ATOM     19  C   UNL     1       1.000  13.807  20.322  0.00  0.00    +0.000 A 
ATOM     20  C   UNL     1      -0.195  14.363  19.937  0.00  0.00    +0.000 A 
ATOM     21  S   UNL     1       0.040  15.852  19.144  0.00  0.00    +0.000 S 
ATOM     22  C   UNL     1       1.752  15.743  19.250  0.00  0.00    +0.000 A 
BRANCH  13  24
ATOM     23  C   UNL     1       2.072  17.551  16.619  0.00  0.00    +0.000 C 
ATOM     24  O   UNL     1       2.221  17.724  18.020  0.00  0.00    +0.000 OA
ENDBRANCH  13  24
ENDBRANCH   1  20
BRANCH   2  25
ATOM     25  C   UNL     1      -2.258  14.923  22.415  0.00  0.00    +0.000 A 
ATOM     26  C   UNL     1      -3.014  16.045  22.700  0.00  0.00    +0.000 A 
ATOM     27  N   UNL     1      -2.506  16.708  23.787  0.00  0.00    +0.000 NA
ATOM     28  C   UNL     1      -1.503  15.945  24.153  0.00  0.00    +0.000 A 
ATOM     29  O   UNL     1      -1.297  14.844  23.387  0.00  0.00    +0.000 OA
ENDBRANCH   2  25
BRANCH   3  30
ATOM     30  C   UNL     1      -4.648  12.756  22.061  0.00  0.00    +0.000 C 
BRANCH  30  31
ATOM     31  N   UNL     1      -5.771  13.718  22.107  0.00  0.00    +0.000 NA
ATOM     32  C   UNL     1      -6.986  13.211  21.447  0.00  0.00    +0.000 C 
ATOM     33  C   UNL     1      -7.629  12.004  22.168  0.00  0.00    +0.000 C 
ATOM     34  N   UNL     1      -7.915  12.227  23.594  0.00  0.00    +0.000 NA
ATOM     35  C   UNL     1      -6.806  12.890  24.295  0.00  0.00    +0.000 C 
ATOM     36  C   UNL     1      -6.157  14.050  23.502  0.00  0.00    +0.000 C 
ATOM     37  H   UNL     1      -8.107  11.331  24.039  0.00  0.00    +0.000 HD
ENDBRANCH  30  31
ENDBRANCH   3  30
TORSDOF 5
ENDMDL
