MODEL 1
REMARK VINA RESULT:      -8.3      0.000      0.000
REMARK  Name = 
REMARK  7 active torsions:
REMARK  status: ('A' for Active; 'I' for Inactive)
REMARK    1  A    between atoms: C_1  and  C_2
REMARK    2  A    between atoms: C_7  and  C_8
REMARK    3  A    between atoms: C_8  and  C_9
REMARK    4  A    between atoms: C_12  and  S_13
REMARK    5  A    between atoms: N_14  and  N_15
REMARK    6  A    between atoms: C_16  and  C_18
REMARK    7  A    between atoms: C_22  and  N_23
REMARK                            x       y       z     vdW  Elec       q    Type
REMARK                         _______ _______ _______ _____ _____    ______ ____
ROOT
ATOM      1  C   UNL     1       3.299   2.912  18.070  0.00  0.00    +0.000 A 
ATOM      2  N   UNL     1       3.628   1.732  18.572  0.00  0.00    +0.000 NA
ATOM      3  N   UNL     1       3.100   1.635  19.842  0.00  0.00    +0.000 NA
ATOM      4  C   UNL     1       2.446   2.749  20.080  0.00  0.00    +0.000 A 
ATOM      5  N   UNL     1       2.487   3.557  18.980  0.00  0.00    +0.000 N 
ENDROOT
BRANCH   5   6
ATOM      6  N   UNL     1       2.013   4.840  18.951  0.00  0.00    +0.000 N 
ATOM      7  C   UNL     1       2.782   5.886  19.383  0.00  0.00    +0.000 C 
ATOM      8  O   UNL     1       3.936   5.767  19.789  0.00  0.00    +0.000 OA
ATOM      9  H   UNL     1       1.042   4.906  18.662  0.00  0.00    +0.000 HD
BRANCH   7  10
ATOM     10  C   UNL     1       2.181   7.250  19.346  0.00  0.00    +0.000 A 
ATOM     11  C   UNL     1       2.209   7.938  18.119  0.00  0.00    +0.000 A 
ATOM     12  C   UNL     1       1.679   9.222  17.996  0.00  0.00    +0.000 A 
ATOM     13  C   UNL     1       1.133   9.855  19.103  0.00  0.00    +0.000 A 
ATOM     14  C   UNL     1       1.110   9.195  20.335  0.00  0.00    +0.000 A 
ATOM     15  C   UNL     1       1.632   7.894  20.465  0.00  0.00    +0.000 A 
BRANCH  14  16
ATOM     16  N   UNL     1       0.562   9.886  21.505  0.00  0.00    +0.000 N 
ATOM     17  O   UNL     1       1.063   9.649  22.612  0.00  0.00    +0.000 OA
ATOM     18  O   UNL     1      -0.401  10.649  21.320  0.00  0.00    +0.000 OA
ENDBRANCH  14  16
ENDBRANCH   7  10
ENDBRANCH   5   6
BRANCH   4  19
ATOM     19  S   UNL     1       1.694   3.165  21.576  0.00  0.00    +0.000 S 
ATOM     20  H   UNL     1       1.805   1.951  22.136  0.00  0.00    +0.000 HD
ENDBRANCH   4  19
BRANCH   1  21
ATOM     21  C   UNL     1       3.748   3.432  16.743  0.00  0.00    +0.000 C 
BRANCH  21  28
ATOM     22  C   UNL     1       8.567   5.776  12.589  0.00  0.00    +0.000 C 
ATOM     23  C   UNL     1       7.531   5.137  13.471  0.00  0.00    +0.000 C 
ATOM     24  O   UNL     1       6.675   4.385  13.004  0.00  0.00    +0.000 OA
ATOM     25  N   UNL     1       7.721   5.439  14.805  0.00  0.00    +0.000 N 
ATOM     26  C   UNL     1       6.844   4.995  15.749  0.00  0.00    +0.000 A 
ATOM     27  N   UNL     1       5.674   4.466  15.556  0.00  0.00    +0.000 NA
ATOM     28  C   UNL     1       5.101   4.083  16.755  0.00  0.00    +0.000 A 
ATOM     29  C   UNL     1       5.891   4.349  17.862  0.00  0.00    +0.000 A 
ATOM     30  S   UNL     1       7.344   5.136  17.373  0.00  0.00    +0.000 S 
ATOM     31  H   UNL     1       8.554   5.914  15.121  0.00  0.00    +0.000 HD
ENDBRANCH  21  28
ENDBRANCH   1  21
TORSDOF 6
ENDMDL
MODEL 2
REMARK VINA RESULT:      -8.1      1.790      2.123
REMARK  Name = 
REMARK  7 active torsions:
REMARK  status: ('A' for Active; 'I' for Inactive)
REMARK    1  A    between atoms: C_1  and  C_2
REMARK    2  A    between atoms: C_7  and  C_8
REMARK    3  A    between atoms: C_8  and  C_9
REMARK    4  A    between atoms: C_12  and  S_13
REMARK    5  A    between atoms: N_14  and  N_15
REMARK    6  A    between atoms: C_16  and  C_18
REMARK    7  A    between atoms: C_22  and  N_23
REMARK                            x       y       z     vdW  Elec       q    Type
REMARK                         _______ _______ _______ _____ _____    ______ ____
ROOT
ATOM      1  C   UNL     1       3.224   3.198  17.799  0.00  0.00    +0.000 A 
ATOM      2  N   UNL     1       3.729   2.013  18.105  0.00  0.00    +0.000 NA
ATOM      3  N   UNL     1       3.465   1.756  19.433  0.00  0.00    +0.000 NA
ATOM      4  C   UNL     1       2.790   2.780  19.903  0.00  0.00    +0.000 A 
ATOM      5  N   UNL     1       2.559   3.683  18.905  0.00  0.00    +0.000 N 
ENDROOT
BRANCH   5   6
ATOM      6  N   UNL     1       1.995   4.915  19.099  0.00  0.00    +0.000 N 
ATOM      7  C   UNL     1       2.758   5.988  19.472  0.00  0.00    +0.000 C 
ATOM      8  O   UNL     1       3.976   5.942  19.628  0.00  0.00    +0.000 OA
ATOM      9  H   UNL     1       0.984   4.914  19.016  0.00  0.00    +0.000 HD
BRANCH   7  10
ATOM     10  C   UNL     1       2.064   7.289  19.691  0.00  0.00    +0.000 A 
ATOM     11  C   UNL     1       2.114   8.234  18.650  0.00  0.00    +0.000 A 
ATOM     12  C   UNL     1       1.500   9.481  18.773  0.00  0.00    +0.000 A 
ATOM     13  C   UNL     1       0.847   9.818  19.948  0.00  0.00    +0.000 A 
ATOM     14  C   UNL     1       0.799   8.900  21.001  0.00  0.00    +0.000 A 
ATOM     15  C   UNL     1       1.405   7.634  20.881  0.00  0.00    +0.000 A 
BRANCH  14  16
ATOM     16  N   UNL     1       0.136   9.279  22.250  0.00  0.00    +0.000 N 
ATOM     17  O   UNL     1       0.594  10.235  22.890  0.00  0.00    +0.000 OA
ATOM     18  O   UNL     1      -0.835   8.593  22.614  0.00  0.00    +0.000 OA
ENDBRANCH  14  16
ENDBRANCH   7  10
ENDBRANCH   5   6
BRANCH   4  19
ATOM     19  S   UNL     1       2.312   2.991  21.548  0.00  0.00    +0.000 S 
ATOM     20  H   UNL     1       1.428   1.983  21.573  0.00  0.00    +0.000 HD
ENDBRANCH   4  19
BRANCH   1  21
ATOM     21  C   UNL     1       3.371   3.872  16.473  0.00  0.00    +0.000 C 
BRANCH  21  28
ATOM     22  C   UNL     1       8.112   8.538  17.785  0.00  0.00    +0.000 C 
ATOM     23  C   UNL     1       6.996   7.596  17.431  0.00  0.00    +0.000 C 
ATOM     24  O   UNL     1       5.830   7.850  17.735  0.00  0.00    +0.000 OA
ATOM     25  N   UNL     1       7.437   6.515  16.694  0.00  0.00    +0.000 N 
ATOM     26  C   UNL     1       6.575   5.523  16.331  0.00  0.00    +0.000 A 
ATOM     27  N   UNL     1       5.368   5.325  16.767  0.00  0.00    +0.000 NA
ATOM     28  C   UNL     1       4.780   4.253  16.120  0.00  0.00    +0.000 A 
ATOM     29  C   UNL     1       5.597   3.650  15.179  0.00  0.00    +0.000 A 
ATOM     30  S   UNL     1       7.138   4.423  15.157  0.00  0.00    +0.000 S 
ATOM     31  H   UNL     1       8.379   6.477  16.333  0.00  0.00    +0.000 HD
ENDBRANCH  21  28
ENDBRANCH   1  21
TORSDOF 6
ENDMDL
MODEL 3
REMARK VINA RESULT:      -7.9      1.489      1.683
REMARK  Name = 
REMARK  7 active torsions:
REMARK  status: ('A' for Active; 'I' for Inactive)
REMARK    1  A    between atoms: C_1  and  C_2
REMARK    2  A    between atoms: C_7  and  C_8
REMARK    3  A    between atoms: C_8  and  C_9
REMARK    4  A    between atoms: C_12  and  S_13
REMARK    5  A    between atoms: N_14  and  N_15
REMARK    6  A    between atoms: C_16  and  C_18
REMARK    7  A    between atoms: C_22  and  N_23
REMARK                            x       y       z     vdW  Elec       q    Type
REMARK                         _______ _______ _______ _____ _____    ______ ____
ROOT
ATOM      1  C   UNL     1       4.484   3.565  19.280  0.00  0.00    +0.000 A 
ATOM      2  N   UNL     1       4.553   2.279  18.973  0.00  0.00    +0.000 NA
ATOM      3  N   UNL     1       3.274   1.815  18.748  0.00  0.00    +0.000 NA
ATOM      4  C   UNL     1       2.456   2.830  18.904  0.00  0.00    +0.000 A 
ATOM      5  N   UNL     1       3.168   3.964  19.177  0.00  0.00    +0.000 N 
ENDROOT
BRANCH   5   6
ATOM      6  N   UNL     1       2.603   5.162  19.519  0.00  0.00    +0.000 N 
ATOM      7  C   UNL     1       2.651   6.233  18.668  0.00  0.00    +0.000 C 
ATOM      8  O   UNL     1       3.160   6.197  17.550  0.00  0.00    +0.000 OA
ATOM      9  H   UNL     1       2.237   5.180  20.466  0.00  0.00    +0.000 HD
BRANCH   7  10
ATOM     10  C   UNL     1       2.037   7.511  19.128  0.00  0.00    +0.000 A 
ATOM     11  C   UNL     1       1.920   8.549  18.186  0.00  0.00    +0.000 A 
ATOM     12  C   UNL     1       1.367   9.783  18.531  0.00  0.00    +0.000 A 
ATOM     13  C   UNL     1       0.944  10.011  19.832  0.00  0.00    +0.000 A 
ATOM     14  C   UNL     1       1.066   8.999  20.787  0.00  0.00    +0.000 A 
ATOM     15  C   UNL     1       1.612   7.747  20.444  0.00  0.00    +0.000 A 
BRANCH  14  16
ATOM     16  N   UNL     1       0.648   9.263  22.166  0.00  0.00    +0.000 N 
ATOM     17  O   UNL     1       1.504   9.650  22.973  0.00  0.00    +0.000 OA
ATOM     18  O   UNL     1      -0.541   9.049  22.454  0.00  0.00    +0.000 OA
ENDBRANCH  14  16
ENDBRANCH   7  10
ENDBRANCH   5   6
BRANCH   4  19
ATOM     19  S   UNL     1       0.734   2.745  18.836  0.00  0.00    +0.000 S 
ATOM     20  H   UNL     1       0.528   4.066  18.729  0.00  0.00    +0.000 HD
ENDBRANCH   4  19
BRANCH   1  21
ATOM     21  C   UNL     1       5.651   4.414  19.670  0.00  0.00    +0.000 C 
BRANCH  21  28
ATOM     22  C   UNL     1       6.523   4.259  12.948  0.00  0.00    +0.000 C 
ATOM     23  C   UNL     1       6.414   4.195  14.446  0.00  0.00    +0.000 C 
ATOM     24  O   UNL     1       6.098   3.151  15.016  0.00  0.00    +0.000 OA
ATOM     25  N   UNL     1       6.774   5.385  15.048  0.00  0.00    +0.000 N 
ATOM     26  C   UNL     1       6.682   5.535  16.400  0.00  0.00    +0.000 A 
ATOM     27  N   UNL     1       6.083   4.751  17.244  0.00  0.00    +0.000 NA
ATOM     28  C   UNL     1       6.256   5.198  18.541  0.00  0.00    +0.000 A 
ATOM     29  C   UNL     1       7.010   6.355  18.638  0.00  0.00    +0.000 A 
ATOM     30  S   UNL     1       7.455   6.901  17.064  0.00  0.00    +0.000 S 
ATOM     31  H   UNL     1       7.194   6.134  14.518  0.00  0.00    +0.000 HD
ENDBRANCH  21  28
ENDBRANCH   1  21
TORSDOF 6
ENDMDL
MODEL 4
REMARK VINA RESULT:      -7.8      2.447      2.834
REMARK  Name = 
REMARK  7 active torsions:
REMARK  status: ('A' for Active; 'I' for Inactive)
REMARK    1  A    between atoms: C_1  and  C_2
REMARK    2  A    between atoms: C_7  and  C_8
REMARK    3  A    between atoms: C_8  and  C_9
REMARK    4  A    between atoms: C_12  and  S_13
REMARK    5  A    between atoms: N_14  and  N_15
REMARK    6  A    between atoms: C_16  and  C_18
REMARK    7  A    between atoms: C_22  and  N_23
REMARK                            x       y       z     vdW  Elec       q    Type
REMARK                         _______ _______ _______ _____ _____    ______ ____
ROOT
ATOM      1  C   UNL     1       4.184   3.988  17.138  0.00  0.00    +0.000 A 
ATOM      2  N   UNL     1       4.337   2.676  17.234  0.00  0.00    +0.000 NA
ATOM      3  N   UNL     1       3.226   2.152  17.859  0.00  0.00    +0.000 NA
ATOM      4  C   UNL     1       2.413   3.151  18.116  0.00  0.00    +0.000 A 
ATOM      5  N   UNL     1       2.937   4.314  17.629  0.00  0.00    +0.000 N 
ENDROOT
BRANCH   5   6
ATOM      6  N   UNL     1       2.396   5.551  17.849  0.00  0.00    +0.000 N 
ATOM      7  C   UNL     1       2.731   6.281  18.957  0.00  0.00    +0.000 C 
ATOM      8  O   UNL     1       3.542   5.911  19.802  0.00  0.00    +0.000 OA
ATOM      9  H   UNL     1       1.691   5.811  17.166  0.00  0.00    +0.000 HD
BRANCH   7  10
ATOM     10  C   UNL     1       2.075   7.607  19.138  0.00  0.00    +0.000 A 
ATOM     11  C   UNL     1       2.023   8.462  18.021  0.00  0.00    +0.000 A 
ATOM     12  C   UNL     1       1.436   9.726  18.103  0.00  0.00    +0.000 A 
ATOM     13  C   UNL     1       0.913  10.170  19.307  0.00  0.00    +0.000 A 
ATOM     14  C   UNL     1       0.970   9.343  20.433  0.00  0.00    +0.000 A 
ATOM     15  C   UNL     1       1.549   8.062  20.357  0.00  0.00    +0.000 A 
BRANCH  14  16
ATOM     16  N   UNL     1       0.446   9.835  21.708  0.00  0.00    +0.000 N 
ATOM     17  O   UNL     1       0.718  10.996  22.045  0.00  0.00    +0.000 OA
ATOM     18  O   UNL     1      -0.217   9.044  22.399  0.00  0.00    +0.000 OA
ENDBRANCH  14  16
ENDBRANCH   7  10
ENDBRANCH   5   6
BRANCH   4  19
ATOM     19  S   UNL     1       0.929   3.032  18.989  0.00  0.00    +0.000 S 
ATOM     20  H   UNL     1       0.697   1.742  18.704  0.00  0.00    +0.000 HD
ENDBRANCH   4  19
BRANCH   1  21
ATOM     21  C   UNL     1       5.207   4.930  16.591  0.00  0.00    +0.000 C 
BRANCH  21  28
ATOM     22  C   UNL     1       9.029  10.107  18.727  0.00  0.00    +0.000 C 
ATOM     23  C   UNL     1       8.246   8.966  18.141  0.00  0.00    +0.000 C 
ATOM     24  O   UNL     1       7.620   9.100  17.089  0.00  0.00    +0.000 OA
ATOM     25  N   UNL     1       8.388   7.803  18.871  0.00  0.00    +0.000 N 
ATOM     26  C   UNL     1       7.703   6.677  18.524  0.00  0.00    +0.000 A 
ATOM     27  N   UNL     1       6.723   6.575  17.678  0.00  0.00    +0.000 NA
ATOM     28  C   UNL     1       6.322   5.259  17.542  0.00  0.00    +0.000 A 
ATOM     29  C   UNL     1       7.042   4.372  18.325  0.00  0.00    +0.000 A 
ATOM     30  S   UNL     1       8.198   5.228  19.274  0.00  0.00    +0.000 S 
ATOM     31  H   UNL     1       9.064   7.733  19.618  0.00  0.00    +0.000 HD
ENDBRANCH  21  28
ENDBRANCH   1  21
TORSDOF 6
ENDMDL
MODEL 5
REMARK VINA RESULT:      -7.7      1.332      1.761
REMARK  Name = 
REMARK  7 active torsions:
REMARK  status: ('A' for Active; 'I' for Inactive)
REMARK    1  A    between atoms: C_1  and  C_2
REMARK    2  A    between atoms: C_7  and  C_8
REMARK    3  A    between atoms: C_8  and  C_9
REMARK    4  A    between atoms: C_12  and  S_13
REMARK    5  A    between atoms: N_14  and  N_15
REMARK    6  A    between atoms: C_16  and  C_18
REMARK    7  A    between atoms: C_22  and  N_23
REMARK                            x       y       z     vdW  Elec       q    Type
REMARK                         _______ _______ _______ _____ _____    ______ ____
ROOT
ATOM      1  C   UNL     1       3.010   3.039  17.996  0.00  0.00    +0.000 A 
ATOM      2  N   UNL     1       3.348   1.790  18.276  0.00  0.00    +0.000 NA
ATOM      3  N   UNL     1       2.849   1.472  19.521  0.00  0.00    +0.000 NA
ATOM      4  C   UNL     1       2.204   2.526  19.965  0.00  0.00    +0.000 A 
ATOM      5  N   UNL     1       2.222   3.514  19.023  0.00  0.00    +0.000 N 
ENDROOT
BRANCH   5   6
ATOM      6  N   UNL     1       1.751   4.782  19.230  0.00  0.00    +0.000 N 
ATOM      7  C   UNL     1       2.547   5.748  19.783  0.00  0.00    +0.000 C 
ATOM      8  O   UNL     1       3.721   5.571  20.100  0.00  0.00    +0.000 OA
ATOM      9  H   UNL     1       0.766   4.888  19.010  0.00  0.00    +0.000 HD
BRANCH   7  10
ATOM     10  C   UNL     1       1.949   7.096  20.003  0.00  0.00    +0.000 A 
ATOM     11  C   UNL     1       1.297   7.324  21.228  0.00  0.00    +0.000 A 
ATOM     12  C   UNL     1       0.701   8.553  21.514  0.00  0.00    +0.000 A 
ATOM     13  C   UNL     1       0.723   9.569  20.571  0.00  0.00    +0.000 A 
ATOM     14  C   UNL     1       1.351   9.358  19.341  0.00  0.00    +0.000 A 
ATOM     15  C   UNL     1       1.966   8.125  19.048  0.00  0.00    +0.000 A 
BRANCH  14  16
ATOM     16  N   UNL     1       1.339  10.425  18.339  0.00  0.00    +0.000 N 
ATOM     17  O   UNL     1       0.356  11.178  18.298  0.00  0.00    +0.000 OA
ATOM     18  O   UNL     1       2.306  10.493  17.561  0.00  0.00    +0.000 OA
ENDBRANCH  14  16
ENDBRANCH   7  10
ENDBRANCH   5   6
BRANCH   4  19
ATOM     19  S   UNL     1       1.489   2.673  21.529  0.00  0.00    +0.000 S 
ATOM     20  H   UNL     1       2.546   3.252  22.117  0.00  0.00    +0.000 HD
ENDBRANCH   4  19
BRANCH   1  21
ATOM     21  C   UNL     1       3.431   3.783  16.769  0.00  0.00    +0.000 C 
BRANCH  21  28
ATOM     22  C   UNL     1       8.521   5.574  12.663  0.00  0.00    +0.000 C 
ATOM     23  C   UNL     1       7.412   5.055  13.534  0.00  0.00    +0.000 C 
ATOM     24  O   UNL     1       6.478   4.408  13.057  0.00  0.00    +0.000 OA
ATOM     25  N   UNL     1       7.624   5.328  14.872  0.00  0.00    +0.000 N 
ATOM     26  C   UNL     1       6.693   4.985  15.807  0.00  0.00    +0.000 A 
ATOM     27  N   UNL     1       5.472   4.594  15.602  0.00  0.00    +0.000 NA
ATOM     28  C   UNL     1       4.849   4.275  16.795  0.00  0.00    +0.000 A 
ATOM     29  C   UNL     1       5.655   4.444  17.909  0.00  0.00    +0.000 A 
ATOM     30  S   UNL     1       7.193   5.061  17.435  0.00  0.00    +0.000 S 
ATOM     31  H   UNL     1       8.503   5.703  15.196  0.00  0.00    +0.000 HD
ENDBRANCH  21  28
ENDBRANCH   1  21
TORSDOF 6
ENDMDL
MODEL 6
REMARK VINA RESULT:      -7.7      2.129      2.627
REMARK  Name = 
REMARK  7 active torsions:
REMARK  status: ('A' for Active; 'I' for Inactive)
REMARK    1  A    between atoms: C_1  and  C_2
REMARK    2  A    between atoms: C_7  and  C_8
REMARK    3  A    between atoms: C_8  and  C_9
REMARK    4  A    between atoms: C_12  and  S_13
REMARK    5  A    between atoms: N_14  and  N_15
REMARK    6  A    between atoms: C_16  and  C_18
REMARK    7  A    between atoms: C_22  and  N_23
REMARK                            x       y       z     vdW  Elec       q    Type
REMARK                         _______ _______ _______ _____ _____    ______ ____
ROOT
ATOM      1  C   UNL     1       3.256   3.121  17.748  0.00  0.00    +0.000 A 
ATOM      2  N   UNL     1       3.776   1.929  17.992  0.00  0.00    +0.000 NA
ATOM      3  N   UNL     1       3.542   1.612  19.313  0.00  0.00    +0.000 NA
ATOM      4  C   UNL     1       2.869   2.609  19.841  0.00  0.00    +0.000 A 
ATOM      5  N   UNL     1       2.610   3.552  18.888  0.00  0.00    +0.000 N 
ENDROOT
BRANCH   5   6
ATOM      6  N   UNL     1       2.041   4.769  19.146  0.00  0.00    +0.000 N 
ATOM      7  C   UNL     1       2.804   5.833  19.547  0.00  0.00    +0.000 C 
ATOM      8  O   UNL     1       4.025   5.792  19.672  0.00  0.00    +0.000 OA
ATOM      9  H   UNL     1       1.028   4.763  19.087  0.00  0.00    +0.000 HD
BRANCH   7  10
ATOM     10  C   UNL     1       2.104   7.117  19.836  0.00  0.00    +0.000 A 
ATOM     11  C   UNL     1       1.412   7.217  21.057  0.00  0.00    +0.000 A 
ATOM     12  C   UNL     1       0.722   8.379  21.406  0.00  0.00    +0.000 A 
ATOM     13  C   UNL     1       0.688   9.453  20.530  0.00  0.00    +0.000 A 
ATOM     14  C   UNL     1       1.355   9.368  19.304  0.00  0.00    +0.000 A 
ATOM     15  C   UNL     1       2.064   8.204  18.950  0.00  0.00    +0.000 A 
BRANCH  14  16
ATOM     16  N   UNL     1       1.283  10.495  18.372  0.00  0.00    +0.000 N 
ATOM     17  O   UNL     1       2.230  10.671  17.593  0.00  0.00    +0.000 OA
ATOM     18  O   UNL     1       0.286  11.233  18.441  0.00  0.00    +0.000 OA
ENDBRANCH  14  16
ENDBRANCH   7  10
ENDBRANCH   5   6
BRANCH   4  19
ATOM     19  S   UNL     1       2.424   2.744  21.503  0.00  0.00    +0.000 S 
ATOM     20  H   UNL     1       3.616   2.382  22.001  0.00  0.00    +0.000 HD
ENDBRANCH   4  19
BRANCH   1  21
ATOM     21  C   UNL     1       3.369   3.853  16.450  0.00  0.00    +0.000 C 
BRANCH  21  28
ATOM     22  C   UNL     1       8.135   8.481  17.808  0.00  0.00    +0.000 C 
ATOM     23  C   UNL     1       7.011   7.549  17.448  0.00  0.00    +0.000 C 
ATOM     24  O   UNL     1       5.853   7.790  17.787  0.00  0.00    +0.000 OA
ATOM     25  N   UNL     1       7.437   6.493  16.665  0.00  0.00    +0.000 N 
ATOM     26  C   UNL     1       6.567   5.513  16.289  0.00  0.00    +0.000 A 
ATOM     27  N   UNL     1       5.371   5.298  16.746  0.00  0.00    +0.000 NA
ATOM     28  C   UNL     1       4.769   4.248  16.078  0.00  0.00    +0.000 A 
ATOM     29  C   UNL     1       5.565   3.678  15.099  0.00  0.00    +0.000 A 
ATOM     30  S   UNL     1       7.105   4.454  15.067  0.00  0.00    +0.000 S 
ATOM     31  H   UNL     1       8.371   6.470  16.281  0.00  0.00    +0.000 HD
ENDBRANCH  21  28
ENDBRANCH   1  21
TORSDOF 6
ENDMDL
MODEL 7
REMARK VINA RESULT:      -7.6      1.768      1.981
REMARK  Name = 
REMARK  7 active torsions:
REMARK  status: ('A' for Active; 'I' for Inactive)
REMARK    1  A    between atoms: C_1  and  C_2
REMARK    2  A    between atoms: C_7  and  C_8
REMARK    3  A    between atoms: C_8  and  C_9
REMARK    4  A    between atoms: C_12  and  S_13
REMARK    5  A    between atoms: N_14  and  N_15
REMARK    6  A    between atoms: C_16  and  C_18
REMARK    7  A    between atoms: C_22  and  N_23
REMARK                            x       y       z     vdW  Elec       q    Type
REMARK                         _______ _______ _______ _____ _____    ______ ____
ROOT
ATOM      1  C   UNL     1       4.810   4.081  19.623  0.00  0.00    +0.000 A 
ATOM      2  N   UNL     1       4.964   2.767  19.663  0.00  0.00    +0.000 NA
ATOM      3  N   UNL     1       3.826   2.210  20.207  0.00  0.00    +0.000 NA
ATOM      4  C   UNL     1       2.996   3.194  20.470  0.00  0.00    +0.000 A 
ATOM      5  N   UNL     1       3.539   4.381  20.067  0.00  0.00    +0.000 N 
ENDROOT
BRANCH   5   6
ATOM      6  N   UNL     1       2.982   5.605  20.318  0.00  0.00    +0.000 N 
ATOM      7  C   UNL     1       2.326   6.296  19.335  0.00  0.00    +0.000 C 
ATOM      8  O   UNL     1       2.162   5.873  18.193  0.00  0.00    +0.000 OA
ATOM      9  H   UNL     1       3.177   5.954  21.250  0.00  0.00    +0.000 HD
BRANCH   7  10
ATOM     10  C   UNL     1       1.773   7.635  19.681  0.00  0.00    +0.000 A 
ATOM     11  C   UNL     1       1.763   8.614  18.670  0.00  0.00    +0.000 A 
ATOM     12  C   UNL     1       1.271   9.898  18.909  0.00  0.00    +0.000 A 
ATOM     13  C   UNL     1       0.805  10.237  20.170  0.00  0.00    +0.000 A 
ATOM     14  C   UNL     1       0.822   9.285  21.193  0.00  0.00    +0.000 A 
ATOM     15  C   UNL     1       1.304   7.983  20.957  0.00  0.00    +0.000 A 
BRANCH  14  16
ATOM     16  N   UNL     1       0.359   9.664  22.529  0.00  0.00    +0.000 N 
ATOM     17  O   UNL     1      -0.807  10.062  22.655  0.00  0.00    +0.000 OA
ATOM     18  O   UNL     1       1.180   9.596  23.460  0.00  0.00    +0.000 OA
ENDBRANCH  14  16
ENDBRANCH   7  10
ENDBRANCH   5   6
BRANCH   4  19
ATOM     19  S   UNL     1       1.471   3.030  21.261  0.00  0.00    +0.000 S 
ATOM     20  H   UNL     1       1.493   1.691  21.340  0.00  0.00    +0.000 HD
ENDBRANCH   4  19
BRANCH   1  21
ATOM     21  C   UNL     1       5.855   5.050  19.173  0.00  0.00    +0.000 C 
BRANCH  21  28
ATOM     22  C   UNL     1       5.814   3.561  12.559  0.00  0.00    +0.000 C 
ATOM     23  C   UNL     1       5.953   3.881  14.021  0.00  0.00    +0.000 C 
ATOM     24  O   UNL     1       6.534   3.112  14.787  0.00  0.00    +0.000 OA
ATOM     25  N   UNL     1       5.431   5.120  14.338  0.00  0.00    +0.000 N 
ATOM     26  C   UNL     1       5.414   5.556  15.629  0.00  0.00    +0.000 A 
ATOM     27  N   UNL     1       5.645   4.863  16.702  0.00  0.00    +0.000 NA
ATOM     28  C   UNL     1       5.596   5.665  17.828  0.00  0.00    +0.000 A 
ATOM     29  C   UNL     1       5.316   6.993  17.557  0.00  0.00    +0.000 A 
ATOM     30  S   UNL     1       5.064   7.208  15.865  0.00  0.00    +0.000 S 
ATOM     31  H   UNL     1       5.136   5.763  13.618  0.00  0.00    +0.000 HD
ENDBRANCH  21  28
ENDBRANCH   1  21
TORSDOF 6
ENDMDL
MODEL 8
REMARK VINA RESULT:      -7.6      0.979      1.008
REMARK  Name = 
REMARK  7 active torsions:
REMARK  status: ('A' for Active; 'I' for Inactive)
REMARK    1  A    between atoms: C_1  and  C_2
REMARK    2  A    between atoms: C_7  and  C_8
REMARK    3  A    between atoms: C_8  and  C_9
REMARK    4  A    between atoms: C_12  and  S_13
REMARK    5  A    between atoms: N_14  and  N_15
REMARK    6  A    between atoms: C_16  and  C_18
REMARK    7  A    between atoms: C_22  and  N_23
REMARK                            x       y       z     vdW  Elec       q    Type
REMARK                         _______ _______ _______ _____ _____    ______ ____
ROOT
ATOM      1  C   UNL     1       2.887   3.393  18.294  0.00  0.00    +0.000 A 
ATOM      2  N   UNL     1       3.328   2.189  18.622  0.00  0.00    +0.000 NA
ATOM      3  N   UNL     1       2.985   1.941  19.933  0.00  0.00    +0.000 NA
ATOM      4  C   UNL     1       2.328   2.990  20.371  0.00  0.00    +0.000 A 
ATOM      5  N   UNL     1       2.185   3.903  19.365  0.00  0.00    +0.000 N 
ENDROOT
BRANCH   5   6
ATOM      6  N   UNL     1       1.662   5.156  19.533  0.00  0.00    +0.000 N 
ATOM      7  C   UNL     1       2.475   6.234  19.759  0.00  0.00    +0.000 C 
ATOM      8  O   UNL     1       3.701   6.173  19.796  0.00  0.00    +0.000 OA
ATOM      9  H   UNL     1       0.648   5.172  19.551  0.00  0.00    +0.000 HD
BRANCH   7  10
ATOM     10  C   UNL     1       1.825   7.561  19.960  0.00  0.00    +0.000 A 
ATOM     11  C   UNL     1       1.765   8.428  18.854  0.00  0.00    +0.000 A 
ATOM     12  C   UNL     1       1.184   9.693  18.955  0.00  0.00    +0.000 A 
ATOM     13  C   UNL     1       0.674  10.125  20.170  0.00  0.00    +0.000 A 
ATOM     14  C   UNL     1       0.738   9.285  21.286  0.00  0.00    +0.000 A 
ATOM     15  C   UNL     1       1.312   8.003  21.189  0.00  0.00    +0.000 A 
BRANCH  14  16
ATOM     16  N   UNL     1       0.228   9.765  22.571  0.00  0.00    +0.000 N 
ATOM     17  O   UNL     1       0.887   9.520  23.591  0.00  0.00    +0.000 OA
ATOM     18  O   UNL     1      -0.860  10.365  22.568  0.00  0.00    +0.000 OA
ENDBRANCH  14  16
ENDBRANCH   7  10
ENDBRANCH   5   6
BRANCH   4  19
ATOM     19  S   UNL     1       1.775   3.219  21.990  0.00  0.00    +0.000 S 
ATOM     20  H   UNL     1       2.332   4.426  22.164  0.00  0.00    +0.000 HD
ENDBRANCH   4  19
BRANCH   1  21
ATOM     21  C   UNL     1       3.129   4.062  16.979  0.00  0.00    +0.000 C 
BRANCH  21  28
ATOM     22  C   UNL     1       7.421   4.180  11.731  0.00  0.00    +0.000 C 
ATOM     23  C   UNL     1       6.460   4.026  12.877  0.00  0.00    +0.000 C 
ATOM     24  O   UNL     1       5.358   3.501  12.716  0.00  0.00    +0.000 OA
ATOM     25  N   UNL     1       6.997   4.462  14.073  0.00  0.00    +0.000 N 
ATOM     26  C   UNL     1       6.250   4.454  15.213  0.00  0.00    +0.000 A 
ATOM     27  N   UNL     1       4.969   4.276  15.318  0.00  0.00    +0.000 NA
ATOM     28  C   UNL     1       4.578   4.274  16.645  0.00  0.00    +0.000 A 
ATOM     29  C   UNL     1       5.622   4.461  17.535  0.00  0.00    +0.000 A 
ATOM     30  S   UNL     1       7.097   4.691  16.673  0.00  0.00    +0.000 S 
ATOM     31  H   UNL     1       7.973   4.710  14.149  0.00  0.00    +0.000 HD
ENDBRANCH  21  28
ENDBRANCH   1  21
TORSDOF 6
ENDMDL
MODEL 9
REMARK VINA RESULT:      -7.6      2.510      8.369
REMARK  Name = 
REMARK  7 active torsions:
REMARK  status: ('A' for Active; 'I' for Inactive)
REMARK    1  A    between atoms: C_1  and  C_2
REMARK    2  A    between atoms: C_7  and  C_8
REMARK    3  A    between atoms: C_8  and  C_9
REMARK    4  A    between atoms: C_12  and  S_13
REMARK    5  A    between atoms: N_14  and  N_15
REMARK    6  A    between atoms: C_16  and  C_18
REMARK    7  A    between atoms: C_22  and  N_23
REMARK                            x       y       z     vdW  Elec       q    Type
REMARK                         _______ _______ _______ _____ _____    ______ ____
ROOT
ATOM      1  C   UNL     1       3.048   5.928  18.650  0.00  0.00    +0.000 A 
ATOM      2  N   UNL     1       2.398   5.582  19.750  0.00  0.00    +0.000 NA
ATOM      3  N   UNL     1       2.253   4.211  19.759  0.00  0.00    +0.000 NA
ATOM      4  C   UNL     1       2.833   3.750  18.674  0.00  0.00    +0.000 A 
ATOM      5  N   UNL     1       3.400   4.778  17.976  0.00  0.00    +0.000 N 
ENDROOT
BRANCH   5   6
ATOM      6  N   UNL     1       3.966   4.646  16.738  0.00  0.00    +0.000 N 
ATOM      7  C   UNL     1       5.318   4.491  16.594  0.00  0.00    +0.000 C 
ATOM      8  O   UNL     1       6.105   4.427  17.536  0.00  0.00    +0.000 OA
ATOM      9  H   UNL     1       3.304   4.755  15.977  0.00  0.00    +0.000 HD
BRANCH   7  10
ATOM     10  C   UNL     1       5.860   4.382  15.210  0.00  0.00    +0.000 A 
ATOM     11  C   UNL     1       7.041   5.090  14.918  0.00  0.00    +0.000 A 
ATOM     12  C   UNL     1       7.612   5.053  13.646  0.00  0.00    +0.000 A 
ATOM     13  C   UNL     1       7.001   4.330  12.633  0.00  0.00    +0.000 A 
ATOM     14  C   UNL     1       5.819   3.633  12.897  0.00  0.00    +0.000 A 
ATOM     15  C   UNL     1       5.242   3.655  14.181  0.00  0.00    +0.000 A 
BRANCH  14  16
ATOM     16  N   UNL     1       5.163   2.901  11.812  0.00  0.00    +0.000 N 
ATOM     17  O   UNL     1       5.629   1.801  11.482  0.00  0.00    +0.000 OA
ATOM     18  O   UNL     1       4.192   3.445  11.259  0.00  0.00    +0.000 OA
ENDBRANCH  14  16
ENDBRANCH   7  10
ENDBRANCH   5   6
BRANCH   4  19
ATOM     19  S   UNL     1       2.832   2.101  18.166  0.00  0.00    +0.000 S 
ATOM     20  H   UNL     1       1.989   2.268  17.136  0.00  0.00    +0.000 HD
ENDBRANCH   4  19
BRANCH   1  21
ATOM     21  C   UNL     1       3.334   7.335  18.234  0.00  0.00    +0.000 C 
BRANCH  21  28
ATOM     22  C   UNL     1      -0.499  10.108  23.092  0.00  0.00    +0.000 C 
ATOM     23  C   UNL     1       0.291   9.381  22.040  0.00  0.00    +0.000 C 
ATOM     24  O   UNL     1       0.956   8.383  22.321  0.00  0.00    +0.000 OA
ATOM     25  N   UNL     1       0.109   9.920  20.781  0.00  0.00    +0.000 N 
ATOM     26  C   UNL     1       0.792   9.428  19.710  0.00  0.00    +0.000 A 
ATOM     27  N   UNL     1       1.800   8.610  19.721  0.00  0.00    +0.000 NA
ATOM     28  C   UNL     1       2.190   8.288  18.434  0.00  0.00    +0.000 A 
ATOM     29  C   UNL     1       1.432   8.901  17.451  0.00  0.00    +0.000 A 
ATOM     30  S   UNL     1       0.253   9.931  18.173  0.00  0.00    +0.000 S 
ATOM     31  H   UNL     1      -0.594  10.625  20.611  0.00  0.00    +0.000 HD
ENDBRANCH  21  28
ENDBRANCH   1  21
TORSDOF 6
ENDMDL
