MODEL 1
REMARK VINA RESULT:      -7.9      0.000      0.000
REMARK  Name = 
REMARK  4 active torsions:
REMARK  status: ('A' for Active; 'I' for Inactive)
REMARK    1  A    between atoms: C_2  and  C_3
REMARK    2  A    between atoms: N_7  and  C_8
REMARK    3  A    between atoms: C_8  and  C_9
REMARK    4  A    between atoms: C_15  and  O_16
REMARK                            x       y       z     vdW  Elec       q    Type
REMARK                         _______ _______ _______ _____ _____    ______ ____
ROOT
ATOM      1  C   UNL     1       4.686   3.984  17.487  0.00  0.00    +0.000 C 
ATOM      2  C   UNL     1       6.125   4.499  17.242  0.00  0.00    +0.000 C 
ATOM      3  C   UNL     1       6.357   5.822  17.977  0.00  0.00    +0.000 C 
ATOM      4  C   UNL     1       5.300   6.865  17.619  0.00  0.00    +0.000 C 
ATOM      5  N   UNL     1       3.923   6.357  17.754  0.00  0.00    +0.000 NA
ATOM      6  C   UNL     1       3.739   5.102  17.021  0.00  0.00    +0.000 C 
ENDROOT
BRANCH   1   8
ATOM      7  O   UNL     1       5.552   3.636  19.702  0.00  0.00    +0.000 OA
ATOM      8  C   UNL     1       4.579   3.486  18.950  0.00  0.00    +0.000 C 
ATOM      9  N   UNL     1       3.483   2.785  19.419  0.00  0.00    +0.000 N 
ATOM     10  C   UNL     1       2.286   2.388  18.691  0.00  0.00    +0.000 C 
ATOM     11  C   UNL     1       1.071   3.144  19.235  0.00  0.00    +0.000 C 
ATOM     12  C   UNL     1       0.951   3.014  20.760  0.00  0.00    +0.000 C 
ATOM     13  C   UNL     1       2.272   3.319  21.465  0.00  0.00    +0.000 C 
ATOM     14  C   UNL     1       3.408   2.508  20.856  0.00  0.00    +0.000 C 
ENDBRANCH   1   8
BRANCH   5  15
ATOM     15  C   UNL     1       2.947   7.380  17.309  0.00  0.00    +0.000 C 
BRANCH  15  16
ATOM     16  C   UNL     1       2.315   8.060  18.501  0.00  0.00    +0.000 A 
ATOM     17  C   UNL     1       1.689   9.303  18.312  0.00  0.00    +0.000 A 
ATOM     18  C   UNL     1       0.919   9.866  19.327  0.00  0.00    +0.000 A 
ATOM     19 BR   UNL     1       0.003  11.488  19.007  0.00  0.00    +0.000 Br
ATOM     20  C   UNL     1       0.788   9.218  20.550  0.00  0.00    +0.000 A 
ATOM     21  C   UNL     1       1.458   8.012  20.773  0.00  0.00    +0.000 A 
ATOM     22  C   UNL     1       2.219   7.441  19.754  0.00  0.00    +0.000 A 
BRANCH  22  23
ATOM     23  O   UNL     1       2.851   6.248  19.961  0.00  0.00    +0.000 OA
ATOM     24  H   UNL     1       2.294   5.535  19.607  0.00  0.00    +0.000 HD
ENDBRANCH  22  23
ENDBRANCH  15  16
ENDBRANCH   5  15
TORSDOF 4
ENDMDL
MODEL 2
REMARK VINA RESULT:      -7.4      1.656      4.123
REMARK  Name = 
REMARK  4 active torsions:
REMARK  status: ('A' for Active; 'I' for Inactive)
REMARK    1  A    between atoms: C_2  and  C_3
REMARK    2  A    between atoms: N_7  and  C_8
REMARK    3  A    between atoms: C_8  and  C_9
REMARK    4  A    between atoms: C_15  and  O_16
REMARK                            x       y       z     vdW  Elec       q    Type
REMARK                         _______ _______ _______ _____ _____    ______ ____
ROOT
ATOM      1  C   UNL     1       3.670   2.982  18.996  0.00  0.00    +0.000 C 
ATOM      2  C   UNL     1       2.410   2.084  19.000  0.00  0.00    +0.000 C 
ATOM      3  C   UNL     1       1.148   2.926  18.789  0.00  0.00    +0.000 C 
ATOM      4  C   UNL     1       1.049   4.067  19.800  0.00  0.00    +0.000 C 
ATOM      5  N   UNL     1       2.281   4.873  19.878  0.00  0.00    +0.000 NA
ATOM      6  C   UNL     1       3.460   4.032  20.099  0.00  0.00    +0.000 C 
ENDROOT
BRANCH   1   8
ATOM      7  O   UNL     1       3.091   3.207  16.674  0.00  0.00    +0.000 OA
ATOM      8  C   UNL     1       3.928   3.472  17.549  0.00  0.00    +0.000 C 
ATOM      9  N   UNL     1       5.103   4.097  17.173  0.00  0.00    +0.000 N 
ATOM     10  C   UNL     1       6.267   4.400  17.992  0.00  0.00    +0.000 C 
ATOM     11  C   UNL     1       6.411   5.916  18.151  0.00  0.00    +0.000 C 
ATOM     12  C   UNL     1       6.391   6.638  16.795  0.00  0.00    +0.000 C 
ATOM     13  C   UNL     1       5.219   6.187  15.925  0.00  0.00    +0.000 C 
ATOM     14  C   UNL     1       5.176   4.668  15.824  0.00  0.00    +0.000 C 
ENDBRANCH   1   8
BRANCH   5  15
ATOM     15  C   UNL     1       2.159   5.905  20.935  0.00  0.00    +0.000 C 
BRANCH  15  16
ATOM     16  C   UNL     1       1.679   7.211  20.344  0.00  0.00    +0.000 A 
ATOM     17  C   UNL     1       0.895   8.060  21.141  0.00  0.00    +0.000 A 
ATOM     18  C   UNL     1       0.605   9.356  20.717  0.00  0.00    +0.000 A 
ATOM     19 BR   UNL     1      -0.363  10.511  21.857  0.00  0.00    +0.000 Br
ATOM     20  C   UNL     1       1.062   9.809  19.484  0.00  0.00    +0.000 A 
ATOM     21  C   UNL     1       1.789   8.952  18.655  0.00  0.00    +0.000 A 
ATOM     22  C   UNL     1       2.090   7.660  19.083  0.00  0.00    +0.000 A 
BRANCH  22  23
ATOM     23  O   UNL     1       2.825   6.831  18.285  0.00  0.00    +0.000 OA
ATOM     24  H   UNL     1       2.935   5.979  18.737  0.00  0.00    +0.000 HD
ENDBRANCH  22  23
ENDBRANCH  15  16
ENDBRANCH   5  15
TORSDOF 4
ENDMDL
MODEL 3
REMARK VINA RESULT:      -7.1      4.104      6.347
REMARK  Name = 
REMARK  4 active torsions:
REMARK  status: ('A' for Active; 'I' for Inactive)
REMARK    1  A    between atoms: C_2  and  C_3
REMARK    2  A    between atoms: N_7  and  C_8
REMARK    3  A    between atoms: C_8  and  C_9
REMARK    4  A    between atoms: C_15  and  O_16
REMARK                            x       y       z     vdW  Elec       q    Type
REMARK                         _______ _______ _______ _____ _____    ______ ____
ROOT
ATOM      1  C   UNL     1       4.716   5.256  18.356  0.00  0.00    +0.000 C 
ATOM      2  C   UNL     1       4.367   6.716  17.976  0.00  0.00    +0.000 C 
ATOM      3  C   UNL     1       4.317   6.880  16.455  0.00  0.00    +0.000 C 
ATOM      4  C   UNL     1       5.605   6.401  15.788  0.00  0.00    +0.000 C 
ATOM      5  N   UNL     1       6.005   5.047  16.215  0.00  0.00    +0.000 NA
ATOM      6  C   UNL     1       6.058   4.939  17.676  0.00  0.00    +0.000 C 
ENDROOT
BRANCH   1   8
ATOM      7  O   UNL     1       3.470   3.747  16.962  0.00  0.00    +0.000 OA
ATOM      8  C   UNL     1       3.496   4.354  18.041  0.00  0.00    +0.000 C 
ATOM      9  N   UNL     1       2.389   4.286  18.866  0.00  0.00    +0.000 N 
ATOM     10  C   UNL     1       2.145   4.999  20.112  0.00  0.00    +0.000 C 
ATOM     11  C   UNL     1       2.123   4.010  21.281  0.00  0.00    +0.000 C 
ATOM     12  C   UNL     1       1.159   2.843  21.026  0.00  0.00    +0.000 C 
ATOM     13  C   UNL     1       1.375   2.213  19.651  0.00  0.00    +0.000 C 
ATOM     14  C   UNL     1       1.367   3.280  18.563  0.00  0.00    +0.000 C 
ENDBRANCH   1   8
BRANCH   5  15
ATOM     15  C   UNL     1       7.303   4.674  15.607  0.00  0.00    +0.000 C 
BRANCH  15  16
ATOM     16  C   UNL     1       7.167   4.547  14.108  0.00  0.00    +0.000 A 
ATOM     17  C   UNL     1       6.125   3.760  13.592  0.00  0.00    +0.000 A 
ATOM     18  C   UNL     1       5.835   3.780  12.229  0.00  0.00    +0.000 A 
ATOM     19 BR   UNL     1       4.360   2.793  11.579  0.00  0.00    +0.000 Br
ATOM     20  C   UNL     1       6.596   4.554  11.361  0.00  0.00    +0.000 A 
ATOM     21  C   UNL     1       7.676   5.292  11.853  0.00  0.00    +0.000 A 
ATOM     22  C   UNL     1       7.960   5.283  13.217  0.00  0.00    +0.000 A 
BRANCH  22  23
ATOM     23  O   UNL     1       8.997   6.026  13.703  0.00  0.00    +0.000 OA
ATOM     24  H   UNL     1       9.228   5.698  14.588  0.00  0.00    +0.000 HD
ENDBRANCH  22  23
ENDBRANCH  15  16
ENDBRANCH   5  15
TORSDOF 4
ENDMDL
MODEL 4
REMARK VINA RESULT:      -6.7      1.893      2.195
REMARK  Name = 
REMARK  4 active torsions:
REMARK  status: ('A' for Active; 'I' for Inactive)
REMARK    1  A    between atoms: C_2  and  C_3
REMARK    2  A    between atoms: N_7  and  C_8
REMARK    3  A    between atoms: C_8  and  C_9
REMARK    4  A    between atoms: C_15  and  O_16
REMARK                            x       y       z     vdW  Elec       q    Type
REMARK                         _______ _______ _______ _____ _____    ______ ____
ROOT
ATOM      1  C   UNL     1       5.524   4.360  16.976  0.00  0.00    +0.000 C 
ATOM      2  C   UNL     1       6.994   4.821  16.824  0.00  0.00    +0.000 C 
ATOM      3  C   UNL     1       7.246   6.095  17.636  0.00  0.00    +0.000 C 
ATOM      4  C   UNL     1       6.252   7.200  17.284  0.00  0.00    +0.000 C 
ATOM      5  N   UNL     1       4.849   6.749  17.329  0.00  0.00    +0.000 NA
ATOM      6  C   UNL     1       4.649   5.540  16.525  0.00  0.00    +0.000 C 
ENDROOT
BRANCH   1   8
ATOM      7  O   UNL     1       6.075   4.190  19.309  0.00  0.00    +0.000 OA
ATOM      8  C   UNL     1       5.325   3.795  18.405  0.00  0.00    +0.000 C 
ATOM      9  N   UNL     1       4.417   2.792  18.689  0.00  0.00    +0.000 N 
ATOM     10  C   UNL     1       3.525   2.096  17.773  0.00  0.00    +0.000 C 
ATOM     11  C   UNL     1       2.070   2.449  18.095  0.00  0.00    +0.000 C 
ATOM     12  C   UNL     1       1.743   2.231  19.579  0.00  0.00    +0.000 C 
ATOM     13  C   UNL     1       2.783   2.875  20.495  0.00  0.00    +0.000 C 
ATOM     14  C   UNL     1       4.190   2.449  20.096  0.00  0.00    +0.000 C 
ENDBRANCH   1   8
BRANCH   5  15
ATOM     15  C   UNL     1       3.940   7.834  16.893  0.00  0.00    +0.000 C 
BRANCH  15  16
ATOM     16  C   UNL     1       2.850   8.053  17.916  0.00  0.00    +0.000 A 
ATOM     17  C   UNL     1       2.581   7.030  18.840  0.00  0.00    +0.000 A 
ATOM     18  C   UNL     1       1.735   7.263  19.923  0.00  0.00    +0.000 A 
ATOM     19 BR   UNL     1       1.476   5.902  21.208  0.00  0.00    +0.000 Br
ATOM     20  C   UNL     1       1.123   8.501  20.081  0.00  0.00    +0.000 A 
ATOM     21  C   UNL     1       1.331   9.505  19.133  0.00  0.00    +0.000 A 
ATOM     22  C   UNL     1       2.187   9.278  18.056  0.00  0.00    +0.000 A 
BRANCH  22  23
ATOM     23  O   UNL     1       2.414  10.270  17.144  0.00  0.00    +0.000 OA
ATOM     24  H   UNL     1       1.798  10.158  16.402  0.00  0.00    +0.000 HD
ENDBRANCH  22  23
ENDBRANCH  15  16
ENDBRANCH   5  15
TORSDOF 4
ENDMDL
MODEL 5
REMARK VINA RESULT:      -6.6      3.529      5.705
REMARK  Name = 
REMARK  4 active torsions:
REMARK  status: ('A' for Active; 'I' for Inactive)
REMARK    1  A    between atoms: C_2  and  C_3
REMARK    2  A    between atoms: N_7  and  C_8
REMARK    3  A    between atoms: C_8  and  C_9
REMARK    4  A    between atoms: C_15  and  O_16
REMARK                            x       y       z     vdW  Elec       q    Type
REMARK                         _______ _______ _______ _____ _____    ______ ____
ROOT
ATOM      1  C   UNL     1       6.016   6.310  15.914  0.00  0.00    +0.000 C 
ATOM      2  C   UNL     1       7.123   6.145  16.983  0.00  0.00    +0.000 C 
ATOM      3  C   UNL     1       6.601   5.345  18.180  0.00  0.00    +0.000 C 
ATOM      4  C   UNL     1       5.324   5.953  18.757  0.00  0.00    +0.000 C 
ATOM      5  N   UNL     1       4.294   6.207  17.733  0.00  0.00    +0.000 NA
ATOM      6  C   UNL     1       4.830   6.991  16.616  0.00  0.00    +0.000 C 
ENDROOT
BRANCH   1   8
ATOM      7  O   UNL     1       4.840   4.236  15.611  0.00  0.00    +0.000 OA
ATOM      8  C   UNL     1       5.782   4.942  15.225  0.00  0.00    +0.000 C 
ATOM      9  N   UNL     1       6.644   4.431  14.272  0.00  0.00    +0.000 N 
ATOM     10  C   UNL     1       7.871   5.021  13.755  0.00  0.00    +0.000 C 
ATOM     11  C   UNL     1       7.688   5.393  12.281  0.00  0.00    +0.000 C 
ATOM     12  C   UNL     1       7.161   4.212  11.453  0.00  0.00    +0.000 C 
ATOM     13  C   UNL     1       5.950   3.550  12.109  0.00  0.00    +0.000 C 
ATOM     14  C   UNL     1       6.242   3.212  13.564  0.00  0.00    +0.000 C 
ENDBRANCH   1   8
BRANCH   5  15
ATOM     15  C   UNL     1       3.118   6.877  18.335  0.00  0.00    +0.000 C 
BRANCH  15  16
ATOM     16  C   UNL     1       2.283   5.883  19.108  0.00  0.00    +0.000 A 
ATOM     17  C   UNL     1       2.030   4.628  18.532  0.00  0.00    +0.000 A 
ATOM     18  C   UNL     1       1.445   3.612  19.286  0.00  0.00    +0.000 A 
ATOM     19 BR   UNL     1       1.213   1.901  18.517  0.00  0.00    +0.000 Br
ATOM     20  C   UNL     1       1.076   3.842  20.607  0.00  0.00    +0.000 A 
ATOM     21  C   UNL     1       1.264   5.106  21.171  0.00  0.00    +0.000 A 
ATOM     22  C   UNL     1       1.860   6.119  20.422  0.00  0.00    +0.000 A 
BRANCH  22  23
ATOM     23  O   UNL     1       2.070   7.347  20.982  0.00  0.00    +0.000 OA
ATOM     24  H   UNL     1       1.236   7.661  21.368  0.00  0.00    +0.000 HD
ENDBRANCH  22  23
ENDBRANCH  15  16
ENDBRANCH   5  15
TORSDOF 4
ENDMDL
MODEL 6
REMARK VINA RESULT:      -6.5      1.840      4.362
REMARK  Name = 
REMARK  4 active torsions:
REMARK  status: ('A' for Active; 'I' for Inactive)
REMARK    1  A    between atoms: C_2  and  C_3
REMARK    2  A    between atoms: N_7  and  C_8
REMARK    3  A    between atoms: C_8  and  C_9
REMARK    4  A    between atoms: C_15  and  O_16
REMARK                            x       y       z     vdW  Elec       q    Type
REMARK                         _______ _______ _______ _____ _____    ______ ____
ROOT
ATOM      1  C   UNL     1       4.468   3.505  18.847  0.00  0.00    +0.000 C 
ATOM      2  C   UNL     1       3.769   2.255  18.260  0.00  0.00    +0.000 C 
ATOM      3  C   UNL     1       2.373   2.611  17.741  0.00  0.00    +0.000 C 
ATOM      4  C   UNL     1       1.527   3.300  18.810  0.00  0.00    +0.000 C 
ATOM      5  N   UNL     1       2.219   4.434  19.448  0.00  0.00    +0.000 NA
ATOM      6  C   UNL     1       3.540   4.045  19.948  0.00  0.00    +0.000 C 
ENDROOT
BRANCH   1   8
ATOM      7  O   UNL     1       4.019   4.699  16.810  0.00  0.00    +0.000 OA
ATOM      8  C   UNL     1       4.862   4.448  17.682  0.00  0.00    +0.000 C 
ATOM      9  N   UNL     1       6.146   4.933  17.520  0.00  0.00    +0.000 N 
ATOM     10  C   UNL     1       7.320   4.676  18.342  0.00  0.00    +0.000 C 
ATOM     11  C   UNL     1       7.747   5.962  19.055  0.00  0.00    +0.000 C 
ATOM     12  C   UNL     1       7.910   7.133  18.076  0.00  0.00    +0.000 C 
ATOM     13  C   UNL     1       6.702   7.277  17.151  0.00  0.00    +0.000 C 
ATOM     14  C   UNL     1       6.372   5.948  16.486  0.00  0.00    +0.000 C 
ENDBRANCH   1   8
BRANCH   5  15
ATOM     15  C   UNL     1       1.387   5.003  20.535  0.00  0.00    +0.000 C 
BRANCH  15  16
ATOM     16  C   UNL     1       1.263   6.501  20.375  0.00  0.00    +0.000 A 
ATOM     17  C   UNL     1       0.632   7.235  21.392  0.00  0.00    +0.000 A 
ATOM     18  C   UNL     1       0.677   8.628  21.388  0.00  0.00    +0.000 A 
ATOM     19 BR   UNL     1      -0.090   9.586  22.825  0.00  0.00    +0.000 Br
ATOM     20  C   UNL     1       1.320   9.306  20.358  0.00  0.00    +0.000 A 
ATOM     21  C   UNL     1       1.896   8.588  19.307  0.00  0.00    +0.000 A 
ATOM     22  C   UNL     1       1.863   7.195  19.317  0.00  0.00    +0.000 A 
BRANCH  22  23
ATOM     23  O   UNL     1       2.451   6.492  18.304  0.00  0.00    +0.000 OA
ATOM     24  H   UNL     1       3.395   6.718  18.275  0.00  0.00    +0.000 HD
ENDBRANCH  22  23
ENDBRANCH  15  16
ENDBRANCH   5  15
TORSDOF 4
ENDMDL
MODEL 7
REMARK VINA RESULT:      -6.3      4.218      8.085
REMARK  Name = 
REMARK  4 active torsions:
REMARK  status: ('A' for Active; 'I' for Inactive)
REMARK    1  A    between atoms: C_2  and  C_3
REMARK    2  A    between atoms: N_7  and  C_8
REMARK    3  A    between atoms: C_8  and  C_9
REMARK    4  A    between atoms: C_15  and  O_16
REMARK                            x       y       z     vdW  Elec       q    Type
REMARK                         _______ _______ _______ _____ _____    ______ ____
ROOT
ATOM      1  C   UNL     1       0.043  11.885  19.215  0.00  0.00    +0.000 C 
ATOM      2  C   UNL     1      -1.028  11.690  18.115  0.00  0.00    +0.000 C 
ATOM      3  C   UNL     1      -1.346  10.203  17.930  0.00  0.00    +0.000 C 
ATOM      4  C   UNL     1      -0.087   9.380  17.666  0.00  0.00    +0.000 C 
ATOM      5  N   UNL     1       0.980   9.629  18.652  0.00  0.00    +0.000 NA
ATOM      6  C   UNL     1       1.266  11.060  18.783  0.00  0.00    +0.000 C 
ENDROOT
BRANCH   1   8
ATOM      7  O   UNL     1      -0.312  10.529  21.168  0.00  0.00    +0.000 OA
ATOM      8  C   UNL     1      -0.600  11.588  20.594  0.00  0.00    +0.000 C 
ATOM      9  N   UNL     1      -1.563  12.405  21.157  0.00  0.00    +0.000 N 
ATOM     10  C   UNL     1      -2.143  13.625  20.614  0.00  0.00    +0.000 C 
ATOM     11  C   UNL     1      -1.723  14.825  21.467  0.00  0.00    +0.000 C 
ATOM     12  C   UNL     1      -2.016  14.599  22.957  0.00  0.00    +0.000 C 
ATOM     13  C   UNL     1      -1.497  13.246  23.443  0.00  0.00    +0.000 C 
ATOM     14  C   UNL     1      -1.982  12.125  22.534  0.00  0.00    +0.000 C 
ENDBRANCH   1   8
BRANCH   5  15
ATOM     15  C   UNL     1       2.204   8.874  18.293  0.00  0.00    +0.000 C 
BRANCH  15  16
ATOM     16  C   UNL     1       2.132   7.465  18.835  0.00  0.00    +0.000 A 
ATOM     17  C   UNL     1       2.423   6.398  17.970  0.00  0.00    +0.000 A 
ATOM     18  C   UNL     1       2.571   5.105  18.471  0.00  0.00    +0.000 A 
ATOM     19 BR   UNL     1       3.068   3.708  17.300  0.00  0.00    +0.000 Br
ATOM     20  C   UNL     1       2.398   4.855  19.828  0.00  0.00    +0.000 A 
ATOM     21  C   UNL     1       2.045   5.897  20.687  0.00  0.00    +0.000 A 
ATOM     22  C   UNL     1       1.909   7.192  20.190  0.00  0.00    +0.000 A 
BRANCH  22  23
ATOM     23  O   UNL     1       1.591   8.217  21.035  0.00  0.00    +0.000 OA
ATOM     24  H   UNL     1       1.542   9.040  20.522  0.00  0.00    +0.000 HD
ENDBRANCH  22  23
ENDBRANCH  15  16
ENDBRANCH   5  15
TORSDOF 4
ENDMDL
MODEL 8
REMARK VINA RESULT:      -6.3      2.293      4.689
REMARK  Name = 
REMARK  4 active torsions:
REMARK  status: ('A' for Active; 'I' for Inactive)
REMARK    1  A    between atoms: C_2  and  C_3
REMARK    2  A    between atoms: N_7  and  C_8
REMARK    3  A    between atoms: C_8  and  C_9
REMARK    4  A    between atoms: C_15  and  O_16
REMARK                            x       y       z     vdW  Elec       q    Type
REMARK                         _______ _______ _______ _____ _____    ______ ____
ROOT
ATOM      1  C   UNL     1       3.007   6.195  20.119  0.00  0.00    +0.000 C 
ATOM      2  C   UNL     1       2.397   7.575  19.775  0.00  0.00    +0.000 C 
ATOM      3  C   UNL     1       1.899   7.599  18.327  0.00  0.00    +0.000 C 
ATOM      4  C   UNL     1       2.992   7.188  17.343  0.00  0.00    +0.000 C 
ATOM      5  N   UNL     1       3.652   5.922  17.711  0.00  0.00    +0.000 NA
ATOM      6  C   UNL     1       4.129   5.948  19.096  0.00  0.00    +0.000 C 
ENDROOT
BRANCH   1   8
ATOM      7  O   UNL     1       0.721   5.556  20.497  0.00  0.00    +0.000 OA
ATOM      8  C   UNL     1       1.862   5.156  20.224  0.00  0.00    +0.000 C 
ATOM      9  N   UNL     1       2.082   3.794  20.133  0.00  0.00    +0.000 N 
ATOM     10  C   UNL     1       3.343   3.094  19.940  0.00  0.00    +0.000 C 
ATOM     11  C   UNL     1       3.355   2.411  18.569  0.00  0.00    +0.000 C 
ATOM     12  C   UNL     1       2.111   1.537  18.354  0.00  0.00    +0.000 C 
ATOM     13  C   UNL     1       0.822   2.283  18.694  0.00  0.00    +0.000 C 
ATOM     14  C   UNL     1       0.912   2.912  20.079  0.00  0.00    +0.000 C 
ENDBRANCH   1   8
BRANCH   5  15
ATOM     15  C   UNL     1       4.759   5.621  16.774  0.00  0.00    +0.000 C 
BRANCH  15  16
ATOM     16  C   UNL     1       6.089   5.975  17.397  0.00  0.00    +0.000 A 
ATOM     17  C   UNL     1       6.571   7.286  17.253  0.00  0.00    +0.000 A 
ATOM     18  C   UNL     1       7.682   7.713  17.979  0.00  0.00    +0.000 A 
ATOM     19 BR   UNL     1       8.243   9.512  17.845  0.00  0.00    +0.000 Br
ATOM     20  C   UNL     1       8.344   6.834  18.828  0.00  0.00    +0.000 A 
ATOM     21  C   UNL     1       7.913   5.509  18.931  0.00  0.00    +0.000 A 
ATOM     22  C   UNL     1       6.795   5.084  18.216  0.00  0.00    +0.000 A 
BRANCH  22  23
ATOM     23  O   UNL     1       6.355   3.797  18.338  0.00  0.00    +0.000 OA
ATOM     24  H   UNL     1       7.084   3.249  18.673  0.00  0.00    +0.000 HD
ENDBRANCH  22  23
ENDBRANCH  15  16
ENDBRANCH   5  15
TORSDOF 4
ENDMDL
MODEL 9
REMARK VINA RESULT:      -6.3      3.550      6.023
REMARK  Name = 
REMARK  4 active torsions:
REMARK  status: ('A' for Active; 'I' for Inactive)
REMARK    1  A    between atoms: C_2  and  C_3
REMARK    2  A    between atoms: N_7  and  C_8
REMARK    3  A    between atoms: C_8  and  C_9
REMARK    4  A    between atoms: C_15  and  O_16
REMARK                            x       y       z     vdW  Elec       q    Type
REMARK                         _______ _______ _______ _____ _____    ______ ____
ROOT
ATOM      1  C   UNL     1       5.807   6.113  16.204  0.00  0.00    +0.000 C 
ATOM      2  C   UNL     1       7.195   6.118  16.889  0.00  0.00    +0.000 C 
ATOM      3  C   UNL     1       7.238   5.095  18.027  0.00  0.00    +0.000 C 
ATOM      4  C   UNL     1       6.099   5.303  19.024  0.00  0.00    +0.000 C 
ATOM      5  N   UNL     1       4.779   5.398  18.376  0.00  0.00    +0.000 NA
ATOM      6  C   UNL     1       4.776   6.401  17.308  0.00  0.00    +0.000 C 
ENDROOT
BRANCH   1   8
ATOM      7  O   UNL     1       4.723   4.043  15.638  0.00  0.00    +0.000 OA
ATOM      8  C   UNL     1       5.663   4.808  15.380  0.00  0.00    +0.000 C 
ATOM      9  N   UNL     1       6.602   4.411  14.446  0.00  0.00    +0.000 N 
ATOM     10  C   UNL     1       7.838   5.080  14.068  0.00  0.00    +0.000 C 
ATOM     11  C   UNL     1       7.738   5.581  12.624  0.00  0.00    +0.000 C 
ATOM     12  C   UNL     1       7.306   4.466  11.660  0.00  0.00    +0.000 C 
ATOM     13  C   UNL     1       6.078   3.714  12.170  0.00  0.00    +0.000 C 
ATOM     14  C   UNL     1       6.288   3.251  13.606  0.00  0.00    +0.000 C 
ENDBRANCH   1   8
BRANCH   5  15
ATOM     15  C   UNL     1       3.728   5.689  19.380  0.00  0.00    +0.000 C 
BRANCH  15  16
ATOM     16  C   UNL     1       2.753   4.539  19.472  0.00  0.00    +0.000 A 
ATOM     17  C   UNL     1       2.537   3.939  20.723  0.00  0.00    +0.000 A 
ATOM     18  C   UNL     1       1.503   3.021  20.895  0.00  0.00    +0.000 A 
ATOM     19 BR   UNL     1       1.170   2.310  22.615  0.00  0.00    +0.000 Br
ATOM     20  C   UNL     1       0.695   2.664  19.822  0.00  0.00    +0.000 A 
ATOM     21  C   UNL     1       0.941   3.205  18.557  0.00  0.00    +0.000 A 
ATOM     22  C   UNL     1       1.966   4.133  18.386  0.00  0.00    +0.000 A 
BRANCH  22  23
ATOM     23  O   UNL     1       2.189   4.684  17.156  0.00  0.00    +0.000 OA
ATOM     24  H   UNL     1       3.146   4.790  17.030  0.00  0.00    +0.000 HD
ENDBRANCH  22  23
ENDBRANCH  15  16
ENDBRANCH   5  15
TORSDOF 4
ENDMDL
