MODEL 1
REMARK VINA RESULT:      -7.7      0.000      0.000
REMARK  Name = 
REMARK  7 active torsions:
REMARK  status: ('A' for Active; 'I' for Inactive)
REMARK    1  A    between atoms: C_2  and  O_3
REMARK    2  A    between atoms: C_2  and  C_4
REMARK    3  A    between atoms: C_9  and  N_10
REMARK    4  A    between atoms: C_14  and  C_16
REMARK    5  A    between atoms: C_16  and  O_17
REMARK    6  A    between atoms: O_17  and  C_18
REMARK    7  A    between atoms: C_23  and  C_24
REMARK                            x       y       z     vdW  Elec       q    Type
REMARK                         _______ _______ _______ _____ _____    ______ ____
ROOT
ATOM      1  N   UNL     1       1.035  10.325  19.029  0.00  0.00    +0.000 N 
ATOM      2  C   UNL     1       1.277   9.532  17.804  0.00  0.00    +0.000 C 
ATOM      3  C   UNL     1       2.431   8.545  18.068  0.00  0.00    +0.000 C 
ATOM      4  N   UNL     1       2.144   7.701  19.235  0.00  0.00    +0.000 N 
ATOM      5  C   UNL     1       2.439   6.351  19.330  0.00  0.00    +0.000 C 
ATOM      6  O   UNL     1       2.219   5.707  20.360  0.00  0.00    +0.000 OA
ATOM      7  C   UNL     1       1.730   8.426  20.441  0.00  0.00    +0.000 C 
ATOM      8  C   UNL     1       0.639   9.483  20.175  0.00  0.00    +0.000 C 
ENDROOT
BRANCH   1  14
ATOM      9  C   UNL     1      -0.326  12.384  18.576  0.00  0.00    +0.000 A 
ATOM     10  C   UNL     1      -0.380  13.800  18.578  0.00  0.00    +0.000 A 
ATOM     11  C   UNL     1       0.712  14.559  18.977  0.00  0.00    +0.000 A 
ATOM     12  C   UNL     1       1.873  13.916  19.368  0.00  0.00    +0.000 A 
ATOM     13  C   UNL     1       1.930  12.517  19.354  0.00  0.00    +0.000 A 
ATOM     14  C   UNL     1       0.851  11.695  18.952  0.00  0.00    +0.000 A 
BRANCH   9  16
ATOM     15  O   UNL     1      -2.297  11.015  18.746  0.00  0.00    +0.000 OA
ATOM     16  C   UNL     1      -1.556  11.710  18.077  0.00  0.00    +0.000 C 
BRANCH  16  17
ATOM     17  O   UNL     1      -1.767  11.938  16.756  0.00  0.00    +0.000 OA
ATOM     18  H   UNL     1      -0.976  11.850  16.191  0.00  0.00    +0.000 HD
ENDBRANCH  16  17
ENDBRANCH   9  16
ENDBRANCH   1  14
BRANCH   5  19
ATOM     19  C   UNL     1       3.131   5.673  18.149  0.00  0.00    +0.000 C 
BRANCH  19  20
ATOM     20  O   UNL     1       4.552   5.667  18.243  0.00  0.00    +0.000 OA
BRANCH  20  21
ATOM     21  C   UNL     1       5.215   5.198  17.136  0.00  0.00    +0.000 A 
ATOM     22  C   UNL     1       4.730   4.142  16.348  0.00  0.00    +0.000 A 
ATOM     23  C   UNL     1       5.458   3.660  15.259  0.00  0.00    +0.000 A 
ATOM     24  C   UNL     1       6.672   4.239  14.928  0.00  0.00    +0.000 A 
ATOM     25  C   UNL     1       7.145   5.317  15.673  0.00  0.00    +0.000 A 
ATOM     26  C   UNL     1       6.423   5.818  16.782  0.00  0.00    +0.000 A 
BRANCH  26  27
ATOM     27  C   UNL     1       7.020   6.983  17.526  0.00  0.00    +0.000 C 
ATOM     28  F   UNL     1       6.203   8.044  17.758  0.00  0.00    +0.000 F 
ATOM     29  F   UNL     1       7.477   6.605  18.762  0.00  0.00    +0.000 F 
ATOM     30  F   UNL     1       8.115   7.492  16.889  0.00  0.00    +0.000 F 
ENDBRANCH  26  27
ENDBRANCH  20  21
ENDBRANCH  19  20
ENDBRANCH   5  19
TORSDOF 7
ENDMDL
MODEL 2
REMARK VINA RESULT:      -7.5      3.790      8.519
REMARK  Name = 
REMARK  7 active torsions:
REMARK  status: ('A' for Active; 'I' for Inactive)
REMARK    1  A    between atoms: C_2  and  O_3
REMARK    2  A    between atoms: C_2  and  C_4
REMARK    3  A    between atoms: C_9  and  N_10
REMARK    4  A    between atoms: C_14  and  C_16
REMARK    5  A    between atoms: C_16  and  O_17
REMARK    6  A    between atoms: O_17  and  C_18
REMARK    7  A    between atoms: C_23  and  C_24
REMARK                            x       y       z     vdW  Elec       q    Type
REMARK                         _______ _______ _______ _____ _____    ______ ____
ROOT
ATOM      1  N   UNL     1       4.734   5.126  17.554  0.00  0.00    +0.000 N 
ATOM      2  C   UNL     1       4.138   6.436  17.898  0.00  0.00    +0.000 C 
ATOM      3  C   UNL     1       2.693   6.214  18.386  0.00  0.00    +0.000 C 
ATOM      4  N   UNL     1       2.656   5.268  19.509  0.00  0.00    +0.000 N 
ATOM      5  C   UNL     1       1.838   5.387  20.620  0.00  0.00    +0.000 C 
ATOM      6  O   UNL     1       1.817   4.529  21.508  0.00  0.00    +0.000 OA
ATOM      7  C   UNL     1       3.380   4.011  19.288  0.00  0.00    +0.000 C 
ATOM      8  C   UNL     1       4.797   4.214  18.713  0.00  0.00    +0.000 C 
ENDROOT
BRANCH   1  14
ATOM      9  C   UNL     1       6.763   5.453  16.113  0.00  0.00    +0.000 A 
ATOM     10  C   UNL     1       7.399   5.186  14.876  0.00  0.00    +0.000 A 
ATOM     11  C   UNL     1       6.779   4.419  13.900  0.00  0.00    +0.000 A 
ATOM     12  C   UNL     1       5.512   3.918  14.141  0.00  0.00    +0.000 A 
ATOM     13  C   UNL     1       4.877   4.192  15.358  0.00  0.00    +0.000 A 
ATOM     14  C   UNL     1       5.460   4.972  16.385  0.00  0.00    +0.000 A 
BRANCH   9  16
ATOM     15  O   UNL     1       7.850   7.482  16.813  0.00  0.00    +0.000 OA
ATOM     16  C   UNL     1       7.531   6.330  17.039  0.00  0.00    +0.000 C 
BRANCH  16  17
ATOM     17  O   UNL     1       7.869   5.692  18.189  0.00  0.00    +0.000 OA
ATOM     18  H   UNL     1       7.975   4.726  18.108  0.00  0.00    +0.000 HD
ENDBRANCH  16  17
ENDBRANCH   9  16
ENDBRANCH   1  14
BRANCH   5  19
ATOM     19  C   UNL     1       0.881   6.575  20.695  0.00  0.00    +0.000 C 
BRANCH  19  20
ATOM     20  O   UNL     1       1.507   7.791  21.093  0.00  0.00    +0.000 OA
BRANCH  20  21
ATOM     21  C   UNL     1       1.055   8.922  20.460  0.00  0.00    +0.000 A 
ATOM     22  C   UNL     1       1.353   9.216  19.120  0.00  0.00    +0.000 A 
ATOM     23  C   UNL     1       0.917  10.401  18.526  0.00  0.00    +0.000 A 
ATOM     24  C   UNL     1       0.160  11.303  19.256  0.00  0.00    +0.000 A 
ATOM     25  C   UNL     1      -0.182  11.005  20.574  0.00  0.00    +0.000 A 
ATOM     26  C   UNL     1       0.253   9.810  21.194  0.00  0.00    +0.000 A 
BRANCH  26  27
ATOM     27  C   UNL     1      -0.164   9.581  22.623  0.00  0.00    +0.000 C 
ATOM     28  F   UNL     1       0.832   9.383  23.526  0.00  0.00    +0.000 F 
ATOM     29  F   UNL     1      -0.884  10.641  23.109  0.00  0.00    +0.000 F 
ATOM     30  F   UNL     1      -0.995   8.505  22.749  0.00  0.00    +0.000 F 
ENDBRANCH  26  27
ENDBRANCH  20  21
ENDBRANCH  19  20
ENDBRANCH   5  19
TORSDOF 7
ENDMDL
MODEL 3
REMARK VINA RESULT:      -7.5      3.309      4.291
REMARK  Name = 
REMARK  7 active torsions:
REMARK  status: ('A' for Active; 'I' for Inactive)
REMARK    1  A    between atoms: C_2  and  O_3
REMARK    2  A    between atoms: C_2  and  C_4
REMARK    3  A    between atoms: C_9  and  N_10
REMARK    4  A    between atoms: C_14  and  C_16
REMARK    5  A    between atoms: C_16  and  O_17
REMARK    6  A    between atoms: O_17  and  C_18
REMARK    7  A    between atoms: C_23  and  C_24
REMARK                            x       y       z     vdW  Elec       q    Type
REMARK                         _______ _______ _______ _____ _____    ______ ____
ROOT
ATOM      1  N   UNL     1       0.229  10.626  20.399  0.00  0.00    +0.000 N 
ATOM      2  C   UNL     1       0.959   9.547  21.101  0.00  0.00    +0.000 C 
ATOM      3  C   UNL     1       1.086   8.335  20.158  0.00  0.00    +0.000 C 
ATOM      4  N   UNL     1       1.727   8.716  18.894  0.00  0.00    +0.000 N 
ATOM      5  C   UNL     1       2.651   7.945  18.208  0.00  0.00    +0.000 C 
ATOM      6  O   UNL     1       3.117   8.300  17.121  0.00  0.00    +0.000 OA
ATOM      7  C   UNL     1       1.149   9.892  18.233  0.00  0.00    +0.000 C 
ATOM      8  C   UNL     1       0.932  11.084  19.186  0.00  0.00    +0.000 C 
ENDROOT
BRANCH   1  14
ATOM      9  C   UNL     1      -1.818  12.077  20.453  0.00  0.00    +0.000 A 
ATOM     10  C   UNL     1      -2.805  12.715  21.244  0.00  0.00    +0.000 A 
ATOM     11  C   UNL     1      -2.801  12.599  22.628  0.00  0.00    +0.000 A 
ATOM     12  C   UNL     1      -1.805  11.857  23.238  0.00  0.00    +0.000 A 
ATOM     13  C   UNL     1      -0.823  11.237  22.457  0.00  0.00    +0.000 A 
ATOM     14  C   UNL     1      -0.776  11.326  21.046  0.00  0.00    +0.000 A 
BRANCH   9  16
ATOM     15  O   UNL     1      -2.481  11.605  18.189  0.00  0.00    +0.000 OA
ATOM     16  C   UNL     1      -1.925  12.332  18.990  0.00  0.00    +0.000 C 
BRANCH  16  17
ATOM     17  O   UNL     1      -1.306  13.483  18.622  0.00  0.00    +0.000 OA
ATOM     18  H   UNL     1      -0.823  13.938  19.338  0.00  0.00    +0.000 HD
ENDBRANCH  16  17
ENDBRANCH   9  16
ENDBRANCH   1  14
BRANCH   5  19
ATOM     19  C   UNL     1       3.033   6.584  18.785  0.00  0.00    +0.000 C 
BRANCH  19  20
ATOM     20  O   UNL     1       2.081   5.560  18.517  0.00  0.00    +0.000 OA
BRANCH  20  21
ATOM     21  C   UNL     1       2.585   4.283  18.469  0.00  0.00    +0.000 A 
ATOM     22  C   UNL     1       3.362   3.811  17.399  0.00  0.00    +0.000 A 
ATOM     23  C   UNL     1       3.814   2.491  17.362  0.00  0.00    +0.000 A 
ATOM     24  C   UNL     1       3.512   1.628  18.402  0.00  0.00    +0.000 A 
ATOM     25  C   UNL     1       2.779   2.093  19.492  0.00  0.00    +0.000 A 
ATOM     26  C   UNL     1       2.310   3.427  19.546  0.00  0.00    +0.000 A 
BRANCH  26  27
ATOM     27  C   UNL     1       1.522   3.834  20.763  0.00  0.00    +0.000 C 
ATOM     28  F   UNL     1       0.299   4.385  20.544  0.00  0.00    +0.000 F 
ATOM     29  F   UNL     1       1.291   2.764  21.589  0.00  0.00    +0.000 F 
ATOM     30  F   UNL     1       2.199   4.733  21.536  0.00  0.00    +0.000 F 
ENDBRANCH  26  27
ENDBRANCH  20  21
ENDBRANCH  19  20
ENDBRANCH   5  19
TORSDOF 7
ENDMDL
MODEL 4
REMARK VINA RESULT:      -7.4      3.554      4.740
REMARK  Name = 
REMARK  7 active torsions:
REMARK  status: ('A' for Active; 'I' for Inactive)
REMARK    1  A    between atoms: C_2  and  O_3
REMARK    2  A    between atoms: C_2  and  C_4
REMARK    3  A    between atoms: C_9  and  N_10
REMARK    4  A    between atoms: C_14  and  C_16
REMARK    5  A    between atoms: C_16  and  O_17
REMARK    6  A    between atoms: O_17  and  C_18
REMARK    7  A    between atoms: C_23  and  C_24
REMARK                            x       y       z     vdW  Elec       q    Type
REMARK                         _______ _______ _______ _____ _____    ______ ____
ROOT
ATOM      1  N   UNL     1       0.479  10.523  20.389  0.00  0.00    +0.000 N 
ATOM      2  C   UNL     1       1.362   9.505  21.000  0.00  0.00    +0.000 C 
ATOM      3  C   UNL     1       1.429   8.279  20.069  0.00  0.00    +0.000 C 
ATOM      4  N   UNL     1       1.866   8.665  18.722  0.00  0.00    +0.000 N 
ATOM      5  C   UNL     1       2.731   7.931  17.927  0.00  0.00    +0.000 C 
ATOM      6  O   UNL     1       3.020   8.285  16.780  0.00  0.00    +0.000 OA
ATOM      7  C   UNL     1       1.133   9.789  18.128  0.00  0.00    +0.000 C 
ATOM      8  C   UNL     1       0.978  10.990  19.082  0.00  0.00    +0.000 C 
ENDROOT
BRANCH   1  14
ATOM      9  C   UNL     1      -0.869  10.870  22.478  0.00  0.00    +0.000 A 
ATOM     10  C   UNL     1      -1.829  11.659  23.158  0.00  0.00    +0.000 A 
ATOM     11  C   UNL     1      -2.387  12.782  22.562  0.00  0.00    +0.000 A 
ATOM     12  C   UNL     1      -2.003  13.123  21.278  0.00  0.00    +0.000 A 
ATOM     13  C   UNL     1      -1.064  12.337  20.601  0.00  0.00    +0.000 A 
ATOM     14  C   UNL     1      -0.468  11.181  21.157  0.00  0.00    +0.000 A 
BRANCH   9  16
ATOM     15  O   UNL     1       0.476   9.671  24.073  0.00  0.00    +0.000 OA
ATOM     16  C   UNL     1      -0.398   9.672  23.226  0.00  0.00    +0.000 C 
BRANCH  16  17
ATOM     17  O   UNL     1      -1.046   8.541  22.846  0.00  0.00    +0.000 OA
ATOM     18  H   UNL     1      -0.523   7.934  22.288  0.00  0.00    +0.000 HD
ENDBRANCH  16  17
ENDBRANCH   9  16
ENDBRANCH   1  14
BRANCH   5  19
ATOM     19  C   UNL     1       3.270   6.608  18.467  0.00  0.00    +0.000 C 
BRANCH  19  20
ATOM     20  O   UNL     1       2.266   5.620  18.671  0.00  0.00    +0.000 OA
BRANCH  20  21
ATOM     21  C   UNL     1       2.689   4.318  18.565  0.00  0.00    +0.000 A 
ATOM     22  C   UNL     1       3.411   3.839  17.460  0.00  0.00    +0.000 A 
ATOM     23  C   UNL     1       3.779   2.496  17.365  0.00  0.00    +0.000 A 
ATOM     24  C   UNL     1       3.449   1.615  18.382  0.00  0.00    +0.000 A 
ATOM     25  C   UNL     1       2.772   2.084  19.505  0.00  0.00    +0.000 A 
ATOM     26  C   UNL     1       2.387   3.441  19.618  0.00  0.00    +0.000 A 
BRANCH  26  27
ATOM     27  C   UNL     1       1.654   3.850  20.869  0.00  0.00    +0.000 C 
ATOM     28  F   UNL     1       2.245   4.799  21.642  0.00  0.00    +0.000 F 
ATOM     29  F   UNL     1       0.409   4.346  20.578  0.00  0.00    +0.000 F 
ATOM     30  F   UNL     1       1.424   2.790  21.698  0.00  0.00    +0.000 F 
ENDBRANCH  26  27
ENDBRANCH  20  21
ENDBRANCH  19  20
ENDBRANCH   5  19
TORSDOF 7
ENDMDL
MODEL 5
REMARK VINA RESULT:      -7.4      3.345      4.753
REMARK  Name = 
REMARK  7 active torsions:
REMARK  status: ('A' for Active; 'I' for Inactive)
REMARK    1  A    between atoms: C_2  and  O_3
REMARK    2  A    between atoms: C_2  and  C_4
REMARK    3  A    between atoms: C_9  and  N_10
REMARK    4  A    between atoms: C_14  and  C_16
REMARK    5  A    between atoms: C_16  and  O_17
REMARK    6  A    between atoms: O_17  and  C_18
REMARK    7  A    between atoms: C_23  and  C_24
REMARK                            x       y       z     vdW  Elec       q    Type
REMARK                         _______ _______ _______ _____ _____    ______ ____
ROOT
ATOM      1  N   UNL     1       0.492  10.484  20.431  0.00  0.00    +0.000 N 
ATOM      2  C   UNL     1       1.378   9.476  21.055  0.00  0.00    +0.000 C 
ATOM      3  C   UNL     1       1.442   8.236  20.142  0.00  0.00    +0.000 C 
ATOM      4  N   UNL     1       1.874   8.601  18.787  0.00  0.00    +0.000 N 
ATOM      5  C   UNL     1       2.736   7.855  18.000  0.00  0.00    +0.000 C 
ATOM      6  O   UNL     1       3.020   8.192  16.847  0.00  0.00    +0.000 OA
ATOM      7  C   UNL     1       1.138   9.716  18.179  0.00  0.00    +0.000 C 
ATOM      8  C   UNL     1       0.987  10.932  19.116  0.00  0.00    +0.000 C 
ENDROOT
BRANCH   1  14
ATOM      9  C   UNL     1      -0.861  10.852  22.514  0.00  0.00    +0.000 A 
ATOM     10  C   UNL     1      -1.816  11.652  23.186  0.00  0.00    +0.000 A 
ATOM     11  C   UNL     1      -2.361  12.778  22.584  0.00  0.00    +0.000 A 
ATOM     12  C   UNL     1      -1.969  13.111  21.300  0.00  0.00    +0.000 A 
ATOM     13  C   UNL     1      -1.034  12.313  20.630  0.00  0.00    +0.000 A 
ATOM     14  C   UNL     1      -0.451  11.154  21.193  0.00  0.00    +0.000 A 
BRANCH   9  16
ATOM     15  O   UNL     1       0.481   9.641  24.102  0.00  0.00    +0.000 OA
ATOM     16  C   UNL     1      -0.404   9.651  23.268  0.00  0.00    +0.000 C 
BRANCH  16  17
ATOM     17  O   UNL     1      -1.080   8.531  22.907  0.00  0.00    +0.000 OA
ATOM     18  H   UNL     1      -2.007   8.676  22.640  0.00  0.00    +0.000 HD
ENDBRANCH  16  17
ENDBRANCH   9  16
ENDBRANCH   1  14
BRANCH   5  19
ATOM     19  C   UNL     1       3.277   6.541  18.559  0.00  0.00    +0.000 C 
BRANCH  19  20
ATOM     20  O   UNL     1       2.387   5.441  18.401  0.00  0.00    +0.000 OA
BRANCH  20  21
ATOM     21  C   UNL     1       2.442   4.491  19.391  0.00  0.00    +0.000 A 
ATOM     22  C   UNL     1       1.964   4.717  20.692  0.00  0.00    +0.000 A 
ATOM     23  C   UNL     1       2.084   3.744  21.684  0.00  0.00    +0.000 A 
ATOM     24  C   UNL     1       2.664   2.521  21.388  0.00  0.00    +0.000 A 
ATOM     25  C   UNL     1       3.102   2.265  20.091  0.00  0.00    +0.000 A 
ATOM     26  C   UNL     1       2.992   3.240  19.071  0.00  0.00    +0.000 A 
BRANCH  26  27
ATOM     27  C   UNL     1       3.500   2.870  17.703  0.00  0.00    +0.000 C 
ATOM     28  F   UNL     1       3.885   1.579  17.522  0.00  0.00    +0.000 F 
ATOM     29  F   UNL     1       2.553   3.101  16.739  0.00  0.00    +0.000 F 
ATOM     30  F   UNL     1       4.572   3.630  17.330  0.00  0.00    +0.000 F 
ENDBRANCH  26  27
ENDBRANCH  20  21
ENDBRANCH  19  20
ENDBRANCH   5  19
TORSDOF 7
ENDMDL
MODEL 6
REMARK VINA RESULT:      -7.4      0.842      1.286
REMARK  Name = 
REMARK  7 active torsions:
REMARK  status: ('A' for Active; 'I' for Inactive)
REMARK    1  A    between atoms: C_2  and  O_3
REMARK    2  A    between atoms: C_2  and  C_4
REMARK    3  A    between atoms: C_9  and  N_10
REMARK    4  A    between atoms: C_14  and  C_16
REMARK    5  A    between atoms: C_16  and  O_17
REMARK    6  A    between atoms: O_17  and  C_18
REMARK    7  A    between atoms: C_23  and  C_24
REMARK                            x       y       z     vdW  Elec       q    Type
REMARK                         _______ _______ _______ _____ _____    ______ ____
ROOT
ATOM      1  N   UNL     1       1.017  10.103  19.035  0.00  0.00    +0.000 N 
ATOM      2  C   UNL     1       1.329   9.251  17.866  0.00  0.00    +0.000 C 
ATOM      3  C   UNL     1       2.462   8.277  18.247  0.00  0.00    +0.000 C 
ATOM      4  N   UNL     1       2.103   7.492  19.434  0.00  0.00    +0.000 N 
ATOM      5  C   UNL     1       2.387   6.148  19.613  0.00  0.00    +0.000 C 
ATOM      6  O   UNL     1       2.103   5.555  20.658  0.00  0.00    +0.000 OA
ATOM      7  C   UNL     1       1.620   8.276  20.577  0.00  0.00    +0.000 C 
ATOM      8  C   UNL     1       0.551   9.319  20.195  0.00  0.00    +0.000 C 
ENDROOT
BRANCH   1  14
ATOM      9  C   UNL     1      -0.372  12.161  18.666  0.00  0.00    +0.000 A 
ATOM     10  C   UNL     1      -0.402  13.573  18.561  0.00  0.00    +0.000 A 
ATOM     11  C   UNL     1       0.755  14.328  18.695  0.00  0.00    +0.000 A 
ATOM     12  C   UNL     1       1.957  13.683  18.923  0.00  0.00    +0.000 A 
ATOM     13  C   UNL     1       1.990  12.287  19.014  0.00  0.00    +0.000 A 
ATOM     14  C   UNL     1       0.843  11.469  18.880  0.00  0.00    +0.000 A 
BRANCH   9  16
ATOM     15  O   UNL     1      -1.877  10.554  17.695  0.00  0.00    +0.000 OA
ATOM     16  C   UNL     1      -1.682  11.487  18.452  0.00  0.00    +0.000 C 
BRANCH  16  17
ATOM     17  O   UNL     1      -2.674  12.044  19.192  0.00  0.00    +0.000 OA
ATOM     18  H   UNL     1      -2.626  11.861  20.149  0.00  0.00    +0.000 HD
ENDBRANCH  16  17
ENDBRANCH   9  16
ENDBRANCH   1  14
BRANCH   5  19
ATOM     19  C   UNL     1       3.145   5.412  18.510  0.00  0.00    +0.000 C 
BRANCH  19  20
ATOM     20  O   UNL     1       4.561   5.516  18.620  0.00  0.00    +0.000 OA
BRANCH  20  21
ATOM     21  C   UNL     1       5.268   5.149  17.502  0.00  0.00    +0.000 A 
ATOM     22  C   UNL     1       4.650   4.727  16.314  0.00  0.00    +0.000 A 
ATOM     23  C   UNL     1       5.405   4.314  15.215  0.00  0.00    +0.000 A 
ATOM     24  C   UNL     1       6.788   4.335  15.279  0.00  0.00    +0.000 A 
ATOM     25  C   UNL     1       7.416   4.793  16.435  0.00  0.00    +0.000 A 
ATOM     26  C   UNL     1       6.669   5.214  17.560  0.00  0.00    +0.000 A 
BRANCH  26  27
ATOM     27  C   UNL     1       7.440   5.687  18.765  0.00  0.00    +0.000 C 
ATOM     28  F   UNL     1       8.586   5.019  19.058  0.00  0.00    +0.000 F 
ATOM     29  F   UNL     1       7.811   7.000  18.636  0.00  0.00    +0.000 F 
ATOM     30  F   UNL     1       6.687   5.646  19.903  0.00  0.00    +0.000 F 
ENDBRANCH  26  27
ENDBRANCH  20  21
ENDBRANCH  19  20
ENDBRANCH   5  19
TORSDOF 7
ENDMDL
MODEL 7
REMARK VINA RESULT:      -7.3      3.563      8.981
REMARK  Name = 
REMARK  7 active torsions:
REMARK  status: ('A' for Active; 'I' for Inactive)
REMARK    1  A    between atoms: C_2  and  O_3
REMARK    2  A    between atoms: C_2  and  C_4
REMARK    3  A    between atoms: C_9  and  N_10
REMARK    4  A    between atoms: C_14  and  C_16
REMARK    5  A    between atoms: C_16  and  O_17
REMARK    6  A    between atoms: O_17  and  C_18
REMARK    7  A    between atoms: C_23  and  C_24
REMARK                            x       y       z     vdW  Elec       q    Type
REMARK                         _______ _______ _______ _____ _____    ______ ____
ROOT
ATOM      1  N   UNL     1       4.085   6.141  17.880  0.00  0.00    +0.000 N 
ATOM      2  C   UNL     1       3.945   7.591  17.618  0.00  0.00    +0.000 C 
ATOM      3  C   UNL     1       2.507   8.025  17.968  0.00  0.00    +0.000 C 
ATOM      4  N   UNL     1       2.173   7.669  19.352  0.00  0.00    +0.000 N 
ATOM      5  C   UNL     1       1.442   8.462  20.221  0.00  0.00    +0.000 C 
ATOM      6  O   UNL     1       1.150   8.083  21.359  0.00  0.00    +0.000 OA
ATOM      7  C   UNL     1       2.452   6.276  19.722  0.00  0.00    +0.000 C 
ATOM      8  C   UNL     1       3.855   5.800  19.296  0.00  0.00    +0.000 C 
ENDROOT
BRANCH   1  14
ATOM      9  C   UNL     1       4.428   3.967  16.673  0.00  0.00    +0.000 A 
ATOM     10  C   UNL     1       5.138   3.261  15.672  0.00  0.00    +0.000 A 
ATOM     11  C   UNL     1       6.122   3.882  14.916  0.00  0.00    +0.000 A 
ATOM     12  C   UNL     1       6.418   5.212  15.158  0.00  0.00    +0.000 A 
ATOM     13  C   UNL     1       5.725   5.907  16.156  0.00  0.00    +0.000 A 
ATOM     14  C   UNL     1       4.717   5.322  16.959  0.00  0.00    +0.000 A 
BRANCH   9  16
ATOM     15  O   UNL     1       3.710   2.353  18.307  0.00  0.00    +0.000 OA
ATOM     16  C   UNL     1       3.438   3.154  17.433  0.00  0.00    +0.000 C 
BRANCH  16  17
ATOM     17  O   UNL     1       2.163   3.388  17.029  0.00  0.00    +0.000 OA
ATOM     18  H   UNL     1       1.727   2.637  16.584  0.00  0.00    +0.000 HD
ENDBRANCH  16  17
ENDBRANCH   9  16
ENDBRANCH   1  14
BRANCH   5  19
ATOM     19  C   UNL     1       0.920   9.805  19.716  0.00  0.00    +0.000 C 
BRANCH  19  20
ATOM     20  O   UNL     1      -0.363   9.728  19.103  0.00  0.00    +0.000 OA
BRANCH  20  21
ATOM     21  C   UNL     1      -1.237  10.735  19.432  0.00  0.00    +0.000 A 
ATOM     22  C   UNL     1      -1.072  11.545  20.567  0.00  0.00    +0.000 A 
ATOM     23  C   UNL     1      -2.009  12.525  20.896  0.00  0.00    +0.000 A 
ATOM     24  C   UNL     1      -3.114  12.725  20.087  0.00  0.00    +0.000 A 
ATOM     25  C   UNL     1      -3.269  11.960  18.933  0.00  0.00    +0.000 A 
ATOM     26  C   UNL     1      -2.332  10.959  18.584  0.00  0.00    +0.000 A 
BRANCH  26  27
ATOM     27  C   UNL     1      -2.590  10.180  17.320  0.00  0.00    +0.000 C 
ATOM     28  F   UNL     1      -3.072  10.879  16.260  0.00  0.00    +0.000 F 
ATOM     29  F   UNL     1      -1.447   9.576  16.864  0.00  0.00    +0.000 F 
ATOM     30  F   UNL     1      -3.471   9.157  17.520  0.00  0.00    +0.000 F 
ENDBRANCH  26  27
ENDBRANCH  20  21
ENDBRANCH  19  20
ENDBRANCH   5  19
TORSDOF 7
ENDMDL
MODEL 8
REMARK VINA RESULT:      -7.3      3.676      9.040
REMARK  Name = 
REMARK  7 active torsions:
REMARK  status: ('A' for Active; 'I' for Inactive)
REMARK    1  A    between atoms: C_2  and  O_3
REMARK    2  A    between atoms: C_2  and  C_4
REMARK    3  A    between atoms: C_9  and  N_10
REMARK    4  A    between atoms: C_14  and  C_16
REMARK    5  A    between atoms: C_16  and  O_17
REMARK    6  A    between atoms: O_17  and  C_18
REMARK    7  A    between atoms: C_23  and  C_24
REMARK                            x       y       z     vdW  Elec       q    Type
REMARK                         _______ _______ _______ _____ _____    ______ ____
ROOT
ATOM      1  N   UNL     1       2.362   7.072  18.604  0.00  0.00    +0.000 N 
ATOM      2  C   UNL     1       2.416   8.289  17.765  0.00  0.00    +0.000 C 
ATOM      3  C   UNL     1       1.172   9.151  18.056  0.00  0.00    +0.000 C 
ATOM      4  N   UNL     1       1.070   9.460  19.488  0.00  0.00    +0.000 N 
ATOM      5  C   UNL     1       0.673  10.680  20.010  0.00  0.00    +0.000 C 
ATOM      6  O   UNL     1       0.559  10.862  21.226  0.00  0.00    +0.000 OA
ATOM      7  C   UNL     1       1.183   8.304  20.385  0.00  0.00    +0.000 C 
ATOM      8  C   UNL     1       2.371   7.381  20.046  0.00  0.00    +0.000 C 
ENDROOT
BRANCH   1  14
ATOM      9  C   UNL     1       3.863   5.416  17.461  0.00  0.00    +0.000 A 
ATOM     10  C   UNL     1       4.027   4.096  16.975  0.00  0.00    +0.000 A 
ATOM     11  C   UNL     1       3.013   3.155  17.095  0.00  0.00    +0.000 A 
ATOM     12  C   UNL     1       1.820   3.524  17.690  0.00  0.00    +0.000 A 
ATOM     13  C   UNL     1       1.653   4.833  18.159  0.00  0.00    +0.000 A 
ATOM     14  C   UNL     1       2.650   5.831  18.058  0.00  0.00    +0.000 A 
BRANCH   9  16
ATOM     15  O   UNL     1       5.879   6.599  18.031  0.00  0.00    +0.000 OA
ATOM     16  C   UNL     1       5.018   6.323  17.216  0.00  0.00    +0.000 C 
BRANCH  16  17
ATOM     17  O   UNL     1       5.007   6.843  15.963  0.00  0.00    +0.000 OA
ATOM     18  H   UNL     1       4.952   6.185  15.244  0.00  0.00    +0.000 HD
ENDBRANCH  16  17
ENDBRANCH   9  16
ENDBRANCH   1  14
BRANCH   5  19
ATOM     19  C   UNL     1       0.291  11.797  19.041  0.00  0.00    +0.000 C 
BRANCH  19  20
ATOM     20  O   UNL     1      -0.779  11.455  18.166  0.00  0.00    +0.000 OA
BRANCH  20  21
ATOM     21  C   UNL     1      -2.035  11.785  18.611  0.00  0.00    +0.000 A 
ATOM     22  C   UNL     1      -2.258  12.515  19.790  0.00  0.00    +0.000 A 
ATOM     23  C   UNL     1      -3.552  12.787  20.236  0.00  0.00    +0.000 A 
ATOM     24  C   UNL     1      -4.643  12.352  19.503  0.00  0.00    +0.000 A 
ATOM     25  C   UNL     1      -4.438  11.666  18.308  0.00  0.00    +0.000 A 
ATOM     26  C   UNL     1      -3.134  11.377  17.840  0.00  0.00    +0.000 A 
BRANCH  26  27
ATOM     27  C   UNL     1      -3.017  10.624  16.541  0.00  0.00    +0.000 C 
ATOM     28  F   UNL     1      -2.357   9.437  16.579  0.00  0.00    +0.000 F 
ATOM     29  F   UNL     1      -4.251  10.334  16.019  0.00  0.00    +0.000 F 
ATOM     30  F   UNL     1      -2.393  11.362  15.576  0.00  0.00    +0.000 F 
ENDBRANCH  26  27
ENDBRANCH  20  21
ENDBRANCH  19  20
ENDBRANCH   5  19
TORSDOF 7
ENDMDL
MODEL 9
REMARK VINA RESULT:      -7.3      3.475      8.975
REMARK  Name = 
REMARK  7 active torsions:
REMARK  status: ('A' for Active; 'I' for Inactive)
REMARK    1  A    between atoms: C_2  and  O_3
REMARK    2  A    between atoms: C_2  and  C_4
REMARK    3  A    between atoms: C_9  and  N_10
REMARK    4  A    between atoms: C_14  and  C_16
REMARK    5  A    between atoms: C_16  and  O_17
REMARK    6  A    between atoms: O_17  and  C_18
REMARK    7  A    between atoms: C_23  and  C_24
REMARK                            x       y       z     vdW  Elec       q    Type
REMARK                         _______ _______ _______ _____ _____    ______ ____
ROOT
ATOM      1  N   UNL     1       4.249   6.026  17.867  0.00  0.00    +0.000 N 
ATOM      2  C   UNL     1       4.002   7.465  17.627  0.00  0.00    +0.000 C 
ATOM      3  C   UNL     1       2.554   7.798  18.039  0.00  0.00    +0.000 C 
ATOM      4  N   UNL     1       2.301   7.409  19.432  0.00  0.00    +0.000 N 
ATOM      5  C   UNL     1       1.555   8.145  20.338  0.00  0.00    +0.000 C 
ATOM      6  O   UNL     1       1.336   7.738  21.483  0.00  0.00    +0.000 OA
ATOM      7  C   UNL     1       2.688   6.036  19.775  0.00  0.00    +0.000 C 
ATOM      8  C   UNL     1       4.102   5.659  19.288  0.00  0.00    +0.000 C 
ENDROOT
BRANCH   1  14
ATOM      9  C   UNL     1       4.583   3.937  16.515  0.00  0.00    +0.000 A 
ATOM     10  C   UNL     1       5.315   3.286  15.493  0.00  0.00    +0.000 A 
ATOM     11  C   UNL     1       6.346   3.932  14.824  0.00  0.00    +0.000 A 
ATOM     12  C   UNL     1       6.666   5.231  15.176  0.00  0.00    +0.000 A 
ATOM     13  C   UNL     1       5.952   5.871  16.196  0.00  0.00    +0.000 A 
ATOM     14  C   UNL     1       4.897   5.259  16.913  0.00  0.00    +0.000 A 
BRANCH   9  16
ATOM     15  O   UNL     1       2.341   3.218  17.012  0.00  0.00    +0.000 OA
ATOM     16  C   UNL     1       3.542   3.101  17.173  0.00  0.00    +0.000 C 
BRANCH  16  17
ATOM     17  O   UNL     1       4.078   2.177  18.011  0.00  0.00    +0.000 OA
ATOM     18  H   UNL     1       4.388   1.359  17.578  0.00  0.00    +0.000 HD
ENDBRANCH  16  17
ENDBRANCH   9  16
ENDBRANCH   1  14
BRANCH   5  19
ATOM     19  C   UNL     1       0.924   9.453  19.868  0.00  0.00    +0.000 C 
BRANCH  19  20
ATOM     20  O   UNL     1      -0.478   9.530  20.103  0.00  0.00    +0.000 OA
BRANCH  20  21
ATOM     21  C   UNL     1      -0.992  10.800  20.200  0.00  0.00    +0.000 A 
ATOM     22  C   UNL     1      -0.778  11.624  21.317  0.00  0.00    +0.000 A 
ATOM     23  C   UNL     1      -1.359  12.891  21.401  0.00  0.00    +0.000 A 
ATOM     24  C   UNL     1      -2.146  13.361  20.363  0.00  0.00    +0.000 A 
ATOM     25  C   UNL     1      -2.331  12.573  19.229  0.00  0.00    +0.000 A 
ATOM     26  C   UNL     1      -1.753  11.285  19.126  0.00  0.00    +0.000 A 
BRANCH  26  27
ATOM     27  C   UNL     1      -2.017  10.508  17.863  0.00  0.00    +0.000 C 
ATOM     28  F   UNL     1      -0.940   9.942  17.258  0.00  0.00    +0.000 F 
ATOM     29  F   UNL     1      -2.890   9.475  18.085  0.00  0.00    +0.000 F 
ATOM     30  F   UNL     1      -2.617  11.274  16.906  0.00  0.00    +0.000 F 
ENDBRANCH  26  27
ENDBRANCH  20  21
ENDBRANCH  19  20
ENDBRANCH   5  19
TORSDOF 7
ENDMDL
