MODEL 1
REMARK VINA RESULT:      -7.0      0.000      0.000
REMARK  Name = 
REMARK  7 active torsions:
REMARK  status: ('A' for Active; 'I' for Inactive)
REMARK    1  A    between atoms: C_1  and  S_2
REMARK    2  A    between atoms: S_2  and  N_5
REMARK    3  A    between atoms: N_5  and  C_6
REMARK    4  A    between atoms: C_6  and  C_7
REMARK    5  A    between atoms: C_10  and  N_11
REMARK    6  A    between atoms: C_12  and  C_14
REMARK    7  A    between atoms: C_14  and  C_15
REMARK                            x       y       z     vdW  Elec       q    Type
REMARK                         _______ _______ _______ _____ _____    ______ ____
ROOT
ATOM      1  C   UNL     1       0.496   9.823  19.127  0.00  0.00    +0.000 A 
ATOM      2  C   UNL     1       1.174   9.425  17.968  0.00  0.00    +0.000 A 
ATOM      3  C   UNL     1       2.058   8.345  17.991  0.00  0.00    +0.000 A 
ATOM      4  C   UNL     1       2.302   7.649  19.175  0.00  0.00    +0.000 A 
ATOM      5  C   UNL     1       1.627   8.041  20.337  0.00  0.00    +0.000 A 
ATOM      6  C   UNL     1       0.738   9.125  20.316  0.00  0.00    +0.000 A 
ENDROOT
BRANCH   4   7
ATOM      7  N   UNL     1       3.195   6.557  19.252  0.00  0.00    +0.000 N 
ATOM      8  C   UNL     1       2.859   5.221  19.089  0.00  0.00    +0.000 C 
ATOM      9  O   UNL     1       1.746   4.785  18.805  0.00  0.00    +0.000 OA
ATOM     10  H   UNL     1       4.176   6.780  19.362  0.00  0.00    +0.000 HD
BRANCH   8  11
ATOM     11  C   UNL     1       4.029   4.260  19.284  0.00  0.00    +0.000 C 
BRANCH  11  12
ATOM     12  C   UNL     1       5.053   4.374  18.178  0.00  0.00    +0.000 C 
ATOM     13  C   UNL     1       6.317   4.766  18.428  0.00  0.00    +0.000 C 
ATOM     14  C   UNL     1       7.358   4.972  17.365  0.00  0.00    +0.000 C 
ATOM     15  C   UNL     1       6.797   4.961  15.943  0.00  0.00    +0.000 C 
ATOM     16  C   UNL     1       5.736   3.881  15.779  0.00  0.00    +0.000 C 
ATOM     17  C   UNL     1       4.583   4.089  16.765  0.00  0.00    +0.000 C 
ENDBRANCH  11  12
ENDBRANCH   8  11
ENDBRANCH   4   7
BRANCH   1  18
ATOM     18  C   UNL     1      -0.497  10.960  19.066  0.00  0.00    +0.000 C 
BRANCH  18  19
ATOM     19  N   UNL     1      -1.022  11.103  17.691  0.00  0.00    +0.000 NA
ATOM     20  H   UNL     1      -0.787  12.021  17.316  0.00  0.00    +0.000 HD
BRANCH  19  22
ATOM     21  C   UNL     1      -2.917  11.113  15.813  0.00  0.00    +0.000 C 
ATOM     22  S   UNL     1      -2.675  10.812  17.550  0.00  0.00    +0.000 S 
ATOM     23  O   UNL     1      -3.341  11.862  18.290  0.00  0.00    +0.000 OA
ATOM     24  O   UNL     1      -2.908   9.415  17.828  0.00  0.00    +0.000 OA
ENDBRANCH  19  22
ENDBRANCH  18  19
ENDBRANCH   1  18
TORSDOF 6
ENDMDL
MODEL 2
REMARK VINA RESULT:      -7.0      0.836      1.022
REMARK  Name = 
REMARK  7 active torsions:
REMARK  status: ('A' for Active; 'I' for Inactive)
REMARK    1  A    between atoms: C_1  and  S_2
REMARK    2  A    between atoms: S_2  and  N_5
REMARK    3  A    between atoms: N_5  and  C_6
REMARK    4  A    between atoms: C_6  and  C_7
REMARK    5  A    between atoms: C_10  and  N_11
REMARK    6  A    between atoms: C_12  and  C_14
REMARK    7  A    between atoms: C_14  and  C_15
REMARK                            x       y       z     vdW  Elec       q    Type
REMARK                         _______ _______ _______ _____ _____    ______ ____
ROOT
ATOM      1  C   UNL     1       0.589   9.723  19.213  0.00  0.00    +0.000 A 
ATOM      2  C   UNL     1       1.260   9.369  18.036  0.00  0.00    +0.000 A 
ATOM      3  C   UNL     1       2.122   8.272  18.006  0.00  0.00    +0.000 A 
ATOM      4  C   UNL     1       2.351   7.513  19.154  0.00  0.00    +0.000 A 
ATOM      5  C   UNL     1       1.682   7.861  20.334  0.00  0.00    +0.000 A 
ATOM      6  C   UNL     1       0.816   8.963  20.366  0.00  0.00    +0.000 A 
ENDROOT
BRANCH   4   7
ATOM      7  N   UNL     1       3.221   6.401  19.177  0.00  0.00    +0.000 N 
ATOM      8  C   UNL     1       2.884   5.100  18.832  0.00  0.00    +0.000 C 
ATOM      9  O   UNL     1       1.795   4.724  18.406  0.00  0.00    +0.000 OA
ATOM     10  H   UNL     1       4.191   6.588  19.395  0.00  0.00    +0.000 HD
BRANCH   8  11
ATOM     11  C   UNL     1       4.022   4.098  19.010  0.00  0.00    +0.000 C 
BRANCH  11  12
ATOM     12  C   UNL     1       5.080   4.238  17.940  0.00  0.00    +0.000 C 
ATOM     13  C   UNL     1       6.361   4.516  18.250  0.00  0.00    +0.000 C 
ATOM     14  C   UNL     1       7.442   4.742  17.231  0.00  0.00    +0.000 C 
ATOM     15  C   UNL     1       6.919   4.898  15.803  0.00  0.00    +0.000 C 
ATOM     16  C   UNL     1       5.792   3.914  15.520  0.00  0.00    +0.000 C 
ATOM     17  C   UNL     1       4.630   4.114  16.498  0.00  0.00    +0.000 C 
ENDBRANCH  11  12
ENDBRANCH   8  11
ENDBRANCH   4   7
BRANCH   1  18
ATOM     18  C   UNL     1      -0.379  10.883  19.208  0.00  0.00    +0.000 C 
BRANCH  18  19
ATOM     19  N   UNL     1      -0.786  11.199  17.821  0.00  0.00    +0.000 NA
ATOM     20  H   UNL     1      -0.587  12.175  17.608  0.00  0.00    +0.000 HD
BRANCH  19  22
ATOM     21  C   UNL     1      -3.230  11.865  18.660  0.00  0.00    +0.000 C 
ATOM     22  S   UNL     1      -2.393  10.834  17.474  0.00  0.00    +0.000 S 
ATOM     23  O   UNL     1      -2.592   9.453  17.855  0.00  0.00    +0.000 OA
ATOM     24  O   UNL     1      -2.682  11.310  16.142  0.00  0.00    +0.000 OA
ENDBRANCH  19  22
ENDBRANCH  18  19
ENDBRANCH   1  18
TORSDOF 6
ENDMDL
MODEL 3
REMARK VINA RESULT:      -7.0      4.969      6.975
REMARK  Name = 
REMARK  7 active torsions:
REMARK  status: ('A' for Active; 'I' for Inactive)
REMARK    1  A    between atoms: C_1  and  S_2
REMARK    2  A    between atoms: S_2  and  N_5
REMARK    3  A    between atoms: N_5  and  C_6
REMARK    4  A    between atoms: C_6  and  C_7
REMARK    5  A    between atoms: C_10  and  N_11
REMARK    6  A    between atoms: C_12  and  C_14
REMARK    7  A    between atoms: C_14  and  C_15
REMARK                            x       y       z     vdW  Elec       q    Type
REMARK                         _______ _______ _______ _____ _____    ______ ____
ROOT
ATOM      1  C   UNL     1       3.950   5.002  18.650  0.00  0.00    +0.000 A 
ATOM      2  C   UNL     1       4.182   6.215  17.990  0.00  0.00    +0.000 A 
ATOM      3  C   UNL     1       4.708   6.237  16.697  0.00  0.00    +0.000 A 
ATOM      4  C   UNL     1       5.033   5.050  16.039  0.00  0.00    +0.000 A 
ATOM      5  C   UNL     1       4.802   3.834  16.693  0.00  0.00    +0.000 A 
ATOM      6  C   UNL     1       4.274   3.810  17.991  0.00  0.00    +0.000 A 
ENDROOT
BRANCH   4   7
ATOM      7  N   UNL     1       5.577   5.021  14.736  0.00  0.00    +0.000 N 
ATOM      8  C   UNL     1       6.922   4.880  14.422  0.00  0.00    +0.000 C 
ATOM      9  O   UNL     1       7.838   4.711  15.222  0.00  0.00    +0.000 OA
ATOM     10  H   UNL     1       4.918   5.028  13.969  0.00  0.00    +0.000 HD
BRANCH   8  11
ATOM     11  C   UNL     1       7.216   4.939  12.925  0.00  0.00    +0.000 C 
BRANCH  11  12
ATOM     12  C   UNL     1       6.701   3.721  12.192  0.00  0.00    +0.000 C 
ATOM     13  C   UNL     1       5.385   3.534  11.979  0.00  0.00    +0.000 C 
ATOM     14  C   UNL     1       4.805   2.312  11.326  0.00  0.00    +0.000 C 
ATOM     15  C   UNL     1       5.807   1.168  11.162  0.00  0.00    +0.000 C 
ATOM     16  C   UNL     1       7.172   1.690  10.737  0.00  0.00    +0.000 C 
ATOM     17  C   UNL     1       7.722   2.687  11.762  0.00  0.00    +0.000 C 
ENDBRANCH  11  12
ENDBRANCH   8  11
ENDBRANCH   4   7
BRANCH   1  18
ATOM     18  C   UNL     1       3.331   5.000  20.028  0.00  0.00    +0.000 C 
BRANCH  18  19
ATOM     19  N   UNL     1       3.074   3.611  20.468  0.00  0.00    +0.000 NA
ATOM     20  H   UNL     1       3.480   2.950  19.808  0.00  0.00    +0.000 HD
BRANCH  19  22
ATOM     21  C   UNL     1       1.113   2.191  19.349  0.00  0.00    +0.000 C 
ATOM     22  S   UNL     1       1.447   3.262  20.731  0.00  0.00    +0.000 S 
ATOM     23  O   UNL     1       0.724   4.499  20.530  0.00  0.00    +0.000 OA
ATOM     24  O   UNL     1       1.345   2.505  21.956  0.00  0.00    +0.000 OA
ENDBRANCH  19  22
ENDBRANCH  18  19
ENDBRANCH   1  18
TORSDOF 6
ENDMDL
MODEL 4
REMARK VINA RESULT:      -6.9      0.626      1.228
REMARK  Name = 
REMARK  7 active torsions:
REMARK  status: ('A' for Active; 'I' for Inactive)
REMARK    1  A    between atoms: C_1  and  S_2
REMARK    2  A    between atoms: S_2  and  N_5
REMARK    3  A    between atoms: N_5  and  C_6
REMARK    4  A    between atoms: C_6  and  C_7
REMARK    5  A    between atoms: C_10  and  N_11
REMARK    6  A    between atoms: C_12  and  C_14
REMARK    7  A    between atoms: C_14  and  C_15
REMARK                            x       y       z     vdW  Elec       q    Type
REMARK                         _______ _______ _______ _____ _____    ______ ____
ROOT
ATOM      1  C   UNL     1       0.155  10.000  19.155  0.00  0.00    +0.000 A 
ATOM      2  C   UNL     1       0.305   9.396  20.410  0.00  0.00    +0.000 A 
ATOM      3  C   UNL     1       1.232   8.371  20.604  0.00  0.00    +0.000 A 
ATOM      4  C   UNL     1       2.018   7.911  19.548  0.00  0.00    +0.000 A 
ATOM      5  C   UNL     1       1.875   8.512  18.291  0.00  0.00    +0.000 A 
ATOM      6  C   UNL     1       0.944   9.541  18.094  0.00  0.00    +0.000 A 
ENDROOT
BRANCH   4   7
ATOM      7  N   UNL     1       2.962   6.870  19.692  0.00  0.00    +0.000 N 
ATOM      8  C   UNL     1       2.783   5.552  19.296  0.00  0.00    +0.000 C 
ATOM      9  O   UNL     1       1.800   5.099  18.716  0.00  0.00    +0.000 OA
ATOM     10  H   UNL     1       3.873   7.129  20.047  0.00  0.00    +0.000 HD
BRANCH   8  11
ATOM     11  C   UNL     1       3.960   4.640  19.631  0.00  0.00    +0.000 C 
BRANCH  11  12
ATOM     12  C   UNL     1       5.156   4.899  18.744  0.00  0.00    +0.000 C 
ATOM     13  C   UNL     1       6.302   5.404  19.240  0.00  0.00    +0.000 C 
ATOM     14  C   UNL     1       7.498   5.754  18.401  0.00  0.00    +0.000 C 
ATOM     15  C   UNL     1       7.219   5.746  16.898  0.00  0.00    +0.000 C 
ATOM     16  C   UNL     1       6.327   4.574  16.511  0.00  0.00    +0.000 C 
ATOM     17  C   UNL     1       4.993   4.627  17.263  0.00  0.00    +0.000 C 
ENDBRANCH  11  12
ENDBRANCH   8  11
ENDBRANCH   4   7
BRANCH   1  18
ATOM     18  C   UNL     1      -0.817  11.143  18.981  0.00  0.00    +0.000 C 
BRANCH  18  19
ATOM     19  N   UNL     1      -1.251  11.231  17.569  0.00  0.00    +0.000 NA
ATOM     20  H   UNL     1      -1.086  12.168  17.205  0.00  0.00    +0.000 HD
BRANCH  19  22
ATOM     21  C   UNL     1      -2.916  10.799  15.530  0.00  0.00    +0.000 C 
ATOM     22  S   UNL     1      -2.849  10.767  17.308  0.00  0.00    +0.000 S 
ATOM     23  O   UNL     1      -3.675  11.843  17.812  0.00  0.00    +0.000 OA
ATOM     24  O   UNL     1      -3.000   9.407  17.767  0.00  0.00    +0.000 OA
ENDBRANCH  19  22
ENDBRANCH  18  19
ENDBRANCH   1  18
TORSDOF 6
ENDMDL
MODEL 5
REMARK VINA RESULT:      -6.8      0.780      1.349
REMARK  Name = 
REMARK  7 active torsions:
REMARK  status: ('A' for Active; 'I' for Inactive)
REMARK    1  A    between atoms: C_1  and  S_2
REMARK    2  A    between atoms: S_2  and  N_5
REMARK    3  A    between atoms: N_5  and  C_6
REMARK    4  A    between atoms: C_6  and  C_7
REMARK    5  A    between atoms: C_10  and  N_11
REMARK    6  A    between atoms: C_12  and  C_14
REMARK    7  A    between atoms: C_14  and  C_15
REMARK                            x       y       z     vdW  Elec       q    Type
REMARK                         _______ _______ _______ _____ _____    ______ ____
ROOT
ATOM      1  C   UNL     1      -0.144  10.097  19.158  0.00  0.00    +0.000 A 
ATOM      2  C   UNL     1       0.653   9.676  18.086  0.00  0.00    +0.000 A 
ATOM      3  C   UNL     1       1.622   8.687  18.259  0.00  0.00    +0.000 A 
ATOM      4  C   UNL     1       1.833   8.107  19.510  0.00  0.00    +0.000 A 
ATOM      5  C   UNL     1       1.039   8.521  20.586  0.00  0.00    +0.000 A 
ATOM      6  C   UNL     1       0.065   9.515  20.414  0.00  0.00    +0.000 A 
ENDROOT
BRANCH   4   7
ATOM      7  N   UNL     1       2.808   7.110  19.738  0.00  0.00    +0.000 N 
ATOM      8  C   UNL     1       2.725   5.786  19.331  0.00  0.00    +0.000 C 
ATOM      9  O   UNL     1       1.818   5.289  18.668  0.00  0.00    +0.000 OA
ATOM     10  H   UNL     1       3.670   7.410  20.172  0.00  0.00    +0.000 HD
BRANCH   8  11
ATOM     11  C   UNL     1       3.908   4.928  19.771  0.00  0.00    +0.000 C 
BRANCH  11  12
ATOM     12  C   UNL     1       5.039   4.955  18.768  0.00  0.00    +0.000 C 
ATOM     13  C   UNL     1       4.870   4.514  17.507  0.00  0.00    +0.000 C 
ATOM     14  C   UNL     1       5.971   4.444  16.487  0.00  0.00    +0.000 C 
ATOM     15  C   UNL     1       7.367   4.663  17.072  0.00  0.00    +0.000 C 
ATOM     16  C   UNL     1       7.357   5.770  18.116  0.00  0.00    +0.000 C 
ATOM     17  C   UNL     1       6.388   5.442  19.256  0.00  0.00    +0.000 C 
ENDBRANCH  11  12
ENDBRANCH   8  11
ENDBRANCH   4   7
BRANCH   1  18
ATOM     18  C   UNL     1      -1.222  11.131  18.935  0.00  0.00    +0.000 C 
BRANCH  18  19
ATOM     19  N   UNL     1      -1.523  11.248  17.491  0.00  0.00    +0.000 NA
ATOM     20  H   UNL     1      -1.398  12.211  17.180  0.00  0.00    +0.000 HD
BRANCH  19  22
ATOM     21  C   UNL     1      -2.821  10.428  15.309  0.00  0.00    +0.000 C 
ATOM     22  S   UNL     1      -3.048  10.679  17.056  0.00  0.00    +0.000 S 
ATOM     23  O   UNL     1      -3.965  11.783  17.240  0.00  0.00    +0.000 OA
ATOM     24  O   UNL     1      -3.248   9.402  17.699  0.00  0.00    +0.000 OA
ENDBRANCH  19  22
ENDBRANCH  18  19
ENDBRANCH   1  18
TORSDOF 6
ENDMDL
MODEL 6
REMARK VINA RESULT:      -6.8      5.903      7.705
REMARK  Name = 
REMARK  7 active torsions:
REMARK  status: ('A' for Active; 'I' for Inactive)
REMARK    1  A    between atoms: C_1  and  S_2
REMARK    2  A    between atoms: S_2  and  N_5
REMARK    3  A    between atoms: N_5  and  C_6
REMARK    4  A    between atoms: C_6  and  C_7
REMARK    5  A    between atoms: C_10  and  N_11
REMARK    6  A    between atoms: C_12  and  C_14
REMARK    7  A    between atoms: C_14  and  C_15
REMARK                            x       y       z     vdW  Elec       q    Type
REMARK                         _______ _______ _______ _____ _____    ______ ____
ROOT
ATOM      1  C   UNL     1       7.781   7.865  17.998  0.00  0.00    +0.000 A 
ATOM      2  C   UNL     1       6.589   7.808  17.264  0.00  0.00    +0.000 A 
ATOM      3  C   UNL     1       5.744   6.702  17.355  0.00  0.00    +0.000 A 
ATOM      4  C   UNL     1       6.076   5.616  18.165  0.00  0.00    +0.000 A 
ATOM      5  C   UNL     1       7.265   5.666  18.903  0.00  0.00    +0.000 A 
ATOM      6  C   UNL     1       8.115   6.777  18.813  0.00  0.00    +0.000 A 
ENDROOT
BRANCH   4   7
ATOM      7  N   UNL     1       5.260   4.469  18.283  0.00  0.00    +0.000 N 
ATOM      8  C   UNL     1       4.640   3.804  17.234  0.00  0.00    +0.000 C 
ATOM      9  O   UNL     1       4.744   4.078  16.042  0.00  0.00    +0.000 OA
ATOM     10  H   UNL     1       5.185   4.058  19.204  0.00  0.00    +0.000 HD
BRANCH   8  11
ATOM     11  C   UNL     1       3.774   2.626  17.674  0.00  0.00    +0.000 C 
BRANCH  11  12
ATOM     12  C   UNL     1       3.005   2.923  18.941  0.00  0.00    +0.000 C 
ATOM     13  C   UNL     1       3.391   2.422  20.131  0.00  0.00    +0.000 C 
ATOM     14  C   UNL     1       2.629   2.617  21.411  0.00  0.00    +0.000 C 
ATOM     15  C   UNL     1       1.232   3.207  21.212  0.00  0.00    +0.000 C 
ATOM     16  C   UNL     1       1.243   4.299  20.152  0.00  0.00    +0.000 C 
ATOM     17  C   UNL     1       1.747   3.757  18.810  0.00  0.00    +0.000 C 
ENDBRANCH  11  12
ENDBRANCH   8  11
ENDBRANCH   4   7
BRANCH   1  18
ATOM     18  C   UNL     1       8.653   9.096  17.925  0.00  0.00    +0.000 C 
BRANCH  18  19
ATOM     19  N   UNL     1       9.037   9.529  19.287  0.00  0.00    +0.000 NA
ATOM     20  H   UNL     1       8.261   9.392  19.933  0.00  0.00    +0.000 HD
BRANCH  19  22
ATOM     21  C   UNL     1       8.761  11.842  17.987  0.00  0.00    +0.000 C 
ATOM     22  S   UNL     1       9.607  11.111  19.372  0.00  0.00    +0.000 S 
ATOM     23  O   UNL     1      11.019  11.056  19.063  0.00  0.00    +0.000 OA
ATOM     24  O   UNL     1       9.113  11.698  20.595  0.00  0.00    +0.000 OA
ENDBRANCH  19  22
ENDBRANCH  18  19
ENDBRANCH   1  18
TORSDOF 6
ENDMDL
MODEL 7
REMARK VINA RESULT:      -6.8      3.500      8.610
REMARK  Name = 
REMARK  7 active torsions:
REMARK  status: ('A' for Active; 'I' for Inactive)
REMARK    1  A    between atoms: C_1  and  S_2
REMARK    2  A    between atoms: S_2  and  N_5
REMARK    3  A    between atoms: N_5  and  C_6
REMARK    4  A    between atoms: C_6  and  C_7
REMARK    5  A    between atoms: C_10  and  N_11
REMARK    6  A    between atoms: C_12  and  C_14
REMARK    7  A    between atoms: C_14  and  C_15
REMARK                            x       y       z     vdW  Elec       q    Type
REMARK                         _______ _______ _______ _____ _____    ______ ____
ROOT
ATOM      1  C   UNL     1       3.903   5.161  17.819  0.00  0.00    +0.000 A 
ATOM      2  C   UNL     1       2.564   5.284  18.209  0.00  0.00    +0.000 A 
ATOM      3  C   UNL     1       1.936   6.531  18.225  0.00  0.00    +0.000 A 
ATOM      4  C   UNL     1       2.634   7.686  17.873  0.00  0.00    +0.000 A 
ATOM      5  C   UNL     1       3.973   7.569  17.481  0.00  0.00    +0.000 A 
ATOM      6  C   UNL     1       4.605   6.318  17.463  0.00  0.00    +0.000 A 
ENDROOT
BRANCH   4   7
ATOM      7  N   UNL     1       2.046   8.970  17.883  0.00  0.00    +0.000 N 
ATOM      8  C   UNL     1       1.301   9.512  18.922  0.00  0.00    +0.000 C 
ATOM      9  O   UNL     1       1.080   8.982  20.007  0.00  0.00    +0.000 OA
ATOM     10  H   UNL     1       2.250   9.570  17.095  0.00  0.00    +0.000 HD
BRANCH   8  11
ATOM     11  C   UNL     1       0.746  10.903  18.624  0.00  0.00    +0.000 C 
BRANCH  11  12
ATOM     12  C   UNL     1      -0.738  10.878  18.338  0.00  0.00    +0.000 C 
ATOM     13  C   UNL     1      -1.294   9.902  17.595  0.00  0.00    +0.000 C 
ATOM     14  C   UNL     1      -2.746   9.862  17.213  0.00  0.00    +0.000 C 
ATOM     15  C   UNL     1      -3.497  11.160  17.509  0.00  0.00    +0.000 C 
ATOM     16  C   UNL     1      -3.072  11.748  18.847  0.00  0.00    +0.000 C 
ATOM     17  C   UNL     1      -1.567  12.030  18.870  0.00  0.00    +0.000 C 
ENDBRANCH  11  12
ENDBRANCH   8  11
ENDBRANCH   4   7
BRANCH   1  18
ATOM     18  C   UNL     1       4.547   3.795  17.758  0.00  0.00    +0.000 C 
BRANCH  18  19
ATOM     19  N   UNL     1       5.063   3.417  19.092  0.00  0.00    +0.000 NA
ATOM     20  H   UNL     1       6.074   3.292  19.059  0.00  0.00    +0.000 HD
BRANCH  19  22
ATOM     21  C   UNL     1       3.062   2.826  20.755  0.00  0.00    +0.000 C 
ATOM     22  S   UNL     1       4.322   2.059  19.759  0.00  0.00    +0.000 S 
ATOM     23  O   UNL     1       5.293   1.454  20.643  0.00  0.00    +0.000 OA
ATOM     24  O   UNL     1       3.697   1.320  18.687  0.00  0.00    +0.000 OA
ENDBRANCH  19  22
ENDBRANCH  18  19
ENDBRANCH   1  18
TORSDOF 6
ENDMDL
MODEL 8
REMARK VINA RESULT:      -6.8      2.200      2.491
REMARK  Name = 
REMARK  7 active torsions:
REMARK  status: ('A' for Active; 'I' for Inactive)
REMARK    1  A    between atoms: C_1  and  S_2
REMARK    2  A    between atoms: S_2  and  N_5
REMARK    3  A    between atoms: N_5  and  C_6
REMARK    4  A    between atoms: C_6  and  C_7
REMARK    5  A    between atoms: C_10  and  N_11
REMARK    6  A    between atoms: C_12  and  C_14
REMARK    7  A    between atoms: C_14  and  C_15
REMARK                            x       y       z     vdW  Elec       q    Type
REMARK                         _______ _______ _______ _____ _____    ______ ____
ROOT
ATOM      1  C   UNL     1       0.705   9.773  19.172  0.00  0.00    +0.000 A 
ATOM      2  C   UNL     1       1.316   9.398  17.969  0.00  0.00    +0.000 A 
ATOM      3  C   UNL     1       2.125   8.263  17.900  0.00  0.00    +0.000 A 
ATOM      4  C   UNL     1       2.359   7.485  19.034  0.00  0.00    +0.000 A 
ATOM      5  C   UNL     1       1.750   7.852  20.240  0.00  0.00    +0.000 A 
ATOM      6  C   UNL     1       0.937   8.992  20.310  0.00  0.00    +0.000 A 
ENDROOT
BRANCH   4   7
ATOM      7  N   UNL     1       3.178   6.333  19.018  0.00  0.00    +0.000 N 
ATOM      8  C   UNL     1       2.822   5.092  18.510  0.00  0.00    +0.000 C 
ATOM      9  O   UNL     1       1.763   4.816  17.952  0.00  0.00    +0.000 OA
ATOM     10  H   UNL     1       4.130   6.449  19.339  0.00  0.00    +0.000 HD
BRANCH   8  11
ATOM     11  C   UNL     1       3.897   4.022  18.682  0.00  0.00    +0.000 C 
BRANCH  11  12
ATOM     12  C   UNL     1       5.038   4.195  17.708  0.00  0.00    +0.000 C 
ATOM     13  C   UNL     1       6.285   4.480  18.129  0.00  0.00    +0.000 C 
ATOM     14  C   UNL     1       7.444   4.739  17.209  0.00  0.00    +0.000 C 
ATOM     15  C   UNL     1       7.041   4.918  15.745  0.00  0.00    +0.000 C 
ATOM     16  C   UNL     1       5.953   3.928  15.350  0.00  0.00    +0.000 C 
ATOM     17  C   UNL     1       4.711   4.096  16.231  0.00  0.00    +0.000 C 
ENDBRANCH  11  12
ENDBRANCH   8  11
ENDBRANCH   4   7
BRANCH   1  18
ATOM     18  C   UNL     1      -0.209  10.975  19.210  0.00  0.00    +0.000 C 
BRANCH  18  19
ATOM     19  N   UNL     1       0.287  12.020  18.288  0.00  0.00    +0.000 NA
ATOM     20  H   UNL     1       0.839  11.600  17.541  0.00  0.00    +0.000 HD
BRANCH  19  22
ATOM     21  C   UNL     1       2.739  13.070  18.256  0.00  0.00    +0.000 C 
ATOM     22  S   UNL     1       1.153  13.252  19.043  0.00  0.00    +0.000 S 
ATOM     23  O   UNL     1       1.290  12.865  20.431  0.00  0.00    +0.000 OA
ATOM     24  O   UNL     1       0.569  14.513  18.653  0.00  0.00    +0.000 OA
ENDBRANCH  19  22
ENDBRANCH  18  19
ENDBRANCH   1  18
TORSDOF 6
ENDMDL
MODEL 9
REMARK VINA RESULT:      -6.8      2.234      3.137
REMARK  Name = 
REMARK  7 active torsions:
REMARK  status: ('A' for Active; 'I' for Inactive)
REMARK    1  A    between atoms: C_1  and  S_2
REMARK    2  A    between atoms: S_2  and  N_5
REMARK    3  A    between atoms: N_5  and  C_6
REMARK    4  A    between atoms: C_6  and  C_7
REMARK    5  A    between atoms: C_10  and  N_11
REMARK    6  A    between atoms: C_12  and  C_14
REMARK    7  A    between atoms: C_14  and  C_15
REMARK                            x       y       z     vdW  Elec       q    Type
REMARK                         _______ _______ _______ _____ _____    ______ ____
ROOT
ATOM      1  C   UNL     1       0.894   9.625  19.656  0.00  0.00    +0.000 A 
ATOM      2  C   UNL     1       1.056   8.662  20.659  0.00  0.00    +0.000 A 
ATOM      3  C   UNL     1       1.812   7.511  20.431  0.00  0.00    +0.000 A 
ATOM      4  C   UNL     1       2.408   7.283  19.191  0.00  0.00    +0.000 A 
ATOM      5  C   UNL     1       2.252   8.243  18.183  0.00  0.00    +0.000 A 
ATOM      6  C   UNL     1       1.493   9.400  18.411  0.00  0.00    +0.000 A 
ENDROOT
BRANCH   4   7
ATOM      7  N   UNL     1       3.173   6.130  18.908  0.00  0.00    +0.000 N 
ATOM      8  C   UNL     1       2.700   4.969  18.312  0.00  0.00    +0.000 C 
ATOM      9  O   UNL     1       1.560   4.784  17.895  0.00  0.00    +0.000 OA
ATOM     10  H   UNL     1       4.166   6.188  19.089  0.00  0.00    +0.000 HD
BRANCH   8  11
ATOM     11  C   UNL     1       3.750   3.868  18.184  0.00  0.00    +0.000 C 
BRANCH  11  12
ATOM     12  C   UNL     1       4.878   4.258  17.257  0.00  0.00    +0.000 C 
ATOM     13  C   UNL     1       4.704   4.314  15.923  0.00  0.00    +0.000 C 
ATOM     14  C   UNL     1       5.803   4.620  14.945  0.00  0.00    +0.000 C 
ATOM     15  C   UNL     1       7.201   4.601  15.563  0.00  0.00    +0.000 C 
ATOM     16  C   UNL     1       7.200   5.245  16.943  0.00  0.00    +0.000 C 
ATOM     17  C   UNL     1       6.231   4.524  17.885  0.00  0.00    +0.000 C 
ENDBRANCH  11  12
ENDBRANCH   8  11
ENDBRANCH   4   7
BRANCH   1  18
ATOM     18  C   UNL     1       0.116  10.888  19.942  0.00  0.00    +0.000 C 
BRANCH  18  19
ATOM     19  N   UNL     1       0.517  11.446  21.253  0.00  0.00    +0.000 NA
ATOM     20  H   UNL     1       1.127  10.793  21.743  0.00  0.00    +0.000 HD
BRANCH  19  22
ATOM     21  C   UNL     1      -0.988  10.425  23.204  0.00  0.00    +0.000 C 
ATOM     22  S   UNL     1      -0.774  11.901  22.233  0.00  0.00    +0.000 S 
ATOM     23  O   UNL     1      -1.921  12.040  21.362  0.00  0.00    +0.000 OA
ATOM     24  O   UNL     1      -0.329  12.974  23.089  0.00  0.00    +0.000 OA
ENDBRANCH  19  22
ENDBRANCH  18  19
ENDBRANCH   1  18
TORSDOF 6
ENDMDL
