MODEL 1
REMARK VINA RESULT:      -6.5      0.000      0.000
REMARK  Name = 
REMARK  1 active torsions:
REMARK  status: ('A' for Active; 'I' for Inactive)
REMARK    1  A    between atoms: C_5  and  N_6
REMARK                            x       y       z     vdW  Elec       q    Type
REMARK                         _______ _______ _______ _____ _____    ______ ____
ROOT
ATOM      1  N   UNL     1       3.767   2.885  19.184  0.00  0.00    +0.000 N 
ATOM      2  C   UNL     1       2.940   2.133  18.233  0.00  0.00    +0.000 C 
ATOM      3  C   UNL     1       1.437   2.169  18.528  0.00  0.00    +0.000 C 
ATOM      4  C   UNL     1       0.852   3.529  18.919  0.00  0.00    +0.000 C 
ATOM      5  N   UNL     1       0.682   3.777  20.356  0.00  0.00    +0.000 NA
ATOM      6  C   UNL     1       1.918   3.899  21.127  0.00  0.00    +0.000 C 
ATOM      7  C   UNL     1       2.631   2.569  21.382  0.00  0.00    +0.000 C 
ATOM      8  C   UNL     1       3.894   2.352  20.543  0.00  0.00    +0.000 C 
ATOM      9  H   UNL     1       0.087   3.059  20.764  0.00  0.00    +0.000 HD
ENDROOT
BRANCH   1  14
ATOM     10 BR   UNL     1       7.371   7.381  17.256  0.00  0.00    +0.000 Br
ATOM     11  C   UNL     1       6.215   6.005  17.859  0.00  0.00    +0.000 A 
ATOM     12  C   UNL     1       5.322   5.442  16.969  0.00  0.00    +0.000 A 
ATOM     13  C   UNL     1       4.508   4.399  17.418  0.00  0.00    +0.000 A 
ATOM     14  C   UNL     1       4.579   3.919  18.736  0.00  0.00    +0.000 A 
ATOM     15  C   UNL     1       5.510   4.596  19.534  0.00  0.00    +0.000 A 
ATOM     16  N   UNL     1       6.324   5.611  19.141  0.00  0.00    +0.000 NA
ENDBRANCH   1  14
TORSDOF 1
ENDMDL
MODEL 2
REMARK VINA RESULT:      -6.4      2.876      3.326
REMARK  Name = 
REMARK  1 active torsions:
REMARK  status: ('A' for Active; 'I' for Inactive)
REMARK    1  A    between atoms: C_5  and  N_6
REMARK                            x       y       z     vdW  Elec       q    Type
REMARK                         _______ _______ _______ _____ _____    ______ ____
ROOT
ATOM      1  N   UNL     1       3.035   4.406  20.055  0.00  0.00    +0.000 N 
ATOM      2  C   UNL     1       4.181   3.656  19.528  0.00  0.00    +0.000 C 
ATOM      3  C   UNL     1       3.822   2.311  18.890  0.00  0.00    +0.000 C 
ATOM      4  C   UNL     1       2.596   2.295  17.973  0.00  0.00    +0.000 C 
ATOM      5  N   UNL     1       1.338   1.835  18.574  0.00  0.00    +0.000 NA
ATOM      6  C   UNL     1       0.770   2.707  19.599  0.00  0.00    +0.000 C 
ATOM      7  C   UNL     1       1.500   2.652  20.944  0.00  0.00    +0.000 C 
ATOM      8  C   UNL     1       2.368   3.876  21.248  0.00  0.00    +0.000 C 
ATOM      9  H   UNL     1       1.455   0.893  18.944  0.00  0.00    +0.000 HD
ENDROOT
BRANCH   1  14
ATOM     10 BR   UNL     1       1.842  10.011  18.037  0.00  0.00    +0.000 Br
ATOM     11  C   UNL     1       2.183   8.248  18.643  0.00  0.00    +0.000 A 
ATOM     12  C   UNL     1       2.848   7.370  17.810  0.00  0.00    +0.000 A 
ATOM     13  C   UNL     1       3.130   6.088  18.289  0.00  0.00    +0.000 A 
ATOM     14  C   UNL     1       2.758   5.682  19.580  0.00  0.00    +0.000 A 
ATOM     15  C   UNL     1       2.072   6.664  20.306  0.00  0.00    +0.000 A 
ATOM     16  N   UNL     1       1.778   7.922  19.883  0.00  0.00    +0.000 NA
ENDBRANCH   1  14
TORSDOF 1
ENDMDL
MODEL 3
REMARK VINA RESULT:      -6.4      2.341      3.317
REMARK  Name = 
REMARK  1 active torsions:
REMARK  status: ('A' for Active; 'I' for Inactive)
REMARK    1  A    between atoms: C_5  and  N_6
REMARK                            x       y       z     vdW  Elec       q    Type
REMARK                         _______ _______ _______ _____ _____    ______ ____
ROOT
ATOM      1  N   UNL     1       4.669   4.761  18.014  0.00  0.00    +0.000 N 
ATOM      2  C   UNL     1       5.165   3.952  19.133  0.00  0.00    +0.000 C 
ATOM      3  C   UNL     1       4.214   2.839  19.585  0.00  0.00    +0.000 C 
ATOM      4  C   UNL     1       3.546   2.021  18.477  0.00  0.00    +0.000 C 
ATOM      5  N   UNL     1       2.182   2.418  18.104  0.00  0.00    +0.000 NA
ATOM      6  C   UNL     1       2.058   3.719  17.450  0.00  0.00    +0.000 C 
ATOM      7  C   UNL     1       2.209   4.914  18.396  0.00  0.00    +0.000 C 
ATOM      8  C   UNL     1       3.541   5.660  18.272  0.00  0.00    +0.000 C 
ATOM      9  H   UNL     1       1.575   2.380  18.921  0.00  0.00    +0.000 HD
ENDROOT
BRANCH   1  14
ATOM     10 BR   UNL     1       7.914   5.096  12.887  0.00  0.00    +0.000 Br
ATOM     11  C   UNL     1       6.876   5.019  14.471  0.00  0.00    +0.000 A 
ATOM     12  C   UNL     1       5.695   4.302  14.464  0.00  0.00    +0.000 A 
ATOM     13  C   UNL     1       4.964   4.219  15.652  0.00  0.00    +0.000 A 
ATOM     14  C   UNL     1       5.399   4.840  16.834  0.00  0.00    +0.000 A 
ATOM     15  C   UNL     1       6.598   5.550  16.691  0.00  0.00    +0.000 A 
ATOM     16  N   UNL     1       7.344   5.655  15.559  0.00  0.00    +0.000 NA
ENDBRANCH   1  14
TORSDOF 1
ENDMDL
MODEL 4
REMARK VINA RESULT:      -6.4      2.811      5.460
REMARK  Name = 
REMARK  1 active torsions:
REMARK  status: ('A' for Active; 'I' for Inactive)
REMARK    1  A    between atoms: C_5  and  N_6
REMARK                            x       y       z     vdW  Elec       q    Type
REMARK                         _______ _______ _______ _____ _____    ______ ____
ROOT
ATOM      1  N   UNL     1       5.087   5.825  17.809  0.00  0.00    +0.000 N 
ATOM      2  C   UNL     1       4.720   5.959  16.394  0.00  0.00    +0.000 C 
ATOM      3  C   UNL     1       5.761   5.412  15.412  0.00  0.00    +0.000 C 
ATOM      4  C   UNL     1       6.387   4.060  15.765  0.00  0.00    +0.000 C 
ATOM      5  N   UNL     1       7.696   4.101  16.428  0.00  0.00    +0.000 NA
ATOM      6  C   UNL     1       7.701   4.646  17.784  0.00  0.00    +0.000 C 
ATOM      7  C   UNL     1       7.557   6.170  17.848  0.00  0.00    +0.000 C 
ATOM      8  C   UNL     1       6.182   6.661  18.309  0.00  0.00    +0.000 C 
ATOM      9  H   UNL     1       8.363   4.606  15.848  0.00  0.00    +0.000 HD
ENDROOT
BRANCH   1  14
ATOM     10 BR   UNL     1       1.560   2.680  21.629  0.00  0.00    +0.000 Br
ATOM     11  C   UNL     1       2.629   3.662  20.411  0.00  0.00    +0.000 A 
ATOM     12  C   UNL     1       2.422   5.021  20.282  0.00  0.00    +0.000 A 
ATOM     13  C   UNL     1       3.248   5.738  19.412  0.00  0.00    +0.000 A 
ATOM     14  C   UNL     1       4.268   5.113  18.677  0.00  0.00    +0.000 A 
ATOM     15  C   UNL     1       4.351   3.730  18.888  0.00  0.00    +0.000 A 
ATOM     16  N   UNL     1       3.573   2.993  19.724  0.00  0.00    +0.000 NA
ENDBRANCH   1  14
TORSDOF 1
ENDMDL
MODEL 5
REMARK VINA RESULT:      -6.3      3.008      5.664
REMARK  Name = 
REMARK  1 active torsions:
REMARK  status: ('A' for Active; 'I' for Inactive)
REMARK    1  A    between atoms: C_5  and  N_6
REMARK                            x       y       z     vdW  Elec       q    Type
REMARK                         _______ _______ _______ _____ _____    ______ ____
ROOT
ATOM      1  N   UNL     1       5.046   5.996  16.885  0.00  0.00    +0.000 N 
ATOM      2  C   UNL     1       5.113   5.789  15.434  0.00  0.00    +0.000 C 
ATOM      3  C   UNL     1       6.413   5.145  14.943  0.00  0.00    +0.000 C 
ATOM      4  C   UNL     1       6.943   3.966  15.763  0.00  0.00    +0.000 C 
ATOM      5  N   UNL     1       7.994   4.272  16.741  0.00  0.00    +0.000 NA
ATOM      6  C   UNL     1       7.581   5.093  17.878  0.00  0.00    +0.000 C 
ATOM      7  C   UNL     1       7.383   6.574  17.541  0.00  0.00    +0.000 C 
ATOM      8  C   UNL     1       5.920   7.020  17.467  0.00  0.00    +0.000 C 
ATOM      9  H   UNL     1       8.790   4.701  16.273  0.00  0.00    +0.000 HD
ENDROOT
BRANCH   1  14
ATOM     10 BR   UNL     1       0.621   3.390  20.133  0.00  0.00    +0.000 Br
ATOM     11  C   UNL     1       1.973   4.225  19.100  0.00  0.00    +0.000 A 
ATOM     12  C   UNL     1       2.359   5.513  19.416  0.00  0.00    +0.000 A 
ATOM     13  C   UNL     1       3.387   6.098  18.673  0.00  0.00    +0.000 A 
ATOM     14  C   UNL     1       4.026   5.413  17.627  0.00  0.00    +0.000 A 
ATOM     15  C   UNL     1       3.520   4.126  17.402  0.00  0.00    +0.000 A 
ATOM     16  N   UNL     1       2.526   3.517  18.099  0.00  0.00    +0.000 NA
ENDBRANCH   1  14
TORSDOF 1
ENDMDL
MODEL 6
REMARK VINA RESULT:      -6.3      2.902      3.423
REMARK  Name = 
REMARK  1 active torsions:
REMARK  status: ('A' for Active; 'I' for Inactive)
REMARK    1  A    between atoms: C_5  and  N_6
REMARK                            x       y       z     vdW  Elec       q    Type
REMARK                         _______ _______ _______ _____ _____    ______ ____
ROOT
ATOM      1  N   UNL     1       3.070   4.357  20.045  0.00  0.00    +0.000 N 
ATOM      2  C   UNL     1       4.194   3.602  19.480  0.00  0.00    +0.000 C 
ATOM      3  C   UNL     1       3.807   2.264  18.844  0.00  0.00    +0.000 C 
ATOM      4  C   UNL     1       2.555   2.263  17.964  0.00  0.00    +0.000 C 
ATOM      5  N   UNL     1       1.312   1.807  18.598  0.00  0.00    +0.000 NA
ATOM      6  C   UNL     1       0.780   2.677  19.645  0.00  0.00    +0.000 C 
ATOM      7  C   UNL     1       1.548   2.609  20.968  0.00  0.00    +0.000 C 
ATOM      8  C   UNL     1       2.434   3.825  21.254  0.00  0.00    +0.000 C 
ATOM      9  H   UNL     1       1.433   0.863  18.959  0.00  0.00    +0.000 HD
ENDROOT
BRANCH   1  14
ATOM     10 BR   UNL     1       1.822   9.934  17.981  0.00  0.00    +0.000 Br
ATOM     11  C   UNL     1       2.240   8.210  18.650  0.00  0.00    +0.000 A 
ATOM     12  C   UNL     1       1.780   7.846  19.900  0.00  0.00    +0.000 A 
ATOM     13  C   UNL     1       2.060   6.557  20.359  0.00  0.00    +0.000 A 
ATOM     14  C   UNL     1       2.788   5.638  19.587  0.00  0.00    +0.000 A 
ATOM     15  C   UNL     1       3.211   6.147  18.352  0.00  0.00    +0.000 A 
ATOM     16  N   UNL     1       2.960   7.390  17.863  0.00  0.00    +0.000 NA
ENDBRANCH   1  14
TORSDOF 1
ENDMDL
MODEL 7
REMARK VINA RESULT:      -6.3      2.819      5.446
REMARK  Name = 
REMARK  1 active torsions:
REMARK  status: ('A' for Active; 'I' for Inactive)
REMARK    1  A    between atoms: C_5  and  N_6
REMARK                            x       y       z     vdW  Elec       q    Type
REMARK                         _______ _______ _______ _____ _____    ______ ____
ROOT
ATOM      1  N   UNL     1       5.087   5.800  17.779  0.00  0.00    +0.000 N 
ATOM      2  C   UNL     1       4.716   5.925  16.365  0.00  0.00    +0.000 C 
ATOM      3  C   UNL     1       5.762   5.388  15.383  0.00  0.00    +0.000 C 
ATOM      4  C   UNL     1       6.407   4.046  15.739  0.00  0.00    +0.000 C 
ATOM      5  N   UNL     1       7.716   4.106  16.401  0.00  0.00    +0.000 NA
ATOM      6  C   UNL     1       7.716   4.656  17.755  0.00  0.00    +0.000 C 
ATOM      7  C   UNL     1       7.552   6.178  17.814  0.00  0.00    +0.000 C 
ATOM      8  C   UNL     1       6.171   6.652  18.276  0.00  0.00    +0.000 C 
ATOM      9  H   UNL     1       8.376   4.618  15.818  0.00  0.00    +0.000 HD
ENDROOT
BRANCH   1  14
ATOM     10 BR   UNL     1       1.503   2.691  21.575  0.00  0.00    +0.000 Br
ATOM     11  C   UNL     1       2.652   3.654  20.417  0.00  0.00    +0.000 A 
ATOM     12  C   UNL     1       3.524   2.956  19.605  0.00  0.00    +0.000 A 
ATOM     13  C   UNL     1       4.334   3.680  18.725  0.00  0.00    +0.000 A 
ATOM     14  C   UNL     1       4.279   5.080  18.651  0.00  0.00    +0.000 A 
ATOM     15  C   UNL     1       3.368   5.658  19.545  0.00  0.00    +0.000 A 
ATOM     16  N   UNL     1       2.560   4.996  20.415  0.00  0.00    +0.000 NA
ENDBRANCH   1  14
TORSDOF 1
ENDMDL
MODEL 8
REMARK VINA RESULT:      -6.2      2.386      2.987
REMARK  Name = 
REMARK  1 active torsions:
REMARK  status: ('A' for Active; 'I' for Inactive)
REMARK    1  A    between atoms: C_5  and  N_6
REMARK                            x       y       z     vdW  Elec       q    Type
REMARK                         _______ _______ _______ _____ _____    ______ ____
ROOT
ATOM      1  N   UNL     1       4.960   4.377  18.242  0.00  0.00    +0.000 N 
ATOM      2  C   UNL     1       4.714   3.022  18.749  0.00  0.00    +0.000 C 
ATOM      3  C   UNL     1       3.238   2.689  18.986  0.00  0.00    +0.000 C 
ATOM      4  C   UNL     1       2.255   3.133  17.899  0.00  0.00    +0.000 C 
ATOM      5  N   UNL     1       1.544   4.395  18.138  0.00  0.00    +0.000 NA
ATOM      6  C   UNL     1       2.370   5.601  18.120  0.00  0.00    +0.000 C 
ATOM      7  C   UNL     1       3.237   5.786  19.368  0.00  0.00    +0.000 C 
ATOM      8  C   UNL     1       4.726   5.498  19.158  0.00  0.00    +0.000 C 
ATOM      9  H   UNL     1       1.028   4.341  19.014  0.00  0.00    +0.000 HD
ENDROOT
BRANCH   1  14
ATOM     10 BR   UNL     1       7.880   5.167  12.972  0.00  0.00    +0.000 Br
ATOM     11  C   UNL     1       6.942   4.949  14.605  0.00  0.00    +0.000 A 
ATOM     12  C   UNL     1       5.762   4.231  14.610  0.00  0.00    +0.000 A 
ATOM     13  C   UNL     1       5.107   4.043  15.829  0.00  0.00    +0.000 A 
ATOM     14  C   UNL     1       5.615   4.561  17.030  0.00  0.00    +0.000 A 
ATOM     15  C   UNL     1       6.804   5.285  16.875  0.00  0.00    +0.000 A 
ATOM     16  N   UNL     1       7.477   5.491  15.713  0.00  0.00    +0.000 NA
ENDBRANCH   1  14
TORSDOF 1
ENDMDL
MODEL 9
REMARK VINA RESULT:      -6.2      2.789      5.446
REMARK  Name = 
REMARK  1 active torsions:
REMARK  status: ('A' for Active; 'I' for Inactive)
REMARK    1  A    between atoms: C_5  and  N_6
REMARK                            x       y       z     vdW  Elec       q    Type
REMARK                         _______ _______ _______ _____ _____    ______ ____
ROOT
ATOM      1  N   UNL     1       4.492   5.189  17.001  0.00  0.00    +0.000 N 
ATOM      2  C   UNL     1       4.998   4.370  15.893  0.00  0.00    +0.000 C 
ATOM      3  C   UNL     1       6.516   4.435  15.696  0.00  0.00    +0.000 C 
ATOM      4  C   UNL     1       7.372   4.363  16.963  0.00  0.00    +0.000 C 
ATOM      5  N   UNL     1       7.841   5.643  17.507  0.00  0.00    +0.000 NA
ATOM      6  C   UNL     1       6.805   6.515  18.056  0.00  0.00    +0.000 C 
ATOM      7  C   UNL     1       5.948   7.214  16.996  0.00  0.00    +0.000 C 
ATOM      8  C   UNL     1       4.534   6.646  16.844  0.00  0.00    +0.000 C 
ATOM      9  H   UNL     1       8.379   6.143  16.802  0.00  0.00    +0.000 HD
ENDROOT
BRANCH   1  14
ATOM     10 BR   UNL     1       1.453   2.612  21.589  0.00  0.00    +0.000 Br
ATOM     11  C   UNL     1       2.384   3.389  20.132  0.00  0.00    +0.000 A 
ATOM     12  C   UNL     1       1.702   4.225  19.270  0.00  0.00    +0.000 A 
ATOM     13  C   UNL     1       2.413   4.824  18.227  0.00  0.00    +0.000 A 
ATOM     14  C   UNL     1       3.785   4.596  18.041  0.00  0.00    +0.000 A 
ATOM     15  C   UNL     1       4.343   3.711  18.972  0.00  0.00    +0.000 A 
ATOM     16  N   UNL     1       3.693   3.108  20.002  0.00  0.00    +0.000 NA
ENDBRANCH   1  14
TORSDOF 1
ENDMDL
