MODEL 1
REMARK VINA RESULT:      -6.7      0.000      0.000
REMARK  Name = 
REMARK  4 active torsions:
REMARK  status: ('A' for Active; 'I' for Inactive)
REMARK    1  A    between atoms: N_10  and  C_11
REMARK    2  A    between atoms: C_11  and  C_12
REMARK    3  A    between atoms: C_12  and  O_13
REMARK    4  A    between atoms: O_13  and  C_14
REMARK                            x       y       z     vdW  Elec       q    Type
REMARK                         _______ _______ _______ _____ _____    ______ ____
ROOT
ATOM      1  O   UNL     1       2.778   2.075  19.389  0.00  0.00    +0.000 OA
ATOM      2  C   UNL     1       2.640   3.284  19.469  0.00  0.00    +0.000 A 
ATOM      3  S   UNL     1       2.066   4.093  20.932  0.00  0.00    +0.000 S 
ATOM      4  C   UNL     1       2.123   5.672  20.137  0.00  0.00    +0.000 A 
ATOM      5  C   UNL     1       1.782   6.898  20.692  0.00  0.00    +0.000 A 
ATOM      6  C   UNL     1       1.883   8.036  19.892  0.00  0.00    +0.000 A 
ATOM      7  C   UNL     1       2.309   7.927  18.561  0.00  0.00    +0.000 A 
ATOM      8  C   UNL     1       2.651   6.682  18.013  0.00  0.00    +0.000 A 
ATOM      9  C   UNL     1       2.562   5.553  18.817  0.00  0.00    +0.000 A 
ATOM     10  N   UNL     1       2.876   4.221  18.466  0.00  0.00    +0.000 N 
ENDROOT
BRANCH  10  11
ATOM     11  C   UNL     1       3.337   3.797  17.152  0.00  0.00    +0.000 C 
BRANCH  11  12
ATOM     12  C   UNL     1       4.866   3.725  17.071  0.00  0.00    +0.000 C 
BRANCH  12  13
ATOM     13  O   UNL     1       5.384   4.855  16.354  0.00  0.00    +0.000 OA
BRANCH  13  14
ATOM     14  C   UNL     1       6.277   5.617  17.068  0.00  0.00    +0.000 A 
ATOM     15  C   UNL     1       6.502   6.978  16.850  0.00  0.00    +0.000 A 
ATOM     16  C   UNL     1       7.434   7.678  17.620  0.00  0.00    +0.000 A 
ATOM     17  C   UNL     1       8.139   7.025  18.626  0.00  0.00    +0.000 A 
ATOM     18  C   UNL     1       7.901   5.674  18.872  0.00  0.00    +0.000 A 
ATOM     19  C   UNL     1       6.967   4.974  18.102  0.00  0.00    +0.000 A 
ENDBRANCH  13  14
ENDBRANCH  12  13
ENDBRANCH  11  12
ENDBRANCH  10  11
TORSDOF 4
ENDMDL
MODEL 2
REMARK VINA RESULT:      -6.7      0.656      1.234
REMARK  Name = 
REMARK  4 active torsions:
REMARK  status: ('A' for Active; 'I' for Inactive)
REMARK    1  A    between atoms: N_10  and  C_11
REMARK    2  A    between atoms: C_11  and  C_12
REMARK    3  A    between atoms: C_12  and  O_13
REMARK    4  A    between atoms: O_13  and  C_14
REMARK                            x       y       z     vdW  Elec       q    Type
REMARK                         _______ _______ _______ _____ _____    ______ ____
ROOT
ATOM      1  O   UNL     1       1.892   1.787  19.241  0.00  0.00    +0.000 OA
ATOM      2  C   UNL     1       1.938   2.994  19.405  0.00  0.00    +0.000 A 
ATOM      3  S   UNL     1       1.393   3.786  20.890  0.00  0.00    +0.000 S 
ATOM      4  C   UNL     1       1.752   5.384  20.224  0.00  0.00    +0.000 A 
ATOM      5  C   UNL     1       1.568   6.609  20.851  0.00  0.00    +0.000 A 
ATOM      6  C   UNL     1       1.902   7.767  20.148  0.00  0.00    +0.000 A 
ATOM      7  C   UNL     1       2.402   7.680  18.841  0.00  0.00    +0.000 A 
ATOM      8  C   UNL     1       2.585   6.436  18.221  0.00  0.00    +0.000 A 
ATOM      9  C   UNL     1       2.263   5.285  18.928  0.00  0.00    +0.000 A 
ATOM     10  N   UNL     1       2.389   3.946  18.494  0.00  0.00    +0.000 N 
ENDROOT
BRANCH  10  11
ATOM     11  C   UNL     1       2.873   3.541  17.183  0.00  0.00    +0.000 C 
BRANCH  11  12
ATOM     12  C   UNL     1       4.371   3.219  17.192  0.00  0.00    +0.000 C 
BRANCH  12  13
ATOM     13  O   UNL     1       5.096   4.177  16.408  0.00  0.00    +0.000 OA
BRANCH  13  14
ATOM     14  C   UNL     1       5.958   4.965  17.132  0.00  0.00    +0.000 A 
ATOM     15  C   UNL     1       6.351   4.702  18.446  0.00  0.00    +0.000 A 
ATOM     16  C   UNL     1       7.230   5.559  19.112  0.00  0.00    +0.000 A 
ATOM     17  C   UNL     1       7.736   6.682  18.463  0.00  0.00    +0.000 A 
ATOM     18  C   UNL     1       7.373   6.938  17.142  0.00  0.00    +0.000 A 
ATOM     19  C   UNL     1       6.495   6.078  16.474  0.00  0.00    +0.000 A 
ENDBRANCH  13  14
ENDBRANCH  12  13
ENDBRANCH  11  12
ENDBRANCH  10  11
TORSDOF 4
ENDMDL
MODEL 3
REMARK VINA RESULT:      -6.5      1.804      2.994
REMARK  Name = 
REMARK  4 active torsions:
REMARK  status: ('A' for Active; 'I' for Inactive)
REMARK    1  A    between atoms: N_10  and  C_11
REMARK    2  A    between atoms: C_11  and  C_12
REMARK    3  A    between atoms: C_12  and  O_13
REMARK    4  A    between atoms: O_13  and  C_14
REMARK                            x       y       z     vdW  Elec       q    Type
REMARK                         _______ _______ _______ _____ _____    ______ ____
ROOT
ATOM      1  O   UNL     1       3.929   7.183  17.618  0.00  0.00    +0.000 OA
ATOM      2  C   UNL     1       3.373   6.268  18.202  0.00  0.00    +0.000 A 
ATOM      3  S   UNL     1       2.518   6.482  19.735  0.00  0.00    +0.000 S 
ATOM      4  C   UNL     1       2.146   4.755  19.821  0.00  0.00    +0.000 A 
ATOM      5  C   UNL     1       1.444   4.102  20.826  0.00  0.00    +0.000 A 
ATOM      6  C   UNL     1       1.266   2.723  20.717  0.00  0.00    +0.000 A 
ATOM      7  C   UNL     1       1.794   2.027  19.621  0.00  0.00    +0.000 A 
ATOM      8  C   UNL     1       2.499   2.699  18.612  0.00  0.00    +0.000 A 
ATOM      9  C   UNL     1       2.664   4.074  18.717  0.00  0.00    +0.000 A 
ATOM     10  N   UNL     1       3.320   4.933  17.807  0.00  0.00    +0.000 N 
ENDROOT
BRANCH  10  11
ATOM     11  C   UNL     1       3.972   4.500  16.581  0.00  0.00    +0.000 C 
BRANCH  11  12
ATOM     12  C   UNL     1       5.121   3.522  16.850  0.00  0.00    +0.000 C 
BRANCH  12  13
ATOM     13  O   UNL     1       6.354   4.043  16.335  0.00  0.00    +0.000 OA
BRANCH  13  14
ATOM     14  C   UNL     1       6.936   5.006  17.125  0.00  0.00    +0.000 A 
ATOM     15  C   UNL     1       7.442   4.774  18.406  0.00  0.00    +0.000 A 
ATOM     16  C   UNL     1       8.014   5.813  19.144  0.00  0.00    +0.000 A 
ATOM     17  C   UNL     1       8.099   7.091  18.600  0.00  0.00    +0.000 A 
ATOM     18  C   UNL     1       7.624   7.326  17.312  0.00  0.00    +0.000 A 
ATOM     19  C   UNL     1       7.053   6.286  16.572  0.00  0.00    +0.000 A 
ENDBRANCH  13  14
ENDBRANCH  12  13
ENDBRANCH  11  12
ENDBRANCH  10  11
TORSDOF 4
ENDMDL
MODEL 4
REMARK VINA RESULT:      -6.4      2.899      4.511
REMARK  Name = 
REMARK  4 active torsions:
REMARK  status: ('A' for Active; 'I' for Inactive)
REMARK    1  A    between atoms: N_10  and  C_11
REMARK    2  A    between atoms: C_11  and  C_12
REMARK    3  A    between atoms: C_12  and  O_13
REMARK    4  A    between atoms: O_13  and  C_14
REMARK                            x       y       z     vdW  Elec       q    Type
REMARK                         _______ _______ _______ _____ _____    ______ ____
ROOT
ATOM      1  O   UNL     1       5.120   7.182  17.730  0.00  0.00    +0.000 OA
ATOM      2  C   UNL     1       4.404   6.209  17.897  0.00  0.00    +0.000 A 
ATOM      3  S   UNL     1       2.641   6.314  17.982  0.00  0.00    +0.000 S 
ATOM      4  C   UNL     1       2.506   4.576  18.281  0.00  0.00    +0.000 A 
ATOM      5  C   UNL     1       1.337   3.852  18.477  0.00  0.00    +0.000 A 
ATOM      6  C   UNL     1       1.442   2.482  18.714  0.00  0.00    +0.000 A 
ATOM      7  C   UNL     1       2.701   1.867  18.759  0.00  0.00    +0.000 A 
ATOM      8  C   UNL     1       3.873   2.610  18.557  0.00  0.00    +0.000 A 
ATOM      9  C   UNL     1       3.765   3.972  18.309  0.00  0.00    +0.000 A 
ATOM     10  N   UNL     1       4.812   4.888  18.064  0.00  0.00    +0.000 N 
ENDROOT
BRANCH  10  11
ATOM     11  C   UNL     1       6.227   4.546  18.053  0.00  0.00    +0.000 C 
BRANCH  11  12
ATOM     12  C   UNL     1       6.825   4.597  16.643  0.00  0.00    +0.000 C 
BRANCH  12  13
ATOM     13  O   UNL     1       5.931   3.992  15.697  0.00  0.00    +0.000 OA
BRANCH  13  14
ATOM     14  C   UNL     1       6.337   4.096  14.388  0.00  0.00    +0.000 A 
ATOM     15  C   UNL     1       5.794   3.359  13.333  0.00  0.00    +0.000 A 
ATOM     16  C   UNL     1       6.270   3.524  12.031  0.00  0.00    +0.000 A 
ATOM     17  C   UNL     1       7.285   4.439  11.768  0.00  0.00    +0.000 A 
ATOM     18  C   UNL     1       7.814   5.200  12.809  0.00  0.00    +0.000 A 
ATOM     19  C   UNL     1       7.336   5.037  14.113  0.00  0.00    +0.000 A 
ENDBRANCH  13  14
ENDBRANCH  12  13
ENDBRANCH  11  12
ENDBRANCH  10  11
TORSDOF 4
ENDMDL
MODEL 5
REMARK VINA RESULT:      -6.4      1.009      1.079
REMARK  Name = 
REMARK  4 active torsions:
REMARK  status: ('A' for Active; 'I' for Inactive)
REMARK    1  A    between atoms: N_10  and  C_11
REMARK    2  A    between atoms: C_11  and  C_12
REMARK    3  A    between atoms: C_12  and  O_13
REMARK    4  A    between atoms: O_13  and  C_14
REMARK                            x       y       z     vdW  Elec       q    Type
REMARK                         _______ _______ _______ _____ _____    ______ ____
ROOT
ATOM      1  O   UNL     1       3.706   1.621  17.860  0.00  0.00    +0.000 OA
ATOM      2  C   UNL     1       3.413   2.726  18.286  0.00  0.00    +0.000 A 
ATOM      3  S   UNL     1       2.609   2.976  19.840  0.00  0.00    +0.000 S 
ATOM      4  C   UNL     1       2.545   4.723  19.578  0.00  0.00    +0.000 A 
ATOM      5  C   UNL     1       2.006   5.676  20.433  0.00  0.00    +0.000 A 
ATOM      6  C   UNL     1       2.040   7.013  20.036  0.00  0.00    +0.000 A 
ATOM      7  C   UNL     1       2.599   7.370  18.802  0.00  0.00    +0.000 A 
ATOM      8  C   UNL     1       3.142   6.397  17.949  0.00  0.00    +0.000 A 
ATOM      9  C   UNL     1       3.118   5.068  18.352  0.00  0.00    +0.000 A 
ATOM     10  N   UNL     1       3.624   3.949  17.655  0.00  0.00    +0.000 N 
ENDROOT
BRANCH  10  11
ATOM     11  C   UNL     1       4.256   4.005  16.345  0.00  0.00    +0.000 C 
BRANCH  11  12
ATOM     12  C   UNL     1       5.664   3.401  16.354  0.00  0.00    +0.000 C 
BRANCH  12  13
ATOM     13  O   UNL     1       6.616   4.338  15.830  0.00  0.00    +0.000 OA
BRANCH  13  14
ATOM     14  C   UNL     1       7.073   5.254  16.748  0.00  0.00    +0.000 A 
ATOM     15  C   UNL     1       7.045   6.637  16.561  0.00  0.00    +0.000 A 
ATOM     16  C   UNL     1       7.536   7.499  17.545  0.00  0.00    +0.000 A 
ATOM     17  C   UNL     1       8.045   6.983  18.734  0.00  0.00    +0.000 A 
ATOM     18  C   UNL     1       8.049   5.605  18.942  0.00  0.00    +0.000 A 
ATOM     19  C   UNL     1       7.557   4.743  17.957  0.00  0.00    +0.000 A 
ENDBRANCH  13  14
ENDBRANCH  12  13
ENDBRANCH  11  12
ENDBRANCH  10  11
TORSDOF 4
ENDMDL
MODEL 6
REMARK VINA RESULT:      -6.4      2.830      4.434
REMARK  Name = 
REMARK  4 active torsions:
REMARK  status: ('A' for Active; 'I' for Inactive)
REMARK    1  A    between atoms: N_10  and  C_11
REMARK    2  A    between atoms: C_11  and  C_12
REMARK    3  A    between atoms: C_12  and  O_13
REMARK    4  A    between atoms: O_13  and  C_14
REMARK                            x       y       z     vdW  Elec       q    Type
REMARK                         _______ _______ _______ _____ _____    ______ ____
ROOT
ATOM      1  O   UNL     1       4.467   7.437  17.106  0.00  0.00    +0.000 OA
ATOM      2  C   UNL     1       4.107   6.428  17.689  0.00  0.00    +0.000 A 
ATOM      3  S   UNL     1       2.413   6.080  18.056  0.00  0.00    +0.000 S 
ATOM      4  C   UNL     1       2.853   4.585  18.891  0.00  0.00    +0.000 A 
ATOM      5  C   UNL     1       1.989   3.689  19.507  0.00  0.00    +0.000 A 
ATOM      6  C   UNL     1       2.537   2.567  20.129  0.00  0.00    +0.000 A 
ATOM      7  C   UNL     1       3.924   2.367  20.131  0.00  0.00    +0.000 A 
ATOM      8  C   UNL     1       4.785   3.279  19.504  0.00  0.00    +0.000 A 
ATOM      9  C   UNL     1       4.235   4.389  18.875  0.00  0.00    +0.000 A 
ATOM     10  N   UNL     1       4.921   5.408  18.176  0.00  0.00    +0.000 N 
ENDROOT
BRANCH  10  11
ATOM     11  C   UNL     1       6.366   5.475  18.015  0.00  0.00    +0.000 C 
BRANCH  11  12
ATOM     12  C   UNL     1       6.858   4.624  16.839  0.00  0.00    +0.000 C 
BRANCH  12  13
ATOM     13  O   UNL     1       7.309   5.463  15.767  0.00  0.00    +0.000 OA
BRANCH  13  14
ATOM     14  C   UNL     1       7.074   4.953  14.512  0.00  0.00    +0.000 A 
ATOM     15  C   UNL     1       7.810   5.290  13.374  0.00  0.00    +0.000 A 
ATOM     16  C   UNL     1       7.501   4.727  12.133  0.00  0.00    +0.000 A 
ATOM     17  C   UNL     1       6.461   3.809  12.023  0.00  0.00    +0.000 A 
ATOM     18  C   UNL     1       5.739   3.443  13.158  0.00  0.00    +0.000 A 
ATOM     19  C   UNL     1       6.050   4.006  14.400  0.00  0.00    +0.000 A 
ENDBRANCH  13  14
ENDBRANCH  12  13
ENDBRANCH  11  12
ENDBRANCH  10  11
TORSDOF 4
ENDMDL
MODEL 7
REMARK VINA RESULT:      -6.3      2.809      4.246
REMARK  Name = 
REMARK  4 active torsions:
REMARK  status: ('A' for Active; 'I' for Inactive)
REMARK    1  A    between atoms: N_10  and  C_11
REMARK    2  A    between atoms: C_11  and  C_12
REMARK    3  A    between atoms: C_12  and  O_13
REMARK    4  A    between atoms: O_13  and  C_14
REMARK                            x       y       z     vdW  Elec       q    Type
REMARK                         _______ _______ _______ _____ _____    ______ ____
ROOT
ATOM      1  O   UNL     1       4.680   7.211  17.324  0.00  0.00    +0.000 OA
ATOM      2  C   UNL     1       4.079   6.444  18.058  0.00  0.00    +0.000 A 
ATOM      3  S   UNL     1       2.589   6.886  18.901  0.00  0.00    +0.000 S 
ATOM      4  C   UNL     1       2.515   5.307  19.694  0.00  0.00    +0.000 A 
ATOM      5  C   UNL     1       1.549   4.868  20.589  0.00  0.00    +0.000 A 
ATOM      6  C   UNL     1       1.675   3.584  21.119  0.00  0.00    +0.000 A 
ATOM      7  C   UNL     1       2.760   2.774  20.756  0.00  0.00    +0.000 A 
ATOM      8  C   UNL     1       3.728   3.229  19.850  0.00  0.00    +0.000 A 
ATOM      9  C   UNL     1       3.592   4.503  19.313  0.00  0.00    +0.000 A 
ATOM     10  N   UNL     1       4.440   5.138  18.378  0.00  0.00    +0.000 N 
ENDROOT
BRANCH  10  11
ATOM     11  C   UNL     1       5.649   4.548  17.822  0.00  0.00    +0.000 C 
BRANCH  11  12
ATOM     12  C   UNL     1       5.381   3.807  16.508  0.00  0.00    +0.000 C 
BRANCH  12  13
ATOM     13  O   UNL     1       5.106   4.740  15.453  0.00  0.00    +0.000 OA
BRANCH  13  14
ATOM     14  C   UNL     1       5.781   4.487  14.283  0.00  0.00    +0.000 A 
ATOM     15  C   UNL     1       7.043   4.999  13.973  0.00  0.00    +0.000 A 
ATOM     16  C   UNL     1       7.656   4.694  12.756  0.00  0.00    +0.000 A 
ATOM     17  C   UNL     1       7.018   3.859  11.843  0.00  0.00    +0.000 A 
ATOM     18  C   UNL     1       5.772   3.318  12.155  0.00  0.00    +0.000 A 
ATOM     19  C   UNL     1       5.159   3.623  13.374  0.00  0.00    +0.000 A 
ENDBRANCH  13  14
ENDBRANCH  12  13
ENDBRANCH  11  12
ENDBRANCH  10  11
TORSDOF 4
ENDMDL
MODEL 8
REMARK VINA RESULT:      -6.3      2.756      4.228
REMARK  Name = 
REMARK  4 active torsions:
REMARK  status: ('A' for Active; 'I' for Inactive)
REMARK    1  A    between atoms: N_10  and  C_11
REMARK    2  A    between atoms: C_11  and  C_12
REMARK    3  A    between atoms: C_12  and  O_13
REMARK    4  A    between atoms: O_13  and  C_14
REMARK                            x       y       z     vdW  Elec       q    Type
REMARK                         _______ _______ _______ _____ _____    ______ ____
ROOT
ATOM      1  O   UNL     1       4.688   7.078  17.418  0.00  0.00    +0.000 OA
ATOM      2  C   UNL     1       4.054   6.309  18.121  0.00  0.00    +0.000 A 
ATOM      3  S   UNL     1       2.564   6.772  18.954  0.00  0.00    +0.000 S 
ATOM      4  C   UNL     1       2.432   5.175  19.702  0.00  0.00    +0.000 A 
ATOM      5  C   UNL     1       1.440   4.741  20.571  0.00  0.00    +0.000 A 
ATOM      6  C   UNL     1       1.521   3.440  21.068  0.00  0.00    +0.000 A 
ATOM      7  C   UNL     1       2.586   2.608  20.698  0.00  0.00    +0.000 A 
ATOM      8  C   UNL     1       3.581   3.059  19.819  0.00  0.00    +0.000 A 
ATOM      9  C   UNL     1       3.490   4.350  19.316  0.00  0.00    +0.000 A 
ATOM     10  N   UNL     1       4.371   4.984  18.411  0.00  0.00    +0.000 N 
ENDROOT
BRANCH  10  11
ATOM     11  C   UNL     1       5.571   4.374  17.856  0.00  0.00    +0.000 C 
BRANCH  11  12
ATOM     12  C   UNL     1       5.301   3.678  16.518  0.00  0.00    +0.000 C 
BRANCH  12  13
ATOM     13  O   UNL     1       5.056   4.647  15.489  0.00  0.00    +0.000 OA
BRANCH  13  14
ATOM     14  C   UNL     1       5.714   4.398  14.308  0.00  0.00    +0.000 A 
ATOM     15  C   UNL     1       5.206   3.609  13.274  0.00  0.00    +0.000 A 
ATOM     16  C   UNL     1       5.944   3.403  12.106  0.00  0.00    +0.000 A 
ATOM     17  C   UNL     1       7.194   3.998  11.957  0.00  0.00    +0.000 A 
ATOM     18  C   UNL     1       7.697   4.811  12.970  0.00  0.00    +0.000 A 
ATOM     19  C   UNL     1       6.957   5.019  14.138  0.00  0.00    +0.000 A 
ENDBRANCH  13  14
ENDBRANCH  12  13
ENDBRANCH  11  12
ENDBRANCH  10  11
TORSDOF 4
ENDMDL
MODEL 9
REMARK VINA RESULT:      -6.3      1.816      3.544
REMARK  Name = 
REMARK  4 active torsions:
REMARK  status: ('A' for Active; 'I' for Inactive)
REMARK    1  A    between atoms: N_10  and  C_11
REMARK    2  A    between atoms: C_11  and  C_12
REMARK    3  A    between atoms: C_12  and  O_13
REMARK    4  A    between atoms: O_13  and  C_14
REMARK                            x       y       z     vdW  Elec       q    Type
REMARK                         _______ _______ _______ _____ _____    ______ ____
ROOT
ATOM      1  O   UNL     1       1.543   6.645  20.807  0.00  0.00    +0.000 OA
ATOM      2  C   UNL     1       1.929   5.604  20.303  0.00  0.00    +0.000 A 
ATOM      3  S   UNL     1       2.105   4.099  21.215  0.00  0.00    +0.000 S 
ATOM      4  C   UNL     1       2.724   3.254  19.791  0.00  0.00    +0.000 A 
ATOM      5  C   UNL     1       3.122   1.926  19.716  0.00  0.00    +0.000 A 
ATOM      6  C   UNL     1       3.598   1.447  18.496  0.00  0.00    +0.000 A 
ATOM      7  C   UNL     1       3.676   2.298  17.385  0.00  0.00    +0.000 A 
ATOM      8  C   UNL     1       3.269   3.637  17.474  0.00  0.00    +0.000 A 
ATOM      9  C   UNL     1       2.783   4.108  18.687  0.00  0.00    +0.000 A 
ATOM     10  N   UNL     1       2.309   5.407  18.978  0.00  0.00    +0.000 N 
ENDROOT
BRANCH  10  11
ATOM     11  C   UNL     1       2.272   6.508  18.027  0.00  0.00    +0.000 C 
BRANCH  11  12
ATOM     12  C   UNL     1       3.550   7.353  18.069  0.00  0.00    +0.000 C 
BRANCH  12  13
ATOM     13  O   UNL     1       4.245   7.274  16.816  0.00  0.00    +0.000 OA
BRANCH  13  14
ATOM     14  C   UNL     1       5.282   6.372  16.799  0.00  0.00    +0.000 A 
ATOM     15  C   UNL     1       6.143   6.140  17.874  0.00  0.00    +0.000 A 
ATOM     16  C   UNL     1       7.176   5.207  17.771  0.00  0.00    +0.000 A 
ATOM     17  C   UNL     1       7.348   4.484  16.594  0.00  0.00    +0.000 A 
ATOM     18  C   UNL     1       6.476   4.685  15.526  0.00  0.00    +0.000 A 
ATOM     19  C   UNL     1       5.440   5.619  15.630  0.00  0.00    +0.000 A 
ENDBRANCH  13  14
ENDBRANCH  12  13
ENDBRANCH  11  12
ENDBRANCH  10  11
TORSDOF 4
ENDMDL
