MODEL 1
REMARK VINA RESULT:      -8.2      0.000      0.000
REMARK  Name = 
REMARK  9 active torsions:
REMARK  status: ('A' for Active; 'I' for Inactive)
REMARK    1  A    between atoms: C_1  and  C_2
REMARK    2  A    between atoms: C_2  and  C_3
REMARK    3  A    between atoms: C_6  and  C_7
REMARK    4  A    between atoms: N_9  and  C_10
REMARK    5  A    between atoms: N_9  and  C_11
REMARK    6  A    between atoms: C_11  and  C_12
REMARK    7  A    between atoms: C_14  and  C_15
REMARK    8  A    between atoms: C_15  and  C_16
REMARK    9  A    between atoms: C_15  and  C_17
REMARK                            x       y       z     vdW  Elec       q    Type
REMARK                         _______ _______ _______ _____ _____    ______ ____
ROOT
ATOM      1  C   UNL     1       7.051   4.781  16.082  0.00  0.00    +0.000 C 
ATOM      2  O   UNL     1       7.907   4.185  16.742  0.00  0.00    +0.000 OA
ATOM      3  N   UNL     1       6.096   5.573  16.725  0.00  0.00    +0.000 N 
ATOM      4  C   UNL     1       5.030   6.316  16.073  0.00  0.00    +0.000 C 
ENDROOT
BRANCH   1   8
ATOM      5  C   UNL     1       6.330   3.620  12.702  0.00  0.00    +0.000 A 
ATOM      6  C   UNL     1       7.222   4.614  12.368  0.00  0.00    +0.000 A 
ATOM      7  C   UNL     1       7.692   5.191  13.578  0.00  0.00    +0.000 A 
ATOM      8  C   UNL     1       7.023   4.601  14.636  0.00  0.00    +0.000 A 
ATOM      9  N   UNL     1       6.244   3.603  14.072  0.00  0.00    +0.000 N 
ATOM     10  H   UNL     1       5.685   2.961  14.623  0.00  0.00    +0.000 HD
BRANCH   5  12
ATOM     11  C   UNL     1       4.253   3.221  11.364  0.00  0.00    +0.000 C 
ATOM     12  C   UNL     1       5.583   2.658  11.837  0.00  0.00    +0.000 C 
ENDBRANCH   5  12
ENDBRANCH   1   8
BRANCH   3  13
ATOM     13  C   UNL     1       6.258   5.806  18.163  0.00  0.00    +0.000 C 
BRANCH  13  14
ATOM     14  C   UNL     1       5.241   5.039  18.939  0.00  0.00    +0.000 A 
ATOM     15  C   UNL     1       4.020   5.522  19.459  0.00  0.00    +0.000 A 
ATOM     16  C   UNL     1       3.395   4.406  19.955  0.00  0.00    +0.000 A 
ATOM     17  O   UNL     1       4.229   3.337  19.834  0.00  0.00    +0.000 OA
ATOM     18  N   UNL     1       5.398   3.732  19.201  0.00  0.00    +0.000 NA
BRANCH  16  19
ATOM     19  C   UNL     1       2.023   4.138  20.471  0.00  0.00    +0.000 C 
ATOM     20  C   UNL     1       1.095   3.626  19.373  0.00  0.00    +0.000 C 
ATOM     21  C   UNL     1       2.102   3.135  21.624  0.00  0.00    +0.000 C 
ENDBRANCH  16  19
ENDBRANCH  13  14
ENDBRANCH   3  13
TORSDOF 5
ENDMDL
MODEL 2
REMARK VINA RESULT:      -7.8      0.521      1.023
REMARK  Name = 
REMARK  9 active torsions:
REMARK  status: ('A' for Active; 'I' for Inactive)
REMARK    1  A    between atoms: C_1  and  C_2
REMARK    2  A    between atoms: C_2  and  C_3
REMARK    3  A    between atoms: C_6  and  C_7
REMARK    4  A    between atoms: N_9  and  C_10
REMARK    5  A    between atoms: N_9  and  C_11
REMARK    6  A    between atoms: C_11  and  C_12
REMARK    7  A    between atoms: C_14  and  C_15
REMARK    8  A    between atoms: C_15  and  C_16
REMARK    9  A    between atoms: C_15  and  C_17
REMARK                            x       y       z     vdW  Elec       q    Type
REMARK                         _______ _______ _______ _____ _____    ______ ____
ROOT
ATOM      1  C   UNL     1       7.032   4.849  15.919  0.00  0.00    +0.000 C 
ATOM      2  O   UNL     1       7.877   4.273  16.611  0.00  0.00    +0.000 OA
ATOM      3  N   UNL     1       6.078   5.673  16.520  0.00  0.00    +0.000 N 
ATOM      4  C   UNL     1       5.024   6.398  15.829  0.00  0.00    +0.000 C 
ENDROOT
BRANCH   1   8
ATOM      5  C   UNL     1       6.333   3.561  12.580  0.00  0.00    +0.000 A 
ATOM      6  C   UNL     1       7.238   4.532  12.217  0.00  0.00    +0.000 A 
ATOM      7  C   UNL     1       7.703   5.152  13.407  0.00  0.00    +0.000 A 
ATOM      8  C   UNL     1       7.016   4.611  14.481  0.00  0.00    +0.000 A 
ATOM      9  N   UNL     1       6.232   3.600  13.949  0.00  0.00    +0.000 N 
ATOM     10  H   UNL     1       5.661   2.986  14.520  0.00  0.00    +0.000 HD
BRANCH   5  12
ATOM     11  C   UNL     1       6.493   1.498  11.172  0.00  0.00    +0.000 C 
ATOM     12  C   UNL     1       5.584   2.573  11.747  0.00  0.00    +0.000 C 
ENDBRANCH   5  12
ENDBRANCH   1   8
BRANCH   3  13
ATOM     13  C   UNL     1       6.227   5.963  17.950  0.00  0.00    +0.000 C 
BRANCH  13  14
ATOM     14  C   UNL     1       5.308   5.111  18.758  0.00  0.00    +0.000 A 
ATOM     15  C   UNL     1       4.010   5.443  19.209  0.00  0.00    +0.000 A 
ATOM     16  C   UNL     1       3.540   4.285  19.776  0.00  0.00    +0.000 A 
ATOM     17  O   UNL     1       4.527   3.347  19.760  0.00  0.00    +0.000 OA
ATOM     18  N   UNL     1       5.646   3.866  19.126  0.00  0.00    +0.000 NA
BRANCH  16  19
ATOM     19  C   UNL     1       2.205   3.853  20.278  0.00  0.00    +0.000 C 
ATOM     20  C   UNL     1       2.325   2.972  21.518  0.00  0.00    +0.000 C 
ATOM     21  C   UNL     1       1.351   5.089  20.572  0.00  0.00    +0.000 C 
ENDBRANCH  16  19
ENDBRANCH  13  14
ENDBRANCH   3  13
TORSDOF 5
ENDMDL
MODEL 3
REMARK VINA RESULT:      -7.7      0.954      1.230
REMARK  Name = 
REMARK  9 active torsions:
REMARK  status: ('A' for Active; 'I' for Inactive)
REMARK    1  A    between atoms: C_1  and  C_2
REMARK    2  A    between atoms: C_2  and  C_3
REMARK    3  A    between atoms: C_6  and  C_7
REMARK    4  A    between atoms: N_9  and  C_10
REMARK    5  A    between atoms: N_9  and  C_11
REMARK    6  A    between atoms: C_11  and  C_12
REMARK    7  A    between atoms: C_14  and  C_15
REMARK    8  A    between atoms: C_15  and  C_16
REMARK    9  A    between atoms: C_15  and  C_17
REMARK                            x       y       z     vdW  Elec       q    Type
REMARK                         _______ _______ _______ _____ _____    ______ ____
ROOT
ATOM      1  C   UNL     1       7.007   4.757  16.051  0.00  0.00    +0.000 C 
ATOM      2  O   UNL     1       7.866   4.185  16.728  0.00  0.00    +0.000 OA
ATOM      3  N   UNL     1       6.000   5.497  16.677  0.00  0.00    +0.000 N 
ATOM      4  C   UNL     1       4.924   6.208  16.005  0.00  0.00    +0.000 C 
ENDROOT
BRANCH   1   8
ATOM      5  C   UNL     1       6.404   3.665  12.626  0.00  0.00    +0.000 A 
ATOM      6  C   UNL     1       7.315   4.658  12.344  0.00  0.00    +0.000 A 
ATOM      7  C   UNL     1       7.744   5.209  13.580  0.00  0.00    +0.000 A 
ATOM      8  C   UNL     1       7.031   4.604  14.602  0.00  0.00    +0.000 A 
ATOM      9  N   UNL     1       6.267   3.623  13.991  0.00  0.00    +0.000 N 
ATOM     10  H   UNL     1       5.683   2.975  14.509  0.00  0.00    +0.000 HD
BRANCH   5  12
ATOM     11  C   UNL     1       4.291   3.220  11.360  0.00  0.00    +0.000 C 
ATOM     12  C   UNL     1       5.683   2.724  11.716  0.00  0.00    +0.000 C 
ENDBRANCH   5  12
ENDBRANCH   1   8
BRANCH   3  13
ATOM     13  C   UNL     1       6.107   5.709  18.124  0.00  0.00    +0.000 C 
BRANCH  13  14
ATOM     14  C   UNL     1       4.930   5.126  18.830  0.00  0.00    +0.000 A 
ATOM     15  C   UNL     1       4.537   3.769  18.861  0.00  0.00    +0.000 A 
ATOM     16  C   UNL     1       3.492   3.737  19.750  0.00  0.00    +0.000 A 
ATOM     17  O   UNL     1       3.207   5.007  20.150  0.00  0.00    +0.000 OA
ATOM     18  N   UNL     1       4.105   5.887  19.567  0.00  0.00    +0.000 NA
BRANCH  16  19
ATOM     19  C   UNL     1       2.728   2.635  20.399  0.00  0.00    +0.000 C 
ATOM     20  C   UNL     1       2.030   3.105  21.673  0.00  0.00    +0.000 C 
ATOM     21  C   UNL     1       1.713   2.068  19.404  0.00  0.00    +0.000 C 
ENDBRANCH  16  19
ENDBRANCH  13  14
ENDBRANCH   3  13
TORSDOF 5
ENDMDL
MODEL 4
REMARK VINA RESULT:      -7.2      1.495      6.914
REMARK  Name = 
REMARK  9 active torsions:
REMARK  status: ('A' for Active; 'I' for Inactive)
REMARK    1  A    between atoms: C_1  and  C_2
REMARK    2  A    between atoms: C_2  and  C_3
REMARK    3  A    between atoms: C_6  and  C_7
REMARK    4  A    between atoms: N_9  and  C_10
REMARK    5  A    between atoms: N_9  and  C_11
REMARK    6  A    between atoms: C_11  and  C_12
REMARK    7  A    between atoms: C_14  and  C_15
REMARK    8  A    between atoms: C_15  and  C_16
REMARK    9  A    between atoms: C_15  and  C_17
REMARK                            x       y       z     vdW  Elec       q    Type
REMARK                         _______ _______ _______ _____ _____    ______ ____
ROOT
ATOM      1  C   UNL     1       5.379   4.849  18.187  0.00  0.00    +0.000 C 
ATOM      2  O   UNL     1       6.123   4.118  18.847  0.00  0.00    +0.000 OA
ATOM      3  N   UNL     1       5.837   5.427  17.000  0.00  0.00    +0.000 N 
ATOM      4  C   UNL     1       5.074   6.313  16.136  0.00  0.00    +0.000 C 
ENDROOT
BRANCH   1   8
ATOM      5  C   UNL     1       2.046   4.600  19.644  0.00  0.00    +0.000 A 
ATOM      6  C   UNL     1       2.035   5.953  19.390  0.00  0.00    +0.000 A 
ATOM      7  C   UNL     1       3.260   6.279  18.750  0.00  0.00    +0.000 A 
ATOM      8  C   UNL     1       4.043   5.138  18.693  0.00  0.00    +0.000 A 
ATOM      9  N   UNL     1       3.249   4.117  19.190  0.00  0.00    +0.000 N 
ATOM     10  H   UNL     1       3.545   3.148  19.213  0.00  0.00    +0.000 HD
BRANCH   5  12
ATOM     11  C   UNL     1       1.535   2.894  21.403  0.00  0.00    +0.000 C 
ATOM     12  C   UNL     1       0.999   3.718  20.242  0.00  0.00    +0.000 C 
ENDBRANCH   5  12
ENDBRANCH   1   8
BRANCH   3  13
ATOM     13  C   UNL     1       7.143   4.997  16.490  0.00  0.00    +0.000 C 
BRANCH  13  14
ATOM     14  C   UNL     1       7.064   4.691  15.033  0.00  0.00    +0.000 A 
ATOM     15  C   UNL     1       6.310   3.670  14.413  0.00  0.00    +0.000 A 
ATOM     16  C   UNL     1       6.465   3.900  13.069  0.00  0.00    +0.000 A 
ATOM     17  O   UNL     1       7.338   4.929  12.890  0.00  0.00    +0.000 OA
ATOM     18  N   UNL     1       7.725   5.427  14.125  0.00  0.00    +0.000 NA
BRANCH  16  19
ATOM     19  C   UNL     1       5.818   3.341  11.849  0.00  0.00    +0.000 C 
ATOM     20  C   UNL     1       6.250   1.901  11.588  0.00  0.00    +0.000 C 
ATOM     21  C   UNL     1       4.297   3.432  11.994  0.00  0.00    +0.000 C 
ENDBRANCH  16  19
ENDBRANCH  13  14
ENDBRANCH   3  13
TORSDOF 5
ENDMDL
MODEL 5
REMARK VINA RESULT:      -7.2      1.518      6.641
REMARK  Name = 
REMARK  9 active torsions:
REMARK  status: ('A' for Active; 'I' for Inactive)
REMARK    1  A    between atoms: C_1  and  C_2
REMARK    2  A    between atoms: C_2  and  C_3
REMARK    3  A    between atoms: C_6  and  C_7
REMARK    4  A    between atoms: N_9  and  C_10
REMARK    5  A    between atoms: N_9  and  C_11
REMARK    6  A    between atoms: C_11  and  C_12
REMARK    7  A    between atoms: C_14  and  C_15
REMARK    8  A    between atoms: C_15  and  C_16
REMARK    9  A    between atoms: C_15  and  C_17
REMARK                            x       y       z     vdW  Elec       q    Type
REMARK                         _______ _______ _______ _____ _____    ______ ____
ROOT
ATOM      1  C   UNL     1       5.409   5.021  18.311  0.00  0.00    +0.000 C 
ATOM      2  O   UNL     1       6.268   4.329  18.865  0.00  0.00    +0.000 OA
ATOM      3  N   UNL     1       5.736   5.772  17.179  0.00  0.00    +0.000 N 
ATOM      4  C   UNL     1       4.829   6.634  16.439  0.00  0.00    +0.000 C 
ENDROOT
BRANCH   1   8
ATOM      5  C   UNL     1       1.988   4.279  19.331  0.00  0.00    +0.000 A 
ATOM      6  C   UNL     1       2.094   5.514  19.929  0.00  0.00    +0.000 A 
ATOM      7  C   UNL     1       3.375   6.037  19.609  0.00  0.00    +0.000 A 
ATOM      8  C   UNL     1       4.071   5.082  18.888  0.00  0.00    +0.000 A 
ATOM      9  N   UNL     1       3.175   4.045  18.681  0.00  0.00    +0.000 N 
ATOM     10  H   UNL     1       3.396   3.227  18.125  0.00  0.00    +0.000 HD
BRANCH   5  12
ATOM     11  C   UNL     1       1.272   1.935  18.823  0.00  0.00    +0.000 C 
ATOM     12  C   UNL     1       0.845   3.318  19.288  0.00  0.00    +0.000 C 
ENDBRANCH   5  12
ENDBRANCH   1   8
BRANCH   3  13
ATOM     13  C   UNL     1       7.061   5.569  16.584  0.00  0.00    +0.000 C 
BRANCH  13  14
ATOM     14  C   UNL     1       6.942   4.951  15.232  0.00  0.00    +0.000 A 
ATOM     15  C   UNL     1       6.174   3.821  14.874  0.00  0.00    +0.000 A 
ATOM     16  C   UNL     1       6.289   3.749  13.508  0.00  0.00    +0.000 A 
ATOM     17  O   UNL     1       7.154   4.711  13.082  0.00  0.00    +0.000 OA
ATOM     18  N   UNL     1       7.574   5.467  14.166  0.00  0.00    +0.000 NA
BRANCH  16  19
ATOM     19  C   UNL     1       5.610   2.938  12.459  0.00  0.00    +0.000 C 
ATOM     20  C   UNL     1       4.507   3.727  11.759  0.00  0.00    +0.000 C 
ATOM     21  C   UNL     1       6.648   2.446  11.448  0.00  0.00    +0.000 C 
ENDBRANCH  16  19
ENDBRANCH  13  14
ENDBRANCH   3  13
TORSDOF 5
ENDMDL
MODEL 6
REMARK VINA RESULT:      -7.2      1.165      1.394
REMARK  Name = 
REMARK  9 active torsions:
REMARK  status: ('A' for Active; 'I' for Inactive)
REMARK    1  A    between atoms: C_1  and  C_2
REMARK    2  A    between atoms: C_2  and  C_3
REMARK    3  A    between atoms: C_6  and  C_7
REMARK    4  A    between atoms: N_9  and  C_10
REMARK    5  A    between atoms: N_9  and  C_11
REMARK    6  A    between atoms: C_11  and  C_12
REMARK    7  A    between atoms: C_14  and  C_15
REMARK    8  A    between atoms: C_15  and  C_16
REMARK    9  A    between atoms: C_15  and  C_17
REMARK                            x       y       z     vdW  Elec       q    Type
REMARK                         _______ _______ _______ _____ _____    ______ ____
ROOT
ATOM      1  C   UNL     1       5.746   5.597  16.212  0.00  0.00    +0.000 C 
ATOM      2  O   UNL     1       4.764   6.345  16.243  0.00  0.00    +0.000 OA
ATOM      3  N   UNL     1       6.445   5.311  17.388  0.00  0.00    +0.000 N 
ATOM      4  C   UNL     1       7.620   4.461  17.493  0.00  0.00    +0.000 C 
ENDROOT
BRANCH   1   8
ATOM      5  C   UNL     1       6.008   3.766  13.072  0.00  0.00    +0.000 A 
ATOM      6  C   UNL     1       7.183   4.475  12.969  0.00  0.00    +0.000 A 
ATOM      7  C   UNL     1       7.322   5.248  14.152  0.00  0.00    +0.000 A 
ATOM      8  C   UNL     1       6.191   5.067  14.930  0.00  0.00    +0.000 A 
ATOM      9  N   UNL     1       5.437   4.109  14.272  0.00  0.00    +0.000 N 
ATOM     10  H   UNL     1       4.573   3.732  14.647  0.00  0.00    +0.000 HD
BRANCH   5  12
ATOM     11  C   UNL     1       4.225   3.328  11.370  0.00  0.00    +0.000 C 
ATOM     12  C   UNL     1       5.400   2.759  12.149  0.00  0.00    +0.000 C 
ENDBRANCH   5  12
ENDBRANCH   1   8
BRANCH   3  13
ATOM     13  C   UNL     1       5.872   5.777  18.655  0.00  0.00    +0.000 C 
BRANCH  13  14
ATOM     14  C   UNL     1       4.824   4.834  19.138  0.00  0.00    +0.000 A 
ATOM     15  C   UNL     1       3.471   5.130  19.419  0.00  0.00    +0.000 A 
ATOM     16  C   UNL     1       2.904   3.909  19.688  0.00  0.00    +0.000 A 
ATOM     17  O   UNL     1       3.873   2.953  19.671  0.00  0.00    +0.000 OA
ATOM     18  N   UNL     1       5.087   3.532  19.333  0.00  0.00    +0.000 NA
BRANCH  16  19
ATOM     19  C   UNL     1       1.500   3.447  19.879  0.00  0.00    +0.000 C 
ATOM     20  C   UNL     1       1.072   2.473  18.785  0.00  0.00    +0.000 C 
ATOM     21  C   UNL     1       1.362   2.804  21.260  0.00  0.00    +0.000 C 
ENDBRANCH  16  19
ENDBRANCH  13  14
ENDBRANCH   3  13
TORSDOF 5
ENDMDL
MODEL 7
REMARK VINA RESULT:      -7.2      1.883      6.906
REMARK  Name = 
REMARK  9 active torsions:
REMARK  status: ('A' for Active; 'I' for Inactive)
REMARK    1  A    between atoms: C_1  and  C_2
REMARK    2  A    between atoms: C_2  and  C_3
REMARK    3  A    between atoms: C_6  and  C_7
REMARK    4  A    between atoms: N_9  and  C_10
REMARK    5  A    between atoms: N_9  and  C_11
REMARK    6  A    between atoms: C_11  and  C_12
REMARK    7  A    between atoms: C_14  and  C_15
REMARK    8  A    between atoms: C_15  and  C_16
REMARK    9  A    between atoms: C_15  and  C_17
REMARK                            x       y       z     vdW  Elec       q    Type
REMARK                         _______ _______ _______ _____ _____    ______ ____
ROOT
ATOM      1  C   UNL     1       3.664   6.448  18.100  0.00  0.00    +0.000 C 
ATOM      2  O   UNL     1       3.201   7.267  17.301  0.00  0.00    +0.000 OA
ATOM      3  N   UNL     1       5.004   6.063  18.011  0.00  0.00    +0.000 N 
ATOM      4  C   UNL     1       5.672   5.103  18.875  0.00  0.00    +0.000 C 
ENDROOT
BRANCH   1   8
ATOM      5  C   UNL     1       1.574   4.162  20.022  0.00  0.00    +0.000 A 
ATOM      6  C   UNL     1       1.414   5.271  20.821  0.00  0.00    +0.000 A 
ATOM      7  C   UNL     1       2.126   6.341  20.215  0.00  0.00    +0.000 A 
ATOM      8  C   UNL     1       2.780   5.855  19.096  0.00  0.00    +0.000 A 
ATOM      9  N   UNL     1       2.373   4.537  18.970  0.00  0.00    +0.000 N 
ATOM     10  H   UNL     1       2.651   3.944  18.195  0.00  0.00    +0.000 HD
BRANCH   5  12
ATOM     11  C   UNL     1       0.662   2.180  18.795  0.00  0.00    +0.000 C 
ATOM     12  C   UNL     1       1.001   2.788  20.147  0.00  0.00    +0.000 C 
ENDBRANCH   5  12
ENDBRANCH   1   8
BRANCH   3  13
ATOM     13  C   UNL     1       5.862   6.787  17.068  0.00  0.00    +0.000 C 
BRANCH  13  14
ATOM     14  C   UNL     1       6.333   5.880  15.981  0.00  0.00    +0.000 A 
ATOM     15  C   UNL     1       5.559   4.960  15.241  0.00  0.00    +0.000 A 
ATOM     16  C   UNL     1       6.418   4.485  14.282  0.00  0.00    +0.000 A 
ATOM     17  O   UNL     1       7.657   5.008  14.494  0.00  0.00    +0.000 OA
ATOM     18  N   UNL     1       7.611   5.883  15.569  0.00  0.00    +0.000 NA
BRANCH  16  19
ATOM     19  C   UNL     1       6.239   3.642  13.066  0.00  0.00    +0.000 C 
ATOM     20  C   UNL     1       4.802   3.684  12.555  0.00  0.00    +0.000 C 
ATOM     21  C   UNL     1       7.214   4.105  11.981  0.00  0.00    +0.000 C 
ENDBRANCH  16  19
ENDBRANCH  13  14
ENDBRANCH   3  13
TORSDOF 5
ENDMDL
MODEL 8
REMARK VINA RESULT:      -7.1      1.260      1.320
REMARK  Name = 
REMARK  9 active torsions:
REMARK  status: ('A' for Active; 'I' for Inactive)
REMARK    1  A    between atoms: C_1  and  C_2
REMARK    2  A    between atoms: C_2  and  C_3
REMARK    3  A    between atoms: C_6  and  C_7
REMARK    4  A    between atoms: N_9  and  C_10
REMARK    5  A    between atoms: N_9  and  C_11
REMARK    6  A    between atoms: C_11  and  C_12
REMARK    7  A    between atoms: C_14  and  C_15
REMARK    8  A    between atoms: C_15  and  C_16
REMARK    9  A    between atoms: C_15  and  C_17
REMARK                            x       y       z     vdW  Elec       q    Type
REMARK                         _______ _______ _______ _____ _____    ______ ____
ROOT
ATOM      1  C   UNL     1       6.466   4.778  16.210  0.00  0.00    +0.000 C 
ATOM      2  O   UNL     1       7.055   4.039  17.005  0.00  0.00    +0.000 OA
ATOM      3  N   UNL     1       5.558   5.730  16.681  0.00  0.00    +0.000 N 
ATOM      4  C   UNL     1       4.790   6.651  15.859  0.00  0.00    +0.000 C 
ENDROOT
BRANCH   1   8
ATOM      5  C   UNL     1       6.323   3.657  12.744  0.00  0.00    +0.000 A 
ATOM      6  C   UNL     1       7.300   4.613  12.588  0.00  0.00    +0.000 A 
ATOM      7  C   UNL     1       7.567   5.167  13.868  0.00  0.00    +0.000 A 
ATOM      8  C   UNL     1       6.693   4.603  14.781  0.00  0.00    +0.000 A 
ATOM      9  N   UNL     1       5.989   3.640  14.076  0.00  0.00    +0.000 N 
ATOM     10  H   UNL     1       5.313   3.021  14.510  0.00  0.00    +0.000 HD
BRANCH   5  12
ATOM     11  C   UNL     1       4.303   3.158  11.353  0.00  0.00    +0.000 C 
ATOM     12  C   UNL     1       5.707   2.729  11.748  0.00  0.00    +0.000 C 
ENDBRANCH   5  12
ENDBRANCH   1   8
BRANCH   3  13
ATOM     13  C   UNL     1       5.470   5.934  18.130  0.00  0.00    +0.000 C 
BRANCH  13  14
ATOM     14  C   UNL     1       4.107   5.592  18.628  0.00  0.00    +0.000 A 
ATOM     15  C   UNL     1       3.407   4.379  18.439  0.00  0.00    +0.000 A 
ATOM     16  C   UNL     1       2.275   4.516  19.204  0.00  0.00    +0.000 A 
ATOM     17  O   UNL     1       2.246   5.768  19.737  0.00  0.00    +0.000 OA
ATOM     18  N   UNL     1       3.394   6.453  19.371  0.00  0.00    +0.000 NA
BRANCH  16  19
ATOM     19  C   UNL     1       1.196   3.578  19.621  0.00  0.00    +0.000 C 
ATOM     20  C   UNL     1       1.145   2.340  18.728  0.00  0.00    +0.000 C 
ATOM     21  C   UNL     1       1.405   3.182  21.084  0.00  0.00    +0.000 C 
ENDBRANCH  16  19
ENDBRANCH  13  14
ENDBRANCH   3  13
TORSDOF 5
ENDMDL
MODEL 9
REMARK VINA RESULT:      -7.1      1.616      6.955
REMARK  Name = 
REMARK  9 active torsions:
REMARK  status: ('A' for Active; 'I' for Inactive)
REMARK    1  A    between atoms: C_1  and  C_2
REMARK    2  A    between atoms: C_2  and  C_3
REMARK    3  A    between atoms: C_6  and  C_7
REMARK    4  A    between atoms: N_9  and  C_10
REMARK    5  A    between atoms: N_9  and  C_11
REMARK    6  A    between atoms: C_11  and  C_12
REMARK    7  A    between atoms: C_14  and  C_15
REMARK    8  A    between atoms: C_15  and  C_16
REMARK    9  A    between atoms: C_15  and  C_17
REMARK                            x       y       z     vdW  Elec       q    Type
REMARK                         _______ _______ _______ _____ _____    ______ ____
ROOT
ATOM      1  C   UNL     1       4.979   4.218  17.829  0.00  0.00    +0.000 C 
ATOM      2  O   UNL     1       5.771   3.383  18.276  0.00  0.00    +0.000 OA
ATOM      3  N   UNL     1       5.449   5.294  17.072  0.00  0.00    +0.000 N 
ATOM      4  C   UNL     1       4.632   6.352  16.500  0.00  0.00    +0.000 C 
ENDROOT
BRANCH   1   8
ATOM      5  C   UNL     1       1.790   3.840  19.556  0.00  0.00    +0.000 A 
ATOM      6  C   UNL     1       1.295   3.935  18.275  0.00  0.00    +0.000 A 
ATOM      7  C   UNL     1       2.404   4.040  17.394  0.00  0.00    +0.000 A 
ATOM      8  C   UNL     1       3.562   4.091  18.150  0.00  0.00    +0.000 A 
ATOM      9  N   UNL     1       3.159   3.904  19.462  0.00  0.00    +0.000 N 
ATOM     10  H   UNL     1       3.810   3.835  20.236  0.00  0.00    +0.000 HD
BRANCH   5  12
ATOM     11  C   UNL     1       1.806   2.682  21.775  0.00  0.00    +0.000 C 
ATOM     12  C   UNL     1       1.081   3.653  20.857  0.00  0.00    +0.000 C 
ENDBRANCH   5  12
ENDBRANCH   1   8
BRANCH   3  13
ATOM     13  C   UNL     1       6.863   5.293  16.687  0.00  0.00    +0.000 C 
BRANCH  13  14
ATOM     14  C   UNL     1       7.016   4.949  15.244  0.00  0.00    +0.000 A 
ATOM     15  C   UNL     1       6.304   3.966  14.520  0.00  0.00    +0.000 A 
ATOM     16  C   UNL     1       6.707   4.142  13.220  0.00  0.00    +0.000 A 
ATOM     17  O   UNL     1       7.675   5.099  13.178  0.00  0.00    +0.000 OA
ATOM     18  N   UNL     1       7.878   5.606  14.453  0.00  0.00    +0.000 NA
BRANCH  16  19
ATOM     19  C   UNL     1       6.242   3.594  11.916  0.00  0.00    +0.000 C 
ATOM     20  C   UNL     1       7.007   2.332  11.526  0.00  0.00    +0.000 C 
ATOM     21  C   UNL     1       4.739   3.313  11.991  0.00  0.00    +0.000 C 
ENDBRANCH  16  19
ENDBRANCH  13  14
ENDBRANCH   3  13
TORSDOF 5
ENDMDL
