MODEL 1
REMARK VINA RESULT:      -7.5      0.000      0.000
REMARK  Name = 
REMARK  7 active torsions:
REMARK  status: ('A' for Active; 'I' for Inactive)
REMARK    1  A    between atoms: C_1  and  N_2
REMARK    2  A    between atoms: N_2  and  C_3
REMARK    3  A    between atoms: N_2  and  C_4
REMARK    4  A    between atoms: C_7  and  C_8
REMARK    5  A    between atoms: C_11  and  C_12
REMARK    6  A    between atoms: C_12  and  O_13
REMARK    7  A    between atoms: C_12  and  C_14
REMARK                            x       y       z     vdW  Elec       q    Type
REMARK                         _______ _______ _______ _____ _____    ______ ____
ROOT
ATOM      1  C   UNL     1       2.334   6.330  19.806  0.00  0.00    +0.000 A 
ATOM      2  C   UNL     1       1.681   5.458  20.656  0.00  0.00    +0.000 A 
ATOM      3  S   UNL     1       2.473   3.942  20.675  0.00  0.00    +0.000 S 
ATOM      4  C   UNL     1       3.622   4.544  19.543  0.00  0.00    +0.000 A 
ATOM      5  N   UNL     1       3.431   5.791  19.147  0.00  0.00    +0.000 NA
ENDROOT
BRANCH   1   9
ATOM      6  C   UNL     1       1.023  10.389  19.130  0.00  0.00    +0.000 A 
ATOM      7  C   UNL     1       0.861   9.756  20.370  0.00  0.00    +0.000 A 
ATOM      8  C   UNL     1       1.287   8.441  20.600  0.00  0.00    +0.000 A 
ATOM      9  C   UNL     1       1.912   7.706  19.591  0.00  0.00    +0.000 A 
ATOM     10  C   UNL     1       2.129   8.329  18.362  0.00  0.00    +0.000 A 
ATOM     11  C   UNL     1       1.688   9.644  18.141  0.00  0.00    +0.000 A 
BRANCH   6  13
ATOM     12  C   UNL     1      -0.821  11.922  18.524  0.00  0.00    +0.000 C 
ATOM     13  N   UNL     1       0.570  11.688  18.896  0.00  0.00    +0.000 N 
ATOM     14  C   UNL     1       1.532  12.735  18.570  0.00  0.00    +0.000 C 
ENDBRANCH   6  13
ENDBRANCH   1   9
BRANCH   4  15
ATOM     15  C   UNL     1       4.757   3.659  19.088  0.00  0.00    +0.000 C 
BRANCH  15  16
ATOM     16  C   UNL     1       5.550   4.242  17.935  0.00  0.00    +0.000 A 
ATOM     17  C   UNL     1       6.645   5.097  18.157  0.00  0.00    +0.000 A 
ATOM     18  C   UNL     1       7.366   5.626  17.082  0.00  0.00    +0.000 A 
ATOM     19  C   UNL     1       7.000   5.312  15.777  0.00  0.00    +0.000 A 
ATOM     20  C   UNL     1       5.917   4.466  15.546  0.00  0.00    +0.000 A 
ATOM     21 CL   UNL     1       5.466   4.075  13.934  0.00  0.00    +0.000 Cl
ATOM     22  C   UNL     1       5.194   3.935  16.615  0.00  0.00    +0.000 A 
ENDBRANCH  15  16
BRANCH  15  23
ATOM     23  O   UNL     1       4.221   2.397  18.674  0.00  0.00    +0.000 OA
ATOM     24  H   UNL     1       3.621   2.599  17.932  0.00  0.00    +0.000 HD
ENDBRANCH  15  23
ENDBRANCH   4  15
TORSDOF 5
ENDMDL
MODEL 2
REMARK VINA RESULT:      -7.5      0.145      1.006
REMARK  Name = 
REMARK  7 active torsions:
REMARK  status: ('A' for Active; 'I' for Inactive)
REMARK    1  A    between atoms: C_1  and  N_2
REMARK    2  A    between atoms: N_2  and  C_3
REMARK    3  A    between atoms: N_2  and  C_4
REMARK    4  A    between atoms: C_7  and  C_8
REMARK    5  A    between atoms: C_11  and  C_12
REMARK    6  A    between atoms: C_12  and  O_13
REMARK    7  A    between atoms: C_12  and  C_14
REMARK                            x       y       z     vdW  Elec       q    Type
REMARK                         _______ _______ _______ _____ _____    ______ ____
ROOT
ATOM      1  C   UNL     1       2.300   6.398  19.843  0.00  0.00    +0.000 A 
ATOM      2  C   UNL     1       1.659   5.558  20.734  0.00  0.00    +0.000 A 
ATOM      3  S   UNL     1       2.450   4.043  20.797  0.00  0.00    +0.000 S 
ATOM      4  C   UNL     1       3.582   4.601  19.627  0.00  0.00    +0.000 A 
ATOM      5  N   UNL     1       3.386   5.834  19.188  0.00  0.00    +0.000 NA
ENDROOT
BRANCH   1   9
ATOM      6  C   UNL     1       1.099  10.482  19.113  0.00  0.00    +0.000 A 
ATOM      7  C   UNL     1       1.693   9.695  18.116  0.00  0.00    +0.000 A 
ATOM      8  C   UNL     1       2.082   8.368  18.343  0.00  0.00    +0.000 A 
ATOM      9  C   UNL     1       1.876   7.765  19.584  0.00  0.00    +0.000 A 
ATOM     10  C   UNL     1       1.243   8.510  20.580  0.00  0.00    +0.000 A 
ATOM     11  C   UNL     1       0.866   9.843  20.344  0.00  0.00    +0.000 A 
BRANCH   6  13
ATOM     12  C   UNL     1      -0.647  12.157  18.603  0.00  0.00    +0.000 C 
ATOM     13  N   UNL     1       0.741  11.812  18.892  0.00  0.00    +0.000 N 
ATOM     14  C   UNL     1       1.763  12.774  18.496  0.00  0.00    +0.000 C 
ENDBRANCH   6  13
ENDBRANCH   1   9
BRANCH   4  15
ATOM     15  C   UNL     1       4.710   3.699  19.188  0.00  0.00    +0.000 C 
BRANCH  15  16
ATOM     16  C   UNL     1       5.537   4.276  18.056  0.00  0.00    +0.000 A 
ATOM     17  C   UNL     1       6.647   5.104  18.306  0.00  0.00    +0.000 A 
ATOM     18  C   UNL     1       7.398   5.628  17.249  0.00  0.00    +0.000 A 
ATOM     19  C   UNL     1       7.050   5.334  15.935  0.00  0.00    +0.000 A 
ATOM     20  C   UNL     1       5.952   4.515  15.677  0.00  0.00    +0.000 A 
ATOM     21 CL   UNL     1       5.521   4.150  14.052  0.00  0.00    +0.000 Cl
ATOM     22  C   UNL     1       5.198   3.990  16.726  0.00  0.00    +0.000 A 
ENDBRANCH  15  16
BRANCH  15  23
ATOM     23  O   UNL     1       4.160   2.450  18.755  0.00  0.00    +0.000 OA
ATOM     24  H   UNL     1       3.642   2.118  19.511  0.00  0.00    +0.000 HD
ENDBRANCH  15  23
ENDBRANCH   4  15
TORSDOF 5
ENDMDL
MODEL 3
REMARK VINA RESULT:      -7.3      4.445      8.498
REMARK  Name = 
REMARK  7 active torsions:
REMARK  status: ('A' for Active; 'I' for Inactive)
REMARK    1  A    between atoms: C_1  and  N_2
REMARK    2  A    between atoms: N_2  and  C_3
REMARK    3  A    between atoms: N_2  and  C_4
REMARK    4  A    between atoms: C_7  and  C_8
REMARK    5  A    between atoms: C_11  and  C_12
REMARK    6  A    between atoms: C_12  and  O_13
REMARK    7  A    between atoms: C_12  and  C_14
REMARK                            x       y       z     vdW  Elec       q    Type
REMARK                         _______ _______ _______ _____ _____    ______ ____
ROOT
ATOM      1  C   UNL     1       1.522   8.060  20.295  0.00  0.00    +0.000 A 
ATOM      2  C   UNL     1       1.262   8.492  21.582  0.00  0.00    +0.000 A 
ATOM      3  S   UNL     1       0.564  10.053  21.555  0.00  0.00    +0.000 S 
ATOM      4  C   UNL     1       0.667  10.055  19.837  0.00  0.00    +0.000 A 
ATOM      5  N   UNL     1       1.206   8.973  19.298  0.00  0.00    +0.000 NA
ENDROOT
BRANCH   1   9
ATOM      6  C   UNL     1       3.166   4.179  19.353  0.00  0.00    +0.000 A 
ATOM      7  C   UNL     1       3.490   5.321  18.608  0.00  0.00    +0.000 A 
ATOM      8  C   UNL     1       2.965   6.585  18.908  0.00  0.00    +0.000 A 
ATOM      9  C   UNL     1       2.098   6.759  19.988  0.00  0.00    +0.000 A 
ATOM     10  C   UNL     1       1.796   5.649  20.776  0.00  0.00    +0.000 A 
ATOM     11  C   UNL     1       2.321   4.385  20.458  0.00  0.00    +0.000 A 
BRANCH   6  13
ATOM     12  C   UNL     1       3.060   2.140  17.957  0.00  0.00    +0.000 C 
ATOM     13  N   UNL     1       3.668   2.917  19.032  0.00  0.00    +0.000 N 
ATOM     14  C   UNL     1       4.455   2.187  20.019  0.00  0.00    +0.000 C 
ENDBRANCH   6  13
ENDBRANCH   1   9
BRANCH   4  15
ATOM     15  C   UNL     1       0.143  11.236  19.057  0.00  0.00    +0.000 C 
BRANCH  15  16
ATOM     16  C   UNL     1      -1.241  11.012  18.483  0.00  0.00    +0.000 A 
ATOM     17  C   UNL     1      -1.464  10.090  17.443  0.00  0.00    +0.000 A 
ATOM     18  C   UNL     1      -2.749   9.896  16.926  0.00  0.00    +0.000 A 
ATOM     19  C   UNL     1      -3.822  10.620  17.436  0.00  0.00    +0.000 A 
ATOM     20  C   UNL     1      -3.611  11.536  18.466  0.00  0.00    +0.000 A 
ATOM     21 CL   UNL     1      -4.937  12.430  19.099  0.00  0.00    +0.000 Cl
ATOM     22  C   UNL     1      -2.332  11.734  18.987  0.00  0.00    +0.000 A 
ENDBRANCH  15  16
BRANCH  15  23
ATOM     23  O   UNL     1       1.042  11.510  17.976  0.00  0.00    +0.000 OA
ATOM     24  H   UNL     1       1.580  12.268  18.271  0.00  0.00    +0.000 HD
ENDBRANCH  15  23
ENDBRANCH   4  15
TORSDOF 5
ENDMDL
MODEL 4
REMARK VINA RESULT:      -7.3      5.160      6.582
REMARK  Name = 
REMARK  7 active torsions:
REMARK  status: ('A' for Active; 'I' for Inactive)
REMARK    1  A    between atoms: C_1  and  N_2
REMARK    2  A    between atoms: N_2  and  C_3
REMARK    3  A    between atoms: N_2  and  C_4
REMARK    4  A    between atoms: C_7  and  C_8
REMARK    5  A    between atoms: C_11  and  C_12
REMARK    6  A    between atoms: C_12  and  O_13
REMARK    7  A    between atoms: C_12  and  C_14
REMARK                            x       y       z     vdW  Elec       q    Type
REMARK                         _______ _______ _______ _____ _____    ______ ____
ROOT
ATOM      1  C   UNL     1       8.029   8.357  18.168  0.00  0.00    +0.000 A 
ATOM      2  C   UNL     1       8.406   7.265  18.926  0.00  0.00    +0.000 A 
ATOM      3  S   UNL     1       7.569   5.866  18.410  0.00  0.00    +0.000 S 
ATOM      4  C   UNL     1       6.752   6.809  17.224  0.00  0.00    +0.000 A 
ATOM      5  N   UNL     1       7.056   8.096  17.212  0.00  0.00    +0.000 NA
ENDROOT
BRANCH   1   9
ATOM      6  C   UNL     1       9.607  12.335  18.749  0.00  0.00    +0.000 A 
ATOM      7  C   UNL     1      10.012  11.255  19.545  0.00  0.00    +0.000 A 
ATOM      8  C   UNL     1       9.508   9.960  19.361  0.00  0.00    +0.000 A 
ATOM      9  C   UNL     1       8.582   9.690  18.353  0.00  0.00    +0.000 A 
ATOM     10  C   UNL     1       8.198  10.738  17.516  0.00  0.00    +0.000 A 
ATOM     11  C   UNL     1       8.702  12.034  17.716  0.00  0.00    +0.000 A 
BRANCH   6  13
ATOM     12  C   UNL     1       9.641  14.401  20.109  0.00  0.00    +0.000 C 
ATOM     13  N   UNL     1      10.088  13.629  18.955  0.00  0.00    +0.000 N 
ATOM     14  C   UNL     1      10.645  14.373  17.831  0.00  0.00    +0.000 C 
ENDBRANCH   6  13
ENDBRANCH   1   9
BRANCH   4  15
ATOM     15  C   UNL     1       5.778   6.144  16.282  0.00  0.00    +0.000 C 
BRANCH  15  16
ATOM     16  C   UNL     1       4.500   5.691  16.957  0.00  0.00    +0.000 A 
ATOM     17  C   UNL     1       3.657   6.602  17.619  0.00  0.00    +0.000 A 
ATOM     18  C   UNL     1       2.481   6.166  18.238  0.00  0.00    +0.000 A 
ATOM     19  C   UNL     1       2.136   4.819  18.206  0.00  0.00    +0.000 A 
ATOM     20  C   UNL     1       2.964   3.908  17.553  0.00  0.00    +0.000 A 
ATOM     21 CL   UNL     1       2.538   2.242  17.511  0.00  0.00    +0.000 Cl
ATOM     22  C   UNL     1       4.139   4.336  16.934  0.00  0.00    +0.000 A 
ENDBRANCH  15  16
BRANCH  15  23
ATOM     23  O   UNL     1       6.411   5.000  15.696  0.00  0.00    +0.000 OA
ATOM     24  H   UNL     1       7.331   5.271  15.525  0.00  0.00    +0.000 HD
ENDBRANCH  15  23
ENDBRANCH   4  15
TORSDOF 5
ENDMDL
MODEL 5
REMARK VINA RESULT:      -7.3      2.290      3.280
REMARK  Name = 
REMARK  7 active torsions:
REMARK  status: ('A' for Active; 'I' for Inactive)
REMARK    1  A    between atoms: C_1  and  N_2
REMARK    2  A    between atoms: N_2  and  C_3
REMARK    3  A    between atoms: N_2  and  C_4
REMARK    4  A    between atoms: C_7  and  C_8
REMARK    5  A    between atoms: C_11  and  C_12
REMARK    6  A    between atoms: C_12  and  O_13
REMARK    7  A    between atoms: C_12  and  C_14
REMARK                            x       y       z     vdW  Elec       q    Type
REMARK                         _______ _______ _______ _____ _____    ______ ____
ROOT
ATOM      1  C   UNL     1       3.817   5.991  17.676  0.00  0.00    +0.000 A 
ATOM      2  C   UNL     1       3.448   4.663  17.579  0.00  0.00    +0.000 A 
ATOM      3  S   UNL     1       4.706   3.747  16.869  0.00  0.00    +0.000 S 
ATOM      4  C   UNL     1       5.649   5.180  16.726  0.00  0.00    +0.000 A 
ATOM      5  N   UNL     1       5.070   6.288  17.157  0.00  0.00    +0.000 NA
ENDROOT
BRANCH   1   9
ATOM      6  C   UNL     1       1.349   9.067  19.438  0.00  0.00    +0.000 A 
ATOM      7  C   UNL     1       1.793   9.144  18.111  0.00  0.00    +0.000 A 
ATOM      8  C   UNL     1       2.591   8.149  17.529  0.00  0.00    +0.000 A 
ATOM      9  C   UNL     1       2.965   7.019  18.257  0.00  0.00    +0.000 A 
ATOM     10  C   UNL     1       2.497   6.893  19.564  0.00  0.00    +0.000 A 
ATOM     11  C   UNL     1       1.706   7.901  20.140  0.00  0.00    +0.000 A 
BRANCH   6  13
ATOM     12  C   UNL     1       0.465  10.156  21.475  0.00  0.00    +0.000 C 
ATOM     13  N   UNL     1       0.580  10.073  20.022  0.00  0.00    +0.000 N 
ATOM     14  C   UNL     1      -0.452  10.737  19.234  0.00  0.00    +0.000 C 
ENDBRANCH   6  13
ENDBRANCH   1   9
BRANCH   4  15
ATOM     15  C   UNL     1       7.044   5.103  16.154  0.00  0.00    +0.000 C 
BRANCH  15  16
ATOM     16  C   UNL     1       7.068   4.876  14.656  0.00  0.00    +0.000 A 
ATOM     17  C   UNL     1       7.918   5.618  13.815  0.00  0.00    +0.000 A 
ATOM     18  C   UNL     1       7.928   5.395  12.434  0.00  0.00    +0.000 A 
ATOM     19  C   UNL     1       7.089   4.434  11.878  0.00  0.00    +0.000 A 
ATOM     20  C   UNL     1       6.243   3.694  12.703  0.00  0.00    +0.000 A 
ATOM     21 CL   UNL     1       5.208   2.504  12.017  0.00  0.00    +0.000 Cl
ATOM     22  C   UNL     1       6.229   3.911  14.081  0.00  0.00    +0.000 A 
ENDBRANCH  15  16
BRANCH  15  23
ATOM     23  O   UNL     1       7.743   4.024  16.786  0.00  0.00    +0.000 OA
ATOM     24  H   UNL     1       8.689   4.196  16.622  0.00  0.00    +0.000 HD
ENDBRANCH  15  23
ENDBRANCH   4  15
TORSDOF 5
ENDMDL
MODEL 6
REMARK VINA RESULT:      -7.2      1.242      1.578
REMARK  Name = 
REMARK  7 active torsions:
REMARK  status: ('A' for Active; 'I' for Inactive)
REMARK    1  A    between atoms: C_1  and  N_2
REMARK    2  A    between atoms: N_2  and  C_3
REMARK    3  A    between atoms: N_2  and  C_4
REMARK    4  A    between atoms: C_7  and  C_8
REMARK    5  A    between atoms: C_11  and  C_12
REMARK    6  A    between atoms: C_12  and  O_13
REMARK    7  A    between atoms: C_12  and  C_14
REMARK                            x       y       z     vdW  Elec       q    Type
REMARK                         _______ _______ _______ _____ _____    ______ ____
ROOT
ATOM      1  C   UNL     1       2.301   6.168  19.963  0.00  0.00    +0.000 A 
ATOM      2  C   UNL     1       1.694   5.213  20.755  0.00  0.00    +0.000 A 
ATOM      3  S   UNL     1       2.522   3.722  20.628  0.00  0.00    +0.000 S 
ATOM      4  C   UNL     1       3.622   4.443  19.519  0.00  0.00    +0.000 A 
ATOM      5  N   UNL     1       3.390   5.714  19.232  0.00  0.00    +0.000 NA
ENDROOT
BRANCH   1   9
ATOM      6  C   UNL     1       0.872  10.233  19.661  0.00  0.00    +0.000 A 
ATOM      7  C   UNL     1       0.791   9.507  20.858  0.00  0.00    +0.000 A 
ATOM      8  C   UNL     1       1.256   8.189  20.966  0.00  0.00    +0.000 A 
ATOM      9  C   UNL     1       1.840   7.546  19.874  0.00  0.00    +0.000 A 
ATOM     10  C   UNL     1       1.976   8.261  18.685  0.00  0.00    +0.000 A 
ATOM     11  C   UNL     1       1.498   9.579  18.585  0.00  0.00    +0.000 A 
BRANCH   6  13
ATOM     12  C   UNL     1      -0.725  11.823  18.643  0.00  0.00    +0.000 C 
ATOM     13  N   UNL     1       0.381  11.534  19.549  0.00  0.00    +0.000 N 
ATOM     14  C   UNL     1       1.223  12.655  19.950  0.00  0.00    +0.000 C 
ENDBRANCH   6  13
ENDBRANCH   1   9
BRANCH   4  15
ATOM     15  C   UNL     1       4.765   3.629  18.962  0.00  0.00    +0.000 C 
BRANCH  15  16
ATOM     16  C   UNL     1       5.516   4.329  17.848  0.00  0.00    +0.000 A 
ATOM     17  C   UNL     1       5.502   3.836  16.530  0.00  0.00    +0.000 A 
ATOM     18  C   UNL     1       6.202   4.495  15.514  0.00  0.00    +0.000 A 
ATOM     19  C   UNL     1       6.924   5.649  15.802  0.00  0.00    +0.000 A 
ATOM     20  C   UNL     1       6.944   6.146  17.103  0.00  0.00    +0.000 A 
ATOM     21 CL   UNL     1       7.834   7.574  17.460  0.00  0.00    +0.000 Cl
ATOM     22  C   UNL     1       6.248   5.493  18.122  0.00  0.00    +0.000 A 
ENDBRANCH  15  16
BRANCH  15  23
ATOM     23  O   UNL     1       4.246   2.395  18.451  0.00  0.00    +0.000 OA
ATOM     24  H   UNL     1       3.458   2.201  18.991  0.00  0.00    +0.000 HD
ENDBRANCH  15  23
ENDBRANCH   4  15
TORSDOF 5
ENDMDL
MODEL 7
REMARK VINA RESULT:      -7.2      1.578      2.116
REMARK  Name = 
REMARK  7 active torsions:
REMARK  status: ('A' for Active; 'I' for Inactive)
REMARK    1  A    between atoms: C_1  and  N_2
REMARK    2  A    between atoms: N_2  and  C_3
REMARK    3  A    between atoms: N_2  and  C_4
REMARK    4  A    between atoms: C_7  and  C_8
REMARK    5  A    between atoms: C_11  and  C_12
REMARK    6  A    between atoms: C_12  and  O_13
REMARK    7  A    between atoms: C_12  and  C_14
REMARK                            x       y       z     vdW  Elec       q    Type
REMARK                         _______ _______ _______ _____ _____    ______ ____
ROOT
ATOM      1  C   UNL     1       2.002   6.819  19.522  0.00  0.00    +0.000 A 
ATOM      2  C   UNL     1       1.725   6.152  20.700  0.00  0.00    +0.000 A 
ATOM      3  S   UNL     1       2.226   4.520  20.591  0.00  0.00    +0.000 S 
ATOM      4  C   UNL     1       2.764   4.807  18.982  0.00  0.00    +0.000 A 
ATOM      5  N   UNL     1       2.571   6.034  18.528  0.00  0.00    +0.000 NA
ENDROOT
BRANCH   1   9
ATOM      6  C   UNL     1       1.198  11.022  18.942  0.00  0.00    +0.000 A 
ATOM      7  C   UNL     1       1.760  10.230  17.931  0.00  0.00    +0.000 A 
ATOM      8  C   UNL     1       2.021   8.864  18.109  0.00  0.00    +0.000 A 
ATOM      9  C   UNL     1       1.711   8.229  19.313  0.00  0.00    +0.000 A 
ATOM     10  C   UNL     1       1.106   8.983  20.318  0.00  0.00    +0.000 A 
ATOM     11  C   UNL     1       0.859  10.354  20.132  0.00  0.00    +0.000 A 
BRANCH   6  13
ATOM     12  C   UNL     1      -0.382  12.875  18.508  0.00  0.00    +0.000 C 
ATOM     13  N   UNL     1       0.968  12.388  18.771  0.00  0.00    +0.000 N 
ATOM     14  C   UNL     1       2.076  13.260  18.398  0.00  0.00    +0.000 C 
ENDBRANCH   6  13
ENDBRANCH   1   9
BRANCH   4  15
ATOM     15  C   UNL     1       3.420   3.693  18.203  0.00  0.00    +0.000 C 
BRANCH  15  16
ATOM     16  C   UNL     1       4.797   4.052  17.683  0.00  0.00    +0.000 A 
ATOM     17  C   UNL     1       5.157   3.826  16.342  0.00  0.00    +0.000 A 
ATOM     18  C   UNL     1       6.434   4.163  15.880  0.00  0.00    +0.000 A 
ATOM     19  C   UNL     1       7.363   4.724  16.749  0.00  0.00    +0.000 A 
ATOM     20  C   UNL     1       7.017   4.952  18.079  0.00  0.00    +0.000 A 
ATOM     21 CL   UNL     1       8.164   5.648  19.155  0.00  0.00    +0.000 Cl
ATOM     22  C   UNL     1       5.745   4.618  18.547  0.00  0.00    +0.000 A 
ENDBRANCH  15  16
BRANCH  15  23
ATOM     23  O   UNL     1       2.588   3.360  17.085  0.00  0.00    +0.000 OA
ATOM     24  H   UNL     1       1.792   2.947  17.467  0.00  0.00    +0.000 HD
ENDBRANCH  15  23
ENDBRANCH   4  15
TORSDOF 5
ENDMDL
MODEL 8
REMARK VINA RESULT:      -7.2      1.527      1.948
REMARK  Name = 
REMARK  7 active torsions:
REMARK  status: ('A' for Active; 'I' for Inactive)
REMARK    1  A    between atoms: C_1  and  N_2
REMARK    2  A    between atoms: N_2  and  C_3
REMARK    3  A    between atoms: N_2  and  C_4
REMARK    4  A    between atoms: C_7  and  C_8
REMARK    5  A    between atoms: C_11  and  C_12
REMARK    6  A    between atoms: C_12  and  O_13
REMARK    7  A    between atoms: C_12  and  C_14
REMARK                            x       y       z     vdW  Elec       q    Type
REMARK                         _______ _______ _______ _____ _____    ______ ____
ROOT
ATOM      1  C   UNL     1       1.989   6.607  19.629  0.00  0.00    +0.000 A 
ATOM      2  C   UNL     1       1.759   5.880  20.781  0.00  0.00    +0.000 A 
ATOM      3  S   UNL     1       2.257   4.257  20.568  0.00  0.00    +0.000 S 
ATOM      4  C   UNL     1       2.732   4.629  18.956  0.00  0.00    +0.000 A 
ATOM      5  N   UNL     1       2.520   5.877  18.574  0.00  0.00    +0.000 NA
ENDROOT
BRANCH   1   9
ATOM      6  C   UNL     1       1.038  10.800  19.217  0.00  0.00    +0.000 A 
ATOM      7  C   UNL     1       0.811  10.104  20.413  0.00  0.00    +0.000 A 
ATOM      8  C   UNL     1       1.121   8.744  20.557  0.00  0.00    +0.000 A 
ATOM      9  C   UNL     1       1.689   8.026  19.504  0.00  0.00    +0.000 A 
ATOM     10  C   UNL     1       1.970   8.706  18.319  0.00  0.00    +0.000 A 
ATOM     11  C   UNL     1       1.646  10.067  18.183  0.00  0.00    +0.000 A 
BRANCH   6  13
ATOM     12  C   UNL     1       1.403  13.166  19.840  0.00  0.00    +0.000 C 
ATOM     13  N   UNL     1       0.701  12.146  19.068  0.00  0.00    +0.000 N 
ATOM     14  C   UNL     1      -0.605  12.502  18.527  0.00  0.00    +0.000 C 
ENDBRANCH   6  13
ENDBRANCH   1   9
BRANCH   4  15
ATOM     15  C   UNL     1       3.358   3.558  18.096  0.00  0.00    +0.000 C 
BRANCH  15  16
ATOM     16  C   UNL     1       4.721   3.941  17.555  0.00  0.00    +0.000 A 
ATOM     17  C   UNL     1       5.055   3.744  16.203  0.00  0.00    +0.000 A 
ATOM     18  C   UNL     1       6.318   4.103  15.721  0.00  0.00    +0.000 A 
ATOM     19  C   UNL     1       7.260   4.659  16.581  0.00  0.00    +0.000 A 
ATOM     20  C   UNL     1       6.938   4.858  17.923  0.00  0.00    +0.000 A 
ATOM     21 CL   UNL     1       8.101   5.546  18.987  0.00  0.00    +0.000 Cl
ATOM     22  C   UNL     1       5.680   4.502  18.410  0.00  0.00    +0.000 A 
ENDBRANCH  15  16
BRANCH  15  23
ATOM     23  O   UNL     1       2.491   3.291  16.988  0.00  0.00    +0.000 OA
ATOM     24  H   UNL     1       2.107   2.412  17.164  0.00  0.00    +0.000 HD
ENDBRANCH  15  23
ENDBRANCH   4  15
TORSDOF 5
ENDMDL
MODEL 9
REMARK VINA RESULT:      -7.2      1.569      2.160
REMARK  Name = 
REMARK  7 active torsions:
REMARK  status: ('A' for Active; 'I' for Inactive)
REMARK    1  A    between atoms: C_1  and  N_2
REMARK    2  A    between atoms: N_2  and  C_3
REMARK    3  A    between atoms: N_2  and  C_4
REMARK    4  A    between atoms: C_7  and  C_8
REMARK    5  A    between atoms: C_11  and  C_12
REMARK    6  A    between atoms: C_12  and  O_13
REMARK    7  A    between atoms: C_12  and  C_14
REMARK                            x       y       z     vdW  Elec       q    Type
REMARK                         _______ _______ _______ _____ _____    ______ ____
ROOT
ATOM      1  C   UNL     1       2.198   6.196  20.104  0.00  0.00    +0.000 A 
ATOM      2  C   UNL     1       1.515   5.189  20.757  0.00  0.00    +0.000 A 
ATOM      3  S   UNL     1       2.372   3.714  20.635  0.00  0.00    +0.000 S 
ATOM      4  C   UNL     1       3.586   4.511  19.712  0.00  0.00    +0.000 A 
ATOM      5  N   UNL     1       3.372   5.796  19.480  0.00  0.00    +0.000 NA
ENDROOT
BRANCH   1   9
ATOM      6  C   UNL     1       0.878  10.307  19.975  0.00  0.00    +0.000 A 
ATOM      7  C   UNL     1       1.417   9.667  18.850  0.00  0.00    +0.000 A 
ATOM      8  C   UNL     1       1.844   8.332  18.882  0.00  0.00    +0.000 A 
ATOM      9  C   UNL     1       1.733   7.574  20.048  0.00  0.00    +0.000 A 
ATOM     10  C   UNL     1       1.156   8.172  21.169  0.00  0.00    +0.000 A 
ATOM     11  C   UNL     1       0.741   9.514  21.128  0.00  0.00    +0.000 A 
BRANCH   6  13
ATOM     12  C   UNL     1       0.926  12.517  18.866  0.00  0.00    +0.000 C 
ATOM     13  N   UNL     1       0.482  11.644  19.948  0.00  0.00    +0.000 N 
ATOM     14  C   UNL     1       0.035  12.285  21.179  0.00  0.00    +0.000 C 
ENDBRANCH   6  13
ENDBRANCH   1   9
BRANCH   4  15
ATOM     15  C   UNL     1       4.796   3.741  19.244  0.00  0.00    +0.000 C 
BRANCH  15  16
ATOM     16  C   UNL     1       5.672   4.520  18.284  0.00  0.00    +0.000 A 
ATOM     17  C   UNL     1       5.676   4.242  16.904  0.00  0.00    +0.000 A 
ATOM     18  C   UNL     1       6.491   4.972  16.032  0.00  0.00    +0.000 A 
ATOM     19  C   UNL     1       7.311   5.982  16.526  0.00  0.00    +0.000 A 
ATOM     20  C   UNL     1       7.314   6.264  17.891  0.00  0.00    +0.000 A 
ATOM     21 CL   UNL     1       8.325   7.514  18.503  0.00  0.00    +0.000 Cl
ATOM     22  C   UNL     1       6.504   5.540  18.766  0.00  0.00    +0.000 A 
ENDBRANCH  15  16
BRANCH  15  23
ATOM     23  O   UNL     1       4.357   2.546  18.587  0.00  0.00    +0.000 OA
ATOM     24  H   UNL     1       5.170   2.049  18.380  0.00  0.00    +0.000 HD
ENDBRANCH  15  23
ENDBRANCH   4  15
TORSDOF 5
ENDMDL
