MODEL 1
REMARK VINA RESULT:      -8.7      0.000      0.000
REMARK  Name = 
REMARK  7 active torsions:
REMARK  status: ('A' for Active; 'I' for Inactive)
REMARK    1  A    between atoms: C_2  and  C_3
REMARK    2  A    between atoms: C_3  and  C_4
REMARK    3  A    between atoms: C_6  and  C_7
REMARK    4  A    between atoms: N_9  and  C_10
REMARK    5  A    between atoms: C_14  and  C_15
REMARK    6  A    between atoms: C_21  and  C_22
REMARK    7  A    between atoms: C_29  and  C_30
REMARK                            x       y       z     vdW  Elec       q    Type
REMARK                         _______ _______ _______ _____ _____    ______ ____
ROOT
ATOM      1  C   UNL     1       1.612   9.614  18.117  0.00  0.00    +0.000 C 
ATOM      2  O   UNL     1       2.159  10.333  17.285  0.00  0.00    +0.000 OA
ATOM      3  N   UNL     1       0.454   9.962  18.759  0.00  0.00    +0.000 N 
ATOM      4  H   UNL     1      -0.017   9.287  19.359  0.00  0.00    +0.000 HD
ENDROOT
BRANCH   3   5
ATOM      5  C   UNL     1      -0.183  11.250  18.558  0.00  0.00    +0.000 C 
ATOM      6  C   UNL     1      -1.683  11.126  18.519  0.00  0.00    +0.000 A 
ATOM      7  C   UNL     1      -2.301  10.150  17.719  0.00  0.00    +0.000 A 
ATOM      8  C   UNL     1      -3.685  10.114  17.573  0.00  0.00    +0.000 A 
ATOM      9  C   UNL     1      -4.481  11.062  18.211  0.00  0.00    +0.000 A 
ATOM     10  C   UNL     1      -5.967  11.064  17.990  0.00  0.00    +0.000 C 
ATOM     11  C   UNL     1      -3.873  12.028  19.033  0.00  0.00    +0.000 A 
ATOM     12  C   UNL     1      -2.479  12.058  19.184  0.00  0.00    +0.000 A 
ATOM     13  O   UNL     1      -1.971  13.056  19.990  0.00  0.00    +0.000 OA
ATOM     14  C   UNL     1      -0.611  13.105  20.207  0.00  0.00    +0.000 A 
ATOM     15  C   UNL     1      -0.150  14.098  21.084  0.00  0.00    +0.000 A 
ATOM     16  C   UNL     1       1.222  14.244  21.345  0.00  0.00    +0.000 A 
ATOM     17  C   UNL     1       1.748  15.314  22.255  0.00  0.00    +0.000 C 
ATOM     18  C   UNL     1       2.125  13.376  20.724  0.00  0.00    +0.000 A 
ATOM     19  C   UNL     1       1.669  12.394  19.848  0.00  0.00    +0.000 A 
ATOM     20  C   UNL     1       0.296  12.246  19.583  0.00  0.00    +0.000 A 
ENDBRANCH   3   5
BRANCH   1  23
ATOM     21  C   UNL     1       3.666   6.418  17.911  0.00  0.00    +0.000 A 
ATOM     22  C   UNL     1       3.000   7.682  17.620  0.00  0.00    +0.000 A 
ATOM     23  C   UNL     1       2.200   8.303  18.508  0.00  0.00    +0.000 A 
ATOM     24  C   UNL     1       1.986   7.657  19.828  0.00  0.00    +0.000 A 
ATOM     25  O   UNL     1       1.298   8.166  20.708  0.00  0.00    +0.000 OA
ATOM     26  N   UNL     1       2.607   6.450  20.022  0.00  0.00    +0.000 N 
ATOM     27  C   UNL     1       3.438   5.819  19.103  0.00  0.00    +0.000 A 
ATOM     28  H   UNL     1       2.450   6.015  20.927  0.00  0.00    +0.000 HD
BRANCH  27  29
ATOM     29  C   UNL     1       4.055   4.504  19.536  0.00  0.00    +0.000 C 
ATOM     30  F   UNL     1       5.396   4.630  19.729  0.00  0.00    +0.000 F 
ATOM     31  F   UNL     1       3.533   4.055  20.704  0.00  0.00    +0.000 F 
ATOM     32  F   UNL     1       3.884   3.526  18.611  0.00  0.00    +0.000 F 
ENDBRANCH  27  29
BRANCH  21  33
ATOM     33  C   UNL     1       4.557   5.858  16.819  0.00  0.00    +0.000 C 
BRANCH  33  35
ATOM     34  C   UNL     1       6.835   6.694  17.492  0.00  0.00    +0.000 C 
ATOM     35  C   UNL     1       5.807   6.673  16.633  0.00  0.00    +0.000 C 
ENDBRANCH  33  35
ENDBRANCH  21  33
ENDBRANCH   1  23
TORSDOF 5
ENDMDL
MODEL 2
REMARK VINA RESULT:      -8.3      2.217      2.906
REMARK  Name = 
REMARK  7 active torsions:
REMARK  status: ('A' for Active; 'I' for Inactive)
REMARK    1  A    between atoms: C_2  and  C_3
REMARK    2  A    between atoms: C_3  and  C_4
REMARK    3  A    between atoms: C_6  and  C_7
REMARK    4  A    between atoms: N_9  and  C_10
REMARK    5  A    between atoms: C_14  and  C_15
REMARK    6  A    between atoms: C_21  and  C_22
REMARK    7  A    between atoms: C_29  and  C_30
REMARK                            x       y       z     vdW  Elec       q    Type
REMARK                         _______ _______ _______ _____ _____    ______ ____
ROOT
ATOM      1  C   UNL     1       1.059   9.673  18.812  0.00  0.00    +0.000 C 
ATOM      2  O   UNL     1       0.278   9.827  17.877  0.00  0.00    +0.000 OA
ATOM      3  N   UNL     1       1.289  10.634  19.759  0.00  0.00    +0.000 N 
ATOM      4  H   UNL     1       1.862  10.419  20.572  0.00  0.00    +0.000 HD
ENDROOT
BRANCH   3   5
ATOM      5  C   UNL     1       0.677  11.948  19.690  0.00  0.00    +0.000 C 
ATOM      6  C   UNL     1      -0.114  12.256  20.933  0.00  0.00    +0.000 A 
ATOM      7  C   UNL     1      -1.028  11.322  21.451  0.00  0.00    +0.000 A 
ATOM      8  C   UNL     1      -1.860  11.649  22.519  0.00  0.00    +0.000 A 
ATOM      9  C   UNL     1      -1.807  12.922  23.083  0.00  0.00    +0.000 A 
ATOM     10  C   UNL     1      -2.758  13.292  24.186  0.00  0.00    +0.000 C 
ATOM     11  C   UNL     1      -0.879  13.854  22.586  0.00  0.00    +0.000 A 
ATOM     12  C   UNL     1      -0.038  13.521  21.515  0.00  0.00    +0.000 A 
ATOM     13  O   UNL     1       0.822  14.507  21.080  0.00  0.00    +0.000 OA
ATOM     14  C   UNL     1       1.701  14.219  20.059  0.00  0.00    +0.000 A 
ATOM     15  C   UNL     1       2.598  15.234  19.695  0.00  0.00    +0.000 A 
ATOM     16  C   UNL     1       3.511  15.043  18.647  0.00  0.00    +0.000 A 
ATOM     17  C   UNL     1       4.463  16.119  18.215  0.00  0.00    +0.000 C 
ATOM     18  C   UNL     1       3.521  13.818  17.972  0.00  0.00    +0.000 A 
ATOM     19  C   UNL     1       2.627  12.812  18.328  0.00  0.00    +0.000 A 
ATOM     20  C   UNL     1       1.709  13.000  19.378  0.00  0.00    +0.000 A 
ENDBRANCH   3   5
BRANCH   1  23
ATOM     21  C   UNL     1       3.514   6.878  18.011  0.00  0.00    +0.000 A 
ATOM     22  C   UNL     1       2.665   8.062  17.955  0.00  0.00    +0.000 A 
ATOM     23  C   UNL     1       1.843   8.416  18.962  0.00  0.00    +0.000 A 
ATOM     24  C   UNL     1       1.799   7.548  20.166  0.00  0.00    +0.000 A 
ATOM     25  O   UNL     1       1.102   7.808  21.142  0.00  0.00    +0.000 OA
ATOM     26  N   UNL     1       2.588   6.427  20.137  0.00  0.00    +0.000 N 
ATOM     27  C   UNL     1       3.442   6.073  19.098  0.00  0.00    +0.000 A 
ATOM     28  H   UNL     1       2.547   5.837  20.964  0.00  0.00    +0.000 HD
BRANCH  27  29
ATOM     29  C   UNL     1       4.256   4.810  19.287  0.00  0.00    +0.000 C 
ATOM     30  F   UNL     1       5.525   5.099  19.685  0.00  0.00    +0.000 F 
ATOM     31  F   UNL     1       3.726   3.997  20.233  0.00  0.00    +0.000 F 
ATOM     32  F   UNL     1       4.361   4.089  18.142  0.00  0.00    +0.000 F 
ENDBRANCH  27  29
BRANCH  21  33
ATOM     33  C   UNL     1       4.405   6.630  16.810  0.00  0.00    +0.000 C 
BRANCH  33  35
ATOM     34  C   UNL     1       6.898   6.331  17.010  0.00  0.00    +0.000 C 
ATOM     35  C   UNL     1       5.811   7.114  17.037  0.00  0.00    +0.000 C 
ENDBRANCH  33  35
ENDBRANCH  21  33
ENDBRANCH   1  23
TORSDOF 5
ENDMDL
MODEL 3
REMARK VINA RESULT:      -8.1      1.296      2.421
REMARK  Name = 
REMARK  7 active torsions:
REMARK  status: ('A' for Active; 'I' for Inactive)
REMARK    1  A    between atoms: C_2  and  C_3
REMARK    2  A    between atoms: C_3  and  C_4
REMARK    3  A    between atoms: C_6  and  C_7
REMARK    4  A    between atoms: N_9  and  C_10
REMARK    5  A    between atoms: C_14  and  C_15
REMARK    6  A    between atoms: C_21  and  C_22
REMARK    7  A    between atoms: C_29  and  C_30
REMARK                            x       y       z     vdW  Elec       q    Type
REMARK                         _______ _______ _______ _____ _____    ______ ____
ROOT
ATOM      1  C   UNL     1       1.085   9.521  19.253  0.00  0.00    +0.000 C 
ATOM      2  O   UNL     1       0.471   9.716  20.299  0.00  0.00    +0.000 OA
ATOM      3  N   UNL     1       1.076  10.403  18.206  0.00  0.00    +0.000 N 
ATOM      4  H   UNL     1       1.685  10.248  17.405  0.00  0.00    +0.000 HD
ENDROOT
BRANCH   3   5
ATOM      5  C   UNL     1       0.274  11.613  18.222  0.00  0.00    +0.000 C 
ATOM      6  C   UNL     1      -1.197  11.301  18.295  0.00  0.00    +0.000 A 
ATOM      7  C   UNL     1      -1.772  10.351  17.436  0.00  0.00    +0.000 A 
ATOM      8  C   UNL     1      -3.150  10.154  17.403  0.00  0.00    +0.000 A 
ATOM      9  C   UNL     1      -3.985  10.913  18.221  0.00  0.00    +0.000 A 
ATOM     10  C   UNL     1      -5.475  10.748  18.128  0.00  0.00    +0.000 C 
ATOM     11  C   UNL     1      -3.416  11.851  19.101  0.00  0.00    +0.000 A 
ATOM     12  C   UNL     1      -2.027  12.043  19.136  0.00  0.00    +0.000 A 
ATOM     13  O   UNL     1      -1.562  13.000  20.014  0.00  0.00    +0.000 OA
ATOM     14  C   UNL     1      -0.203  13.199  20.120  0.00  0.00    +0.000 A 
ATOM     15  C   UNL     1       0.223  14.138  21.071  0.00  0.00    +0.000 A 
ATOM     16  C   UNL     1       1.587  14.428  21.231  0.00  0.00    +0.000 A 
ATOM     17  C   UNL     1       2.072  15.447  22.219  0.00  0.00    +0.000 C 
ATOM     18  C   UNL     1       2.520  13.760  20.432  0.00  0.00    +0.000 A 
ATOM     19  C   UNL     1       2.098  12.833  19.483  0.00  0.00    +0.000 A 
ATOM     20  C   UNL     1       0.732  12.539  19.319  0.00  0.00    +0.000 A 
ENDBRANCH   3   5
BRANCH   1  23
ATOM     21  C   UNL     1       2.448   6.018  19.837  0.00  0.00    +0.000 A 
ATOM     22  C   UNL     1       1.761   7.297  19.962  0.00  0.00    +0.000 A 
ATOM     23  C   UNL     1       1.872   8.275  19.042  0.00  0.00    +0.000 A 
ATOM     24  C   UNL     1       2.745   8.032  17.865  0.00  0.00    +0.000 A 
ATOM     25  O   UNL     1       2.882   8.854  16.965  0.00  0.00    +0.000 OA
ATOM     26  N   UNL     1       3.396   6.826  17.831  0.00  0.00    +0.000 N 
ATOM     27  C   UNL     1       3.269   5.817  18.779  0.00  0.00    +0.000 A 
ATOM     28  H   UNL     1       3.994   6.672  17.023  0.00  0.00    +0.000 HD
BRANCH  27  29
ATOM     29  C   UNL     1       4.050   4.544  18.527  0.00  0.00    +0.000 C 
ATOM     30  F   UNL     1       4.989   4.727  17.559  0.00  0.00    +0.000 F 
ATOM     31  F   UNL     1       4.708   4.120  19.633  0.00  0.00    +0.000 F 
ATOM     32  F   UNL     1       3.255   3.526  18.111  0.00  0.00    +0.000 F 
ENDBRANCH  27  29
BRANCH  21  33
ATOM     33  C   UNL     1       2.199   5.008  20.941  0.00  0.00    +0.000 C 
BRANCH  33  35
ATOM     34  C   UNL     1       1.194   2.743  20.493  0.00  0.00    +0.000 C 
ATOM     35  C   UNL     1       1.070   4.072  20.610  0.00  0.00    +0.000 C 
ENDBRANCH  33  35
ENDBRANCH  21  33
ENDBRANCH   1  23
TORSDOF 5
ENDMDL
MODEL 4
REMARK VINA RESULT:      -8.0      1.750      4.845
REMARK  Name = 
REMARK  7 active torsions:
REMARK  status: ('A' for Active; 'I' for Inactive)
REMARK    1  A    between atoms: C_2  and  C_3
REMARK    2  A    between atoms: C_3  and  C_4
REMARK    3  A    between atoms: C_6  and  C_7
REMARK    4  A    between atoms: N_9  and  C_10
REMARK    5  A    between atoms: C_14  and  C_15
REMARK    6  A    between atoms: C_21  and  C_22
REMARK    7  A    between atoms: C_29  and  C_30
REMARK                            x       y       z     vdW  Elec       q    Type
REMARK                         _______ _______ _______ _____ _____    ______ ____
ROOT
ATOM      1  C   UNL     1       1.077   8.607  20.248  0.00  0.00    +0.000 C 
ATOM      2  O   UNL     1       0.452   8.547  21.303  0.00  0.00    +0.000 OA
ATOM      3  N   UNL     1       1.006   9.676  19.397  0.00  0.00    +0.000 N 
ATOM      4  H   UNL     1       1.624   9.726  18.589  0.00  0.00    +0.000 HD
ENDROOT
BRANCH   3   5
ATOM      5  C   UNL     1       0.123  10.802  19.643  0.00  0.00    +0.000 C 
ATOM      6  C   UNL     1       0.878  12.103  19.666  0.00  0.00    +0.000 A 
ATOM      7  C   UNL     1       2.055  12.236  20.424  0.00  0.00    +0.000 A 
ATOM      8  C   UNL     1       2.685  13.470  20.559  0.00  0.00    +0.000 A 
ATOM      9  C   UNL     1       2.145  14.603  19.952  0.00  0.00    +0.000 A 
ATOM     10  C   UNL     1       2.788  15.944  20.163  0.00  0.00    +0.000 C 
ATOM     11  C   UNL     1       0.981  14.474  19.173  0.00  0.00    +0.000 A 
ATOM     12  C   UNL     1       0.352  13.229  19.033  0.00  0.00    +0.000 A 
ATOM     13  O   UNL     1      -0.797  13.205  18.270  0.00  0.00    +0.000 OA
ATOM     14  C   UNL     1      -1.432  11.999  18.064  0.00  0.00    +0.000 A 
ATOM     15  C   UNL     1      -2.559  12.016  17.229  0.00  0.00    +0.000 A 
ATOM     16  C   UNL     1      -3.287  10.841  16.983  0.00  0.00    +0.000 A 
ATOM     17  C   UNL     1      -4.513  10.833  16.120  0.00  0.00    +0.000 C 
ATOM     18  C   UNL     1      -2.867   9.647  17.577  0.00  0.00    +0.000 A 
ATOM     19  C   UNL     1      -1.752   9.630  18.410  0.00  0.00    +0.000 A 
ATOM     20  C   UNL     1      -1.020  10.805  18.660  0.00  0.00    +0.000 A 
ENDBRANCH   3   5
BRANCH   1  23
ATOM     21  C   UNL     1       2.699   5.166  20.158  0.00  0.00    +0.000 A 
ATOM     22  C   UNL     1       1.923   6.345  20.524  0.00  0.00    +0.000 A 
ATOM     23  C   UNL     1       1.948   7.484  19.804  0.00  0.00    +0.000 A 
ATOM     24  C   UNL     1       2.815   7.531  18.599  0.00  0.00    +0.000 A 
ATOM     25  O   UNL     1       2.878   8.515  17.869  0.00  0.00    +0.000 OA
ATOM     26  N   UNL     1       3.551   6.404  18.336  0.00  0.00    +0.000 N 
ATOM     27  C   UNL     1       3.514   5.229  19.078  0.00  0.00    +0.000 A 
ATOM     28  H   UNL     1       4.145   6.448  17.512  0.00  0.00    +0.000 HD
BRANCH  27  29
ATOM     29  C   UNL     1       4.380   4.087  18.588  0.00  0.00    +0.000 C 
ATOM     30  F   UNL     1       5.132   4.464  17.519  0.00  0.00    +0.000 F 
ATOM     31  F   UNL     1       5.244   3.656  19.540  0.00  0.00    +0.000 F 
ATOM     32  F   UNL     1       3.645   3.017  18.191  0.00  0.00    +0.000 F 
ENDBRANCH  27  29
BRANCH  21  33
ATOM     33  C   UNL     1       2.542   3.952  21.053  0.00  0.00    +0.000 C 
BRANCH  33  35
ATOM     34  C   UNL     1       0.752   2.856  19.661  0.00  0.00    +0.000 C 
ATOM     35  C   UNL     1       1.222   3.263  20.849  0.00  0.00    +0.000 C 
ENDBRANCH  33  35
ENDBRANCH  21  33
ENDBRANCH   1  23
TORSDOF 5
ENDMDL
MODEL 5
REMARK VINA RESULT:      -8.0      1.398      4.275
REMARK  Name = 
REMARK  7 active torsions:
REMARK  status: ('A' for Active; 'I' for Inactive)
REMARK    1  A    between atoms: C_2  and  C_3
REMARK    2  A    between atoms: C_3  and  C_4
REMARK    3  A    between atoms: C_6  and  C_7
REMARK    4  A    between atoms: N_9  and  C_10
REMARK    5  A    between atoms: C_14  and  C_15
REMARK    6  A    between atoms: C_21  and  C_22
REMARK    7  A    between atoms: C_29  and  C_30
REMARK                            x       y       z     vdW  Elec       q    Type
REMARK                         _______ _______ _______ _____ _____    ______ ____
ROOT
ATOM      1  C   UNL     1       1.453   9.189  18.552  0.00  0.00    +0.000 C 
ATOM      2  O   UNL     1       1.530   9.863  17.528  0.00  0.00    +0.000 OA
ATOM      3  N   UNL     1       0.625   9.506  19.594  0.00  0.00    +0.000 N 
ATOM      4  H   UNL     1       0.518   8.858  20.373  0.00  0.00    +0.000 HD
ENDROOT
BRANCH   3   5
ATOM      5  C   UNL     1      -0.181  10.713  19.602  0.00  0.00    +0.000 C 
ATOM      6  C   UNL     1       0.676  11.950  19.615  0.00  0.00    +0.000 A 
ATOM      7  C   UNL     1       1.743  12.074  20.521  0.00  0.00    +0.000 A 
ATOM      8  C   UNL     1       2.455  13.265  20.632  0.00  0.00    +0.000 A 
ATOM      9  C   UNL     1       2.107  14.365  19.849  0.00  0.00    +0.000 A 
ATOM     10  C   UNL     1       2.831  15.669  20.026  0.00  0.00    +0.000 C 
ATOM     11  C   UNL     1       1.056  14.242  18.923  0.00  0.00    +0.000 A 
ATOM     12  C   UNL     1       0.345  13.039  18.808  0.00  0.00    +0.000 A 
ATOM     13  O   UNL     1      -0.685  13.020  17.890  0.00  0.00    +0.000 OA
ATOM     14  C   UNL     1      -1.389  11.850  17.706  0.00  0.00    +0.000 A 
ATOM     15  C   UNL     1      -2.384  11.863  16.718  0.00  0.00    +0.000 A 
ATOM     16  C   UNL     1      -3.172  10.726  16.478  0.00  0.00    +0.000 A 
ATOM     17  C   UNL     1      -4.262  10.718  15.448  0.00  0.00    +0.000 C 
ATOM     18  C   UNL     1      -2.945   9.573  17.235  0.00  0.00    +0.000 A 
ATOM     19  C   UNL     1      -1.962   9.561  18.222  0.00  0.00    +0.000 A 
ATOM     20  C   UNL     1      -1.171  10.698  18.466  0.00  0.00    +0.000 A 
ENDBRANCH   3   5
BRANCH   1  23
ATOM     21  C   UNL     1       4.132   6.567  17.904  0.00  0.00    +0.000 A 
ATOM     22  C   UNL     1       3.223   7.701  17.803  0.00  0.00    +0.000 A 
ATOM     23  C   UNL     1       2.294   7.975  18.739  0.00  0.00    +0.000 A 
ATOM     24  C   UNL     1       2.194   7.067  19.911  0.00  0.00    +0.000 A 
ATOM     25  O   UNL     1       1.398   7.256  20.826  0.00  0.00    +0.000 OA
ATOM     26  N   UNL     1       3.049   5.995  19.923  0.00  0.00    +0.000 N 
ATOM     27  C   UNL     1       4.011   5.724  18.957  0.00  0.00    +0.000 A 
ATOM     28  H   UNL     1       2.969   5.378  20.728  0.00  0.00    +0.000 HD
BRANCH  27  29
ATOM     29  C   UNL     1       4.880   4.504  19.186  0.00  0.00    +0.000 C 
ATOM     30  F   UNL     1       4.299   3.645  20.066  0.00  0.00    +0.000 F 
ATOM     31  F   UNL     1       5.095   3.809  18.043  0.00  0.00    +0.000 F 
ATOM     32  F   UNL     1       6.094   4.827  19.701  0.00  0.00    +0.000 F 
ENDBRANCH  27  29
BRANCH  21  33
ATOM     33  C   UNL     1       5.141   6.408  16.783  0.00  0.00    +0.000 C 
BRANCH  33  35
ATOM     34  C   UNL     1       7.475   6.797  17.646  0.00  0.00    +0.000 C 
ATOM     35  C   UNL     1       6.378   7.232  17.012  0.00  0.00    +0.000 C 
ENDBRANCH  33  35
ENDBRANCH  21  33
ENDBRANCH   1  23
TORSDOF 5
ENDMDL
MODEL 6
REMARK VINA RESULT:      -8.0      2.469      3.676
REMARK  Name = 
REMARK  7 active torsions:
REMARK  status: ('A' for Active; 'I' for Inactive)
REMARK    1  A    between atoms: C_2  and  C_3
REMARK    2  A    between atoms: C_3  and  C_4
REMARK    3  A    between atoms: C_6  and  C_7
REMARK    4  A    between atoms: N_9  and  C_10
REMARK    5  A    between atoms: C_14  and  C_15
REMARK    6  A    between atoms: C_21  and  C_22
REMARK    7  A    between atoms: C_29  and  C_30
REMARK                            x       y       z     vdW  Elec       q    Type
REMARK                         _______ _______ _______ _____ _____    ______ ____
ROOT
ATOM      1  C   UNL     1       0.635  10.541  19.511  0.00  0.00    +0.000 C 
ATOM      2  O   UNL     1      -0.136  10.797  18.590  0.00  0.00    +0.000 OA
ATOM      3  N   UNL     1       1.044  11.474  20.425  0.00  0.00    +0.000 N 
ATOM      4  H   UNL     1       1.597  11.189  21.231  0.00  0.00    +0.000 HD
ENDROOT
BRANCH   3   5
ATOM      5  C   UNL     1       0.651  12.869  20.333  0.00  0.00    +0.000 C 
ATOM      6  C   UNL     1      -0.024  13.338  21.594  0.00  0.00    +0.000 A 
ATOM      7  C   UNL     1      -1.054  12.582  22.179  0.00  0.00    +0.000 A 
ATOM      8  C   UNL     1      -1.775  13.072  23.265  0.00  0.00    +0.000 A 
ATOM      9  C   UNL     1      -1.491  14.334  23.782  0.00  0.00    +0.000 A 
ATOM     10  C   UNL     1      -2.320  14.887  24.906  0.00  0.00    +0.000 C 
ATOM     11  C   UNL     1      -0.446  15.087  23.217  0.00  0.00    +0.000 A 
ATOM     12  C   UNL     1       0.282  14.590  22.127  0.00  0.00    +0.000 A 
ATOM     13  O   UNL     1       1.272  15.409  21.625  0.00  0.00    +0.000 OA
ATOM     14  C   UNL     1       2.047  14.951  20.581  0.00  0.00    +0.000 A 
ATOM     15  C   UNL     1       3.080  15.794  20.148  0.00  0.00    +0.000 A 
ATOM     16  C   UNL     1       3.904  15.425  19.073  0.00  0.00    +0.000 A 
ATOM     17  C   UNL     1       4.999  16.318  18.568  0.00  0.00    +0.000 C 
ATOM     18  C   UNL     1       3.685  14.197  18.443  0.00  0.00    +0.000 A 
ATOM     19  C   UNL     1       2.655  13.361  18.868  0.00  0.00    +0.000 A 
ATOM     20  C   UNL     1       1.827  13.728  19.944  0.00  0.00    +0.000 A 
ENDBRANCH   3   5
BRANCH   1  23
ATOM     21  C   UNL     1       2.426   7.292  18.667  0.00  0.00    +0.000 A 
ATOM     22  C   UNL     1       1.792   8.603  18.609  0.00  0.00    +0.000 A 
ATOM     23  C   UNL     1       1.209   9.177  19.679  0.00  0.00    +0.000 A 
ATOM     24  C   UNL     1       1.206   8.427  20.961  0.00  0.00    +0.000 A 
ATOM     25  O   UNL     1       0.724   8.884  21.992  0.00  0.00    +0.000 OA
ATOM     26  N   UNL     1       1.780   7.182  20.936  0.00  0.00    +0.000 N 
ATOM     27  C   UNL     1       2.388   6.599  19.830  0.00  0.00    +0.000 A 
ATOM     28  H   UNL     1       1.769   6.675  21.818  0.00  0.00    +0.000 HD
BRANCH  27  29
ATOM     29  C   UNL     1       2.997   5.227  20.033  0.00  0.00    +0.000 C 
ATOM     30  F   UNL     1       2.665   4.716  21.249  0.00  0.00    +0.000 F 
ATOM     31  F   UNL     1       2.568   4.336  19.106  0.00  0.00    +0.000 F 
ATOM     32  F   UNL     1       4.353   5.251  19.976  0.00  0.00    +0.000 F 
ENDBRANCH  27  29
BRANCH  21  33
ATOM     33  C   UNL     1       3.064   6.794  17.385  0.00  0.00    +0.000 C 
BRANCH  33  35
ATOM     34  C   UNL     1       5.369   6.622  16.384  0.00  0.00    +0.000 C 
ATOM     35  C   UNL     1       4.547   7.040  17.356  0.00  0.00    +0.000 C 
ENDBRANCH  33  35
ENDBRANCH  21  33
ENDBRANCH   1  23
TORSDOF 5
ENDMDL
MODEL 7
REMARK VINA RESULT:      -7.8      1.037      1.039
REMARK  Name = 
REMARK  7 active torsions:
REMARK  status: ('A' for Active; 'I' for Inactive)
REMARK    1  A    between atoms: C_2  and  C_3
REMARK    2  A    between atoms: C_3  and  C_4
REMARK    3  A    between atoms: C_6  and  C_7
REMARK    4  A    between atoms: N_9  and  C_10
REMARK    5  A    between atoms: C_14  and  C_15
REMARK    6  A    between atoms: C_21  and  C_22
REMARK    7  A    between atoms: C_29  and  C_30
REMARK                            x       y       z     vdW  Elec       q    Type
REMARK                         _______ _______ _______ _____ _____    ______ ____
ROOT
ATOM      1  C   UNL     1       1.201   9.453  19.226  0.00  0.00    +0.000 C 
ATOM      2  O   UNL     1       0.662   9.873  20.246  0.00  0.00    +0.000 OA
ATOM      3  N   UNL     1       1.143  10.109  18.026  0.00  0.00    +0.000 N 
ATOM      4  H   UNL     1       1.694   9.776  17.237  0.00  0.00    +0.000 HD
ENDROOT
BRANCH   3   5
ATOM      5  C   UNL     1       0.374  11.326  17.848  0.00  0.00    +0.000 C 
ATOM      6  C   UNL     1      -1.100  11.082  18.031  0.00  0.00    +0.000 A 
ATOM      7  C   UNL     1      -1.735  10.009  17.383  0.00  0.00    +0.000 A 
ATOM      8  C   UNL     1      -3.118   9.855  17.438  0.00  0.00    +0.000 A 
ATOM      9  C   UNL     1      -3.898  10.778  18.131  0.00  0.00    +0.000 A 
ATOM     10  C   UNL     1      -5.395  10.647  18.124  0.00  0.00    +0.000 C 
ATOM     11  C   UNL     1      -3.269  11.841  18.802  0.00  0.00    +0.000 A 
ATOM     12  C   UNL     1      -1.876  11.991  18.750  0.00  0.00    +0.000 A 
ATOM     13  O   UNL     1      -1.351  13.077  19.419  0.00  0.00    +0.000 OA
ATOM     14  C   UNL     1       0.017  13.248  19.437  0.00  0.00    +0.000 A 
ATOM     15  C   UNL     1       0.505  14.331  20.182  0.00  0.00    +0.000 A 
ATOM     16  C   UNL     1       1.882  14.602  20.236  0.00  0.00    +0.000 A 
ATOM     17  C   UNL     1       2.433  15.768  21.001  0.00  0.00    +0.000 C 
ATOM     18  C   UNL     1       2.763  13.768  19.541  0.00  0.00    +0.000 A 
ATOM     19  C   UNL     1       2.279  12.697  18.795  0.00  0.00    +0.000 A 
ATOM     20  C   UNL     1       0.900  12.423  18.738  0.00  0.00    +0.000 A 
ENDBRANCH   3   5
BRANCH   1  23
ATOM     21  C   UNL     1       3.574   6.702  18.098  0.00  0.00    +0.000 A 
ATOM     22  C   UNL     1       2.765   7.911  18.186  0.00  0.00    +0.000 A 
ATOM     23  C   UNL     1       1.942   8.161  19.222  0.00  0.00    +0.000 A 
ATOM     24  C   UNL     1       1.854   7.149  20.305  0.00  0.00    +0.000 A 
ATOM     25  O   UNL     1       1.152   7.307  21.300  0.00  0.00    +0.000 OA
ATOM     26  N   UNL     1       2.607   6.016  20.140  0.00  0.00    +0.000 N 
ATOM     27  C   UNL     1       3.462   5.768  19.072  0.00  0.00    +0.000 A 
ATOM     28  H   UNL     1       2.536   5.328  20.886  0.00  0.00    +0.000 HD
BRANCH  27  29
ATOM     29  C   UNL     1       4.233   4.464  19.107  0.00  0.00    +0.000 C 
ATOM     30  F   UNL     1       5.540   4.675  19.422  0.00  0.00    +0.000 F 
ATOM     31  F   UNL     1       3.742   3.605  20.032  0.00  0.00    +0.000 F 
ATOM     32  F   UNL     1       4.218   3.826  17.909  0.00  0.00    +0.000 F 
ENDBRANCH  27  29
BRANCH  21  33
ATOM     33  C   UNL     1       4.473   6.578  16.883  0.00  0.00    +0.000 C 
BRANCH  33  35
ATOM     34  C   UNL     1       6.980   6.350  16.982  0.00  0.00    +0.000 C 
ATOM     35  C   UNL     1       5.866   7.076  17.155  0.00  0.00    +0.000 C 
ENDBRANCH  33  35
ENDBRANCH  21  33
ENDBRANCH   1  23
TORSDOF 5
ENDMDL
MODEL 8
REMARK VINA RESULT:      -7.8      1.179      1.635
REMARK  Name = 
REMARK  7 active torsions:
REMARK  status: ('A' for Active; 'I' for Inactive)
REMARK    1  A    between atoms: C_2  and  C_3
REMARK    2  A    between atoms: C_3  and  C_4
REMARK    3  A    between atoms: C_6  and  C_7
REMARK    4  A    between atoms: N_9  and  C_10
REMARK    5  A    between atoms: C_14  and  C_15
REMARK    6  A    between atoms: C_21  and  C_22
REMARK    7  A    between atoms: C_29  and  C_30
REMARK                            x       y       z     vdW  Elec       q    Type
REMARK                         _______ _______ _______ _____ _____    ______ ____
ROOT
ATOM      1  C   UNL     1       1.375   9.117  18.434  0.00  0.00    +0.000 C 
ATOM      2  O   UNL     1       1.992   9.620  17.499  0.00  0.00    +0.000 OA
ATOM      3  N   UNL     1       0.298   9.717  19.027  0.00  0.00    +0.000 N 
ATOM      4  H   UNL     1      -0.245   9.213  19.726  0.00  0.00    +0.000 HD
ENDROOT
BRANCH   3   5
ATOM      5  C   UNL     1      -0.159  11.040  18.641  0.00  0.00    +0.000 C 
ATOM      6  C   UNL     1      -1.657  11.089  18.501  0.00  0.00    +0.000 A 
ATOM      7  C   UNL     1      -2.342  10.106  17.766  0.00  0.00    +0.000 A 
ATOM      8  C   UNL     1      -3.707  10.217  17.519  0.00  0.00    +0.000 A 
ATOM      9  C   UNL     1      -4.417  11.321  17.989  0.00  0.00    +0.000 A 
ATOM     10  C   UNL     1      -5.874  11.472  17.656  0.00  0.00    +0.000 C 
ATOM     11  C   UNL     1      -3.744  12.297  18.745  0.00  0.00    +0.000 A 
ATOM     12  C   UNL     1      -2.370  12.180  18.998  0.00  0.00    +0.000 A 
ATOM     13  O   UNL     1      -1.792  13.198  19.728  0.00  0.00    +0.000 OA
ATOM     14  C   UNL     1      -0.453  13.112  20.042  0.00  0.00    +0.000 A 
ATOM     15  C   UNL     1       0.074  14.139  20.839  0.00  0.00    +0.000 A 
ATOM     16  C   UNL     1       1.434  14.151  21.187  0.00  0.00    +0.000 A 
ATOM     17  C   UNL     1       2.033  15.251  22.013  0.00  0.00    +0.000 C 
ATOM     18  C   UNL     1       2.258  13.117  20.734  0.00  0.00    +0.000 A 
ATOM     19  C   UNL     1       1.738  12.100  19.937  0.00  0.00    +0.000 A 
ATOM     20  C   UNL     1       0.376  12.085  19.586  0.00  0.00    +0.000 A 
ENDBRANCH   3   5
BRANCH   1  23
ATOM     21  C   UNL     1       2.841   5.613  18.656  0.00  0.00    +0.000 A 
ATOM     22  C   UNL     1       2.359   6.908  18.191  0.00  0.00    +0.000 A 
ATOM     23  C   UNL     1       1.786   7.808  19.013  0.00  0.00    +0.000 A 
ATOM     24  C   UNL     1       1.633   7.449  20.446  0.00  0.00    +0.000 A 
ATOM     25  O   UNL     1       1.150   8.218  21.272  0.00  0.00    +0.000 OA
ATOM     26  N   UNL     1       2.067   6.200  20.809  0.00  0.00    +0.000 N 
ATOM     27  C   UNL     1       2.667   5.279  19.957  0.00  0.00    +0.000 A 
ATOM     28  H   UNL     1       1.954   5.962  21.791  0.00  0.00    +0.000 HD
BRANCH  27  29
ATOM     29  C   UNL     1       3.110   3.968  20.574  0.00  0.00    +0.000 C 
ATOM     30  F   UNL     1       3.022   4.010  21.931  0.00  0.00    +0.000 F 
ATOM     31  F   UNL     1       2.345   2.927  20.165  0.00  0.00    +0.000 F 
ATOM     32  F   UNL     1       4.399   3.669  20.276  0.00  0.00    +0.000 F 
ENDBRANCH  27  29
BRANCH  21  33
ATOM     33  C   UNL     1       3.489   4.721  17.615  0.00  0.00    +0.000 C 
BRANCH  33  35
ATOM     34  C   UNL     1       2.660   2.369  17.262  0.00  0.00    +0.000 C 
ATOM     35  C   UNL     1       2.534   3.690  17.078  0.00  0.00    +0.000 C 
ENDBRANCH  33  35
ENDBRANCH  21  33
ENDBRANCH   1  23
TORSDOF 5
ENDMDL
MODEL 9
REMARK VINA RESULT:      -7.6      1.683      2.191
REMARK  Name = 
REMARK  7 active torsions:
REMARK  status: ('A' for Active; 'I' for Inactive)
REMARK    1  A    between atoms: C_2  and  C_3
REMARK    2  A    between atoms: C_3  and  C_4
REMARK    3  A    between atoms: C_6  and  C_7
REMARK    4  A    between atoms: N_9  and  C_10
REMARK    5  A    between atoms: C_14  and  C_15
REMARK    6  A    between atoms: C_21  and  C_22
REMARK    7  A    between atoms: C_29  and  C_30
REMARK                            x       y       z     vdW  Elec       q    Type
REMARK                         _______ _______ _______ _____ _____    ______ ____
ROOT
ATOM      1  C   UNL     1       0.358  10.716  19.233  0.00  0.00    +0.000 C 
ATOM      2  O   UNL     1       0.940  11.595  18.604  0.00  0.00    +0.000 OA
ATOM      3  N   UNL     1      -0.882  10.889  19.786  0.00  0.00    +0.000 N 
ATOM      4  H   UNL     1      -1.367  10.098  20.205  0.00  0.00    +0.000 HD
ENDROOT
BRANCH   3   5
ATOM      5  C   UNL     1      -1.580  12.160  19.733  0.00  0.00    +0.000 C 
ATOM      6  C   UNL     1      -2.982  12.000  19.208  0.00  0.00    +0.000 A 
ATOM      7  C   UNL     1      -3.230  11.261  18.038  0.00  0.00    +0.000 A 
ATOM      8  C   UNL     1      -4.501  11.220  17.472  0.00  0.00    +0.000 A 
ATOM      9  C   UNL     1      -5.550  11.927  18.055  0.00  0.00    +0.000 A 
ATOM     10  C   UNL     1      -6.901  11.939  17.399  0.00  0.00    +0.000 C 
ATOM     11  C   UNL     1      -5.317  12.650  19.239  0.00  0.00    +0.000 A 
ATOM     12  C   UNL     1      -4.037  12.685  19.811  0.00  0.00    +0.000 A 
ATOM     13  O   UNL     1      -3.898  13.438  20.958  0.00  0.00    +0.000 OA
ATOM     14  C   UNL     1      -2.672  13.473  21.585  0.00  0.00    +0.000 A 
ATOM     15  C   UNL     1      -2.597  14.201  22.782  0.00  0.00    +0.000 A 
ATOM     16  C   UNL     1      -1.383  14.316  23.477  0.00  0.00    +0.000 A 
ATOM     17  C   UNL     1      -1.265  15.111  24.743  0.00  0.00    +0.000 C 
ATOM     18  C   UNL     1      -0.246  13.685  22.963  0.00  0.00    +0.000 A 
ATOM     19  C   UNL     1      -0.317  12.967  21.772  0.00  0.00    +0.000 A 
ATOM     20  C   UNL     1      -1.532  12.850  21.072  0.00  0.00    +0.000 A 
ENDBRANCH   3   5
BRANCH   1  23
ATOM     21  C   UNL     1       2.323   7.530  18.552  0.00  0.00    +0.000 A 
ATOM     22  C   UNL     1       1.630   8.806  18.431  0.00  0.00    +0.000 A 
ATOM     23  C   UNL     1       0.990   9.387  19.464  0.00  0.00    +0.000 A 
ATOM     24  C   UNL     1       0.985   8.680  20.770  0.00  0.00    +0.000 A 
ATOM     25  O   UNL     1       0.452   9.148  21.772  0.00  0.00    +0.000 OA
ATOM     26  N   UNL     1       1.617   7.464  20.805  0.00  0.00    +0.000 N 
ATOM     27  C   UNL     1       2.284   6.875  19.737  0.00  0.00    +0.000 A 
ATOM     28  H   UNL     1       1.604   6.987  21.703  0.00  0.00    +0.000 HD
BRANCH  27  29
ATOM     29  C   UNL     1       2.950   5.541  20.004  0.00  0.00    +0.000 C 
ATOM     30  F   UNL     1       2.601   5.052  21.225  0.00  0.00    +0.000 F 
ATOM     31  F   UNL     1       2.596   4.602  19.092  0.00  0.00    +0.000 F 
ATOM     32  F   UNL     1       4.304   5.630  19.992  0.00  0.00    +0.000 F 
ENDBRANCH  27  29
BRANCH  21  33
ATOM     33  C   UNL     1       3.021   7.020  17.306  0.00  0.00    +0.000 C 
BRANCH  33  35
ATOM     34  C   UNL     1       5.500   6.633  17.095  0.00  0.00    +0.000 C 
ATOM     35  C   UNL     1       4.457   7.461  17.240  0.00  0.00    +0.000 C 
ENDBRANCH  33  35
ENDBRANCH  21  33
ENDBRANCH   1  23
TORSDOF 5
ENDMDL
