MODEL 1
REMARK VINA RESULT:      -7.6      0.000      0.000
REMARK  Name = 
REMARK  4 active torsions:
REMARK  status: ('A' for Active; 'I' for Inactive)
REMARK    1  A    between atoms: C_1  and  C_2
REMARK    2  A    between atoms: N_12  and  C_13
REMARK    3  A    between atoms: C_16  and  C_17
REMARK    4  A    between atoms: C_17  and  O_19
REMARK                            x       y       z     vdW  Elec       q    Type
REMARK                         _______ _______ _______ _____ _____    ______ ____
ROOT
ATOM      1  C   UNL     1       4.080   7.116  17.440  0.00  0.00    +0.000 C 
ATOM      2  C   UNL     1       3.714   5.784  18.062  0.00  0.00    +0.000 A 
ATOM      3  N   UNL     1       2.888   5.820  19.060  0.00  0.00    +0.000 NA
ATOM      4  C   UNL     1       2.509   4.622  19.667  0.00  0.00    +0.000 A 
ATOM      5  C   UNL     1       1.684   4.671  20.794  0.00  0.00    +0.000 A 
ATOM      6  C   UNL     1       1.364   3.504  21.492  0.00  0.00    +0.000 A 
ATOM      7  C   UNL     1       1.846   2.272  21.051  0.00  0.00    +0.000 A 
ATOM      8  C   UNL     1       2.625   2.206  19.897  0.00  0.00    +0.000 A 
ATOM      9  C   UNL     1       2.953   3.386  19.214  0.00  0.00    +0.000 A 
ATOM     10  C   UNL     1       3.811   3.358  18.012  0.00  0.00    +0.000 A 
ATOM     11  O   UNL     1       4.126   2.271  17.544  0.00  0.00    +0.000 OA
ATOM     12  N   UNL     1       4.217   4.612  17.522  0.00  0.00    +0.000 N 
ENDROOT
BRANCH  12  13
ATOM     13  C   UNL     1       5.125   4.620  16.421  0.00  0.00    +0.000 A 
ATOM     14  C   UNL     1       6.464   4.972  16.614  0.00  0.00    +0.000 A 
ATOM     15  C   UNL     1       7.328   5.095  15.519  0.00  0.00    +0.000 A 
ATOM     16  C   UNL     1       6.868   4.872  14.212  0.00  0.00    +0.000 A 
ATOM     17  C   UNL     1       5.548   4.443  14.023  0.00  0.00    +0.000 A 
ATOM     18  C   UNL     1       4.682   4.320  15.122  0.00  0.00    +0.000 A 
BRANCH  16  19
ATOM     19  C   UNL     1       7.835   5.104  13.103  0.00  0.00    +0.000 C 
ATOM     20  O   UNL     1       8.812   5.833  13.238  0.00  0.00    +0.000 OA
BRANCH  19  21
ATOM     21  O   UNL     1       7.530   4.526  11.925  0.00  0.00    +0.000 OA
ATOM     22  H   UNL     1       6.585   4.472  11.688  0.00  0.00    +0.000 HD
ENDBRANCH  19  21
ENDBRANCH  16  19
ENDBRANCH  12  13
TORSDOF 3
ENDMDL
MODEL 2
REMARK VINA RESULT:      -7.5      2.138      6.993
REMARK  Name = 
REMARK  4 active torsions:
REMARK  status: ('A' for Active; 'I' for Inactive)
REMARK    1  A    between atoms: C_1  and  C_2
REMARK    2  A    between atoms: N_12  and  C_13
REMARK    3  A    between atoms: C_16  and  C_17
REMARK    4  A    between atoms: C_17  and  O_19
REMARK                            x       y       z     vdW  Elec       q    Type
REMARK                         _______ _______ _______ _____ _____    ______ ____
ROOT
ATOM      1  C   UNL     1       6.916   6.300  18.171  0.00  0.00    +0.000 C 
ATOM      2  C   UNL     1       6.585   5.580  16.880  0.00  0.00    +0.000 A 
ATOM      3  N   UNL     1       7.391   5.778  15.885  0.00  0.00    +0.000 NA
ATOM      4  C   UNL     1       7.139   5.134  14.672  0.00  0.00    +0.000 A 
ATOM      5  C   UNL     1       7.961   5.415  13.579  0.00  0.00    +0.000 A 
ATOM      6  C   UNL     1       7.684   4.870  12.322  0.00  0.00    +0.000 A 
ATOM      7  C   UNL     1       6.593   4.017  12.156  0.00  0.00    +0.000 A 
ATOM      8  C   UNL     1       5.798   3.688  13.253  0.00  0.00    +0.000 A 
ATOM      9  C   UNL     1       6.077   4.252  14.506  0.00  0.00    +0.000 A 
ATOM     10  C   UNL     1       5.232   3.959  15.680  0.00  0.00    +0.000 A 
ATOM     11  O   UNL     1       4.356   3.109  15.572  0.00  0.00    +0.000 OA
ATOM     12  N   UNL     1       5.500   4.721  16.832  0.00  0.00    +0.000 N 
ENDROOT
BRANCH  12  13
ATOM     13  C   UNL     1       4.639   4.532  17.954  0.00  0.00    +0.000 A 
ATOM     14  C   UNL     1       4.877   3.492  18.858  0.00  0.00    +0.000 A 
ATOM     15  C   UNL     1       3.970   3.232  19.892  0.00  0.00    +0.000 A 
ATOM     16  C   UNL     1       2.806   4.003  20.038  0.00  0.00    +0.000 A 
ATOM     17  C   UNL     1       2.606   5.094  19.183  0.00  0.00    +0.000 A 
ATOM     18  C   UNL     1       3.517   5.354  18.146  0.00  0.00    +0.000 A 
BRANCH  16  19
ATOM     19  C   UNL     1       1.858   3.604  21.115  0.00  0.00    +0.000 C 
ATOM     20  O   UNL     1       2.235   3.392  22.263  0.00  0.00    +0.000 OA
BRANCH  19  21
ATOM     21  O   UNL     1       0.580   3.416  20.736  0.00  0.00    +0.000 OA
ATOM     22  H   UNL     1       0.293   3.849  19.910  0.00  0.00    +0.000 HD
ENDBRANCH  19  21
ENDBRANCH  16  19
ENDBRANCH  12  13
TORSDOF 3
ENDMDL
MODEL 3
REMARK VINA RESULT:      -7.4      1.350      1.523
REMARK  Name = 
REMARK  4 active torsions:
REMARK  status: ('A' for Active; 'I' for Inactive)
REMARK    1  A    between atoms: C_1  and  C_2
REMARK    2  A    between atoms: N_12  and  C_13
REMARK    3  A    between atoms: C_16  and  C_17
REMARK    4  A    between atoms: C_17  and  O_19
REMARK                            x       y       z     vdW  Elec       q    Type
REMARK                         _______ _______ _______ _____ _____    ______ ____
ROOT
ATOM      1  C   UNL     1       6.337   5.282  19.037  0.00  0.00    +0.000 C 
ATOM      2  C   UNL     1       4.956   4.662  18.989  0.00  0.00    +0.000 A 
ATOM      3  N   UNL     1       4.354   4.505  20.127  0.00  0.00    +0.000 NA
ATOM      4  C   UNL     1       3.075   3.946  20.143  0.00  0.00    +0.000 A 
ATOM      5  C   UNL     1       2.464   3.703  21.375  0.00  0.00    +0.000 A 
ATOM      6  C   UNL     1       1.228   3.053  21.440  0.00  0.00    +0.000 A 
ATOM      7  C   UNL     1       0.582   2.663  20.267  0.00  0.00    +0.000 A 
ATOM      8  C   UNL     1       1.158   2.950  19.031  0.00  0.00    +0.000 A 
ATOM      9  C   UNL     1       2.405   3.589  18.978  0.00  0.00    +0.000 A 
ATOM     10  C   UNL     1       3.065   3.870  17.688  0.00  0.00    +0.000 A 
ATOM     11  O   UNL     1       2.444   3.652  16.654  0.00  0.00    +0.000 OA
ATOM     12  N   UNL     1       4.385   4.348  17.767  0.00  0.00    +0.000 N 
ENDROOT
BRANCH  12  13
ATOM     13  C   UNL     1       5.086   4.538  16.539  0.00  0.00    +0.000 A 
ATOM     14  C   UNL     1       5.750   3.467  15.933  0.00  0.00    +0.000 A 
ATOM     15  C   UNL     1       6.534   3.675  14.793  0.00  0.00    +0.000 A 
ATOM     16  C   UNL     1       6.673   4.958  14.240  0.00  0.00    +0.000 A 
ATOM     17  C   UNL     1       5.946   6.017  14.798  0.00  0.00    +0.000 A 
ATOM     18  C   UNL     1       5.159   5.807  15.942  0.00  0.00    +0.000 A 
BRANCH  16  19
ATOM     19  C   UNL     1       7.591   5.100  13.075  0.00  0.00    +0.000 C 
ATOM     20  O   UNL     1       8.523   5.897  13.079  0.00  0.00    +0.000 OA
BRANCH  19  21
ATOM     21  O   UNL     1       7.289   4.358  11.993  0.00  0.00    +0.000 OA
ATOM     22  H   UNL     1       6.626   3.651  12.109  0.00  0.00    +0.000 HD
ENDBRANCH  19  21
ENDBRANCH  16  19
ENDBRANCH  12  13
TORSDOF 3
ENDMDL
MODEL 4
REMARK VINA RESULT:      -7.0      3.002      4.165
REMARK  Name = 
REMARK  4 active torsions:
REMARK  status: ('A' for Active; 'I' for Inactive)
REMARK    1  A    between atoms: C_1  and  C_2
REMARK    2  A    between atoms: N_12  and  C_13
REMARK    3  A    between atoms: C_16  and  C_17
REMARK    4  A    between atoms: C_17  and  O_19
REMARK                            x       y       z     vdW  Elec       q    Type
REMARK                         _______ _______ _______ _____ _____    ______ ____
ROOT
ATOM      1  C   UNL     1       3.403   4.856  20.227  0.00  0.00    +0.000 C 
ATOM      2  C   UNL     1       2.762   6.162  19.809  0.00  0.00    +0.000 A 
ATOM      3  N   UNL     1       1.933   6.694  20.652  0.00  0.00    +0.000 NA
ATOM      4  C   UNL     1       1.318   7.903  20.323  0.00  0.00    +0.000 A 
ATOM      5  C   UNL     1       0.363   8.431  21.196  0.00  0.00    +0.000 A 
ATOM      6  C   UNL     1      -0.349   9.584  20.858  0.00  0.00    +0.000 A 
ATOM      7  C   UNL     1      -0.093  10.235  19.651  0.00  0.00    +0.000 A 
ATOM      8  C   UNL     1       0.895   9.747  18.798  0.00  0.00    +0.000 A 
ATOM      9  C   UNL     1       1.593   8.580  19.140  0.00  0.00    +0.000 A 
ATOM     10  C   UNL     1       2.616   8.011  18.241  0.00  0.00    +0.000 A 
ATOM     11  O   UNL     1       2.940   8.649  17.246  0.00  0.00    +0.000 OA
ATOM     12  N   UNL     1       3.116   6.748  18.605  0.00  0.00    +0.000 N 
ENDROOT
BRANCH  12  13
ATOM     13  C   UNL     1       4.034   6.125  17.707  0.00  0.00    +0.000 A 
ATOM     14  C   UNL     1       5.252   6.743  17.404  0.00  0.00    +0.000 A 
ATOM     15  C   UNL     1       6.101   6.195  16.436  0.00  0.00    +0.000 A 
ATOM     16  C   UNL     1       5.748   5.022  15.751  0.00  0.00    +0.000 A 
ATOM     17  C   UNL     1       4.567   4.359  16.110  0.00  0.00    +0.000 A 
ATOM     18  C   UNL     1       3.716   4.910  17.081  0.00  0.00    +0.000 A 
BRANCH  16  19
ATOM     19  C   UNL     1       6.673   4.555  14.682  0.00  0.00    +0.000 C 
ATOM     20  O   UNL     1       7.652   5.212  14.341  0.00  0.00    +0.000 OA
BRANCH  19  21
ATOM     21  O   UNL     1       6.329   3.410  14.062  0.00  0.00    +0.000 OA
ATOM     22  H   UNL     1       5.574   2.915  14.432  0.00  0.00    +0.000 HD
ENDBRANCH  19  21
ENDBRANCH  16  19
ENDBRANCH  12  13
TORSDOF 3
ENDMDL
MODEL 5
REMARK VINA RESULT:      -6.9      0.340      1.105
REMARK  Name = 
REMARK  4 active torsions:
REMARK  status: ('A' for Active; 'I' for Inactive)
REMARK    1  A    between atoms: C_1  and  C_2
REMARK    2  A    between atoms: N_12  and  C_13
REMARK    3  A    between atoms: C_16  and  C_17
REMARK    4  A    between atoms: C_17  and  O_19
REMARK                            x       y       z     vdW  Elec       q    Type
REMARK                         _______ _______ _______ _____ _____    ______ ____
ROOT
ATOM      1  C   UNL     1       3.597   7.354  17.570  0.00  0.00    +0.000 C 
ATOM      2  C   UNL     1       3.402   5.969  18.149  0.00  0.00    +0.000 A 
ATOM      3  N   UNL     1       2.559   5.865  19.128  0.00  0.00    +0.000 NA
ATOM      4  C   UNL     1       2.333   4.610  19.695  0.00  0.00    +0.000 A 
ATOM      5  C   UNL     1       1.487   4.516  20.803  0.00  0.00    +0.000 A 
ATOM      6  C   UNL     1       1.313   3.296  21.463  0.00  0.00    +0.000 A 
ATOM      7  C   UNL     1       1.967   2.154  21.003  0.00  0.00    +0.000 A 
ATOM      8  C   UNL     1       2.771   2.226  19.866  0.00  0.00    +0.000 A 
ATOM      9  C   UNL     1       2.950   3.458  19.221  0.00  0.00    +0.000 A 
ATOM     10  C   UNL     1       3.827   3.580  18.040  0.00  0.00    +0.000 A 
ATOM     11  O   UNL     1       4.296   2.559  17.552  0.00  0.00    +0.000 OA
ATOM     12  N   UNL     1       4.069   4.891  17.592  0.00  0.00    +0.000 N 
ENDROOT
BRANCH  12  13
ATOM     13  C   UNL     1       4.990   5.052  16.513  0.00  0.00    +0.000 A 
ATOM     14  C   UNL     1       4.618   4.701  15.211  0.00  0.00    +0.000 A 
ATOM     15  C   UNL     1       5.555   4.746  14.172  0.00  0.00    +0.000 A 
ATOM     16  C   UNL     1       6.880   5.139  14.415  0.00  0.00    +0.000 A 
ATOM     17  C   UNL     1       7.233   5.567  15.701  0.00  0.00    +0.000 A 
ATOM     18  C   UNL     1       6.293   5.521  16.743  0.00  0.00    +0.000 A 
BRANCH  16  19
ATOM     19  C   UNL     1       7.827   5.081  13.267  0.00  0.00    +0.000 C 
ATOM     20  O   UNL     1       8.845   5.765  13.233  0.00  0.00    +0.000 OA
BRANCH  19  21
ATOM     21  O   UNL     1       7.460   4.293  12.239  0.00  0.00    +0.000 OA
ATOM     22  H   UNL     1       6.582   3.871  12.294  0.00  0.00    +0.000 HD
ENDBRANCH  19  21
ENDBRANCH  16  19
ENDBRANCH  12  13
TORSDOF 3
ENDMDL
MODEL 6
REMARK VINA RESULT:      -6.9      1.360      1.488
REMARK  Name = 
REMARK  4 active torsions:
REMARK  status: ('A' for Active; 'I' for Inactive)
REMARK    1  A    between atoms: C_1  and  C_2
REMARK    2  A    between atoms: N_12  and  C_13
REMARK    3  A    between atoms: C_16  and  C_17
REMARK    4  A    between atoms: C_17  and  O_19
REMARK                            x       y       z     vdW  Elec       q    Type
REMARK                         _______ _______ _______ _____ _____    ______ ____
ROOT
ATOM      1  C   UNL     1       6.251   5.514  19.194  0.00  0.00    +0.000 C 
ATOM      2  C   UNL     1       4.907   4.830  19.057  0.00  0.00    +0.000 A 
ATOM      3  N   UNL     1       4.207   4.710  20.141  0.00  0.00    +0.000 NA
ATOM      4  C   UNL     1       2.956   4.094  20.072  0.00  0.00    +0.000 A 
ATOM      5  C   UNL     1       2.241   3.892  21.256  0.00  0.00    +0.000 A 
ATOM      6  C   UNL     1       1.032   3.191  21.245  0.00  0.00    +0.000 A 
ATOM      7  C   UNL     1       0.517   2.706  20.043  0.00  0.00    +0.000 A 
ATOM      8  C   UNL     1       1.196   2.949  18.850  0.00  0.00    +0.000 A 
ATOM      9  C   UNL     1       2.415   3.641  18.875  0.00  0.00    +0.000 A 
ATOM     10  C   UNL     1       3.182   3.880  17.636  0.00  0.00    +0.000 A 
ATOM     11  O   UNL     1       2.671   3.576  16.565  0.00  0.00    +0.000 OA
ATOM     12  N   UNL     1       4.469   4.421  17.808  0.00  0.00    +0.000 N 
ENDROOT
BRANCH  12  13
ATOM     13  C   UNL     1       5.274   4.575  16.641  0.00  0.00    +0.000 A 
ATOM     14  C   UNL     1       5.295   5.792  15.953  0.00  0.00    +0.000 A 
ATOM     15  C   UNL     1       5.990   5.909  14.744  0.00  0.00    +0.000 A 
ATOM     16  C   UNL     1       6.673   4.812  14.198  0.00  0.00    +0.000 A 
ATOM     17  C   UNL     1       6.720   3.615  14.924  0.00  0.00    +0.000 A 
ATOM     18  C   UNL     1       6.022   3.498  16.137  0.00  0.00    +0.000 A 
BRANCH  16  19
ATOM     19  C   UNL     1       7.317   5.005  12.869  0.00  0.00    +0.000 C 
ATOM     20  O   UNL     1       8.068   5.950  12.645  0.00  0.00    +0.000 OA
BRANCH  19  21
ATOM     21  O   UNL     1       6.967   4.127  11.910  0.00  0.00    +0.000 OA
ATOM     22  H   UNL     1       7.472   3.293  11.866  0.00  0.00    +0.000 HD
ENDBRANCH  19  21
ENDBRANCH  16  19
ENDBRANCH  12  13
TORSDOF 3
ENDMDL
MODEL 7
REMARK VINA RESULT:      -6.6      2.224      7.060
REMARK  Name = 
REMARK  4 active torsions:
REMARK  status: ('A' for Active; 'I' for Inactive)
REMARK    1  A    between atoms: C_1  and  C_2
REMARK    2  A    between atoms: N_12  and  C_13
REMARK    3  A    between atoms: C_16  and  C_17
REMARK    4  A    between atoms: C_17  and  O_19
REMARK                            x       y       z     vdW  Elec       q    Type
REMARK                         _______ _______ _______ _____ _____    ______ ____
ROOT
ATOM      1  C   UNL     1       6.931   6.471  17.747  0.00  0.00    +0.000 C 
ATOM      2  C   UNL     1       6.625   5.683  16.490  0.00  0.00    +0.000 A 
ATOM      3  N   UNL     1       7.445   5.837  15.498  0.00  0.00    +0.000 NA
ATOM      4  C   UNL     1       7.217   5.129  14.317  0.00  0.00    +0.000 A 
ATOM      5  C   UNL     1       8.054   5.361  13.223  0.00  0.00    +0.000 A 
ATOM      6  C   UNL     1       7.801   4.750  11.992  0.00  0.00    +0.000 A 
ATOM      7  C   UNL     1       6.719   3.881  11.853  0.00  0.00    +0.000 A 
ATOM      8  C   UNL     1       5.909   3.602  12.953  0.00  0.00    +0.000 A 
ATOM      9  C   UNL     1       6.164   4.232  14.179  0.00  0.00    +0.000 A 
ATOM     10  C   UNL     1       5.303   3.993  15.354  0.00  0.00    +0.000 A 
ATOM     11  O   UNL     1       4.435   3.131  15.277  0.00  0.00    +0.000 OA
ATOM     12  N   UNL     1       5.547   4.814  16.469  0.00  0.00    +0.000 N 
ENDROOT
BRANCH  12  13
ATOM     13  C   UNL     1       4.670   4.676  17.587  0.00  0.00    +0.000 A 
ATOM     14  C   UNL     1       3.551   5.504  17.711  0.00  0.00    +0.000 A 
ATOM     15  C   UNL     1       2.756   5.452  18.862  0.00  0.00    +0.000 A 
ATOM     16  C   UNL     1       3.068   4.574  19.911  0.00  0.00    +0.000 A 
ATOM     17  C   UNL     1       4.142   3.688  19.755  0.00  0.00    +0.000 A 
ATOM     18  C   UNL     1       4.939   3.742  18.600  0.00  0.00    +0.000 A 
BRANCH  16  19
ATOM     19  C   UNL     1       2.215   4.642  21.130  0.00  0.00    +0.000 C 
ATOM     20  O   UNL     1       2.224   3.754  21.977  0.00  0.00    +0.000 OA
BRANCH  19  21
ATOM     21  O   UNL     1       1.381   5.696  21.208  0.00  0.00    +0.000 OA
ATOM     22  H   UNL     1       0.899   5.822  22.047  0.00  0.00    +0.000 HD
ENDBRANCH  19  21
ENDBRANCH  16  19
ENDBRANCH  12  13
TORSDOF 3
ENDMDL
MODEL 8
REMARK VINA RESULT:      -6.5      3.916      6.079
REMARK  Name = 
REMARK  4 active torsions:
REMARK  status: ('A' for Active; 'I' for Inactive)
REMARK    1  A    between atoms: C_1  and  C_2
REMARK    2  A    between atoms: N_12  and  C_13
REMARK    3  A    between atoms: C_16  and  C_17
REMARK    4  A    between atoms: C_17  and  O_19
REMARK                            x       y       z     vdW  Elec       q    Type
REMARK                         _______ _______ _______ _____ _____    ______ ____
ROOT
ATOM      1  C   UNL     1       3.620   7.449  16.687  0.00  0.00    +0.000 C 
ATOM      2  C   UNL     1       2.808   7.943  17.866  0.00  0.00    +0.000 A 
ATOM      3  N   UNL     1       2.330   9.144  17.775  0.00  0.00    +0.000 NA
ATOM      4  C   UNL     1       1.567   9.649  18.829  0.00  0.00    +0.000 A 
ATOM      5  C   UNL     1       1.123  10.972  18.764  0.00  0.00    +0.000 A 
ATOM      6  C   UNL     1       0.444  11.548  19.841  0.00  0.00    +0.000 A 
ATOM      7  C   UNL     1       0.180  10.795  20.984  0.00  0.00    +0.000 A 
ATOM      8  C   UNL     1       0.571   9.457  21.037  0.00  0.00    +0.000 A 
ATOM      9  C   UNL     1       1.266   8.895  19.957  0.00  0.00    +0.000 A 
ATOM     10  C   UNL     1       1.732   7.494  19.996  0.00  0.00    +0.000 A 
ATOM     11  O   UNL     1       1.388   6.790  20.938  0.00  0.00    +0.000 OA
ATOM     12  N   UNL     1       2.570   7.099  18.938  0.00  0.00    +0.000 N 
ENDROOT
BRANCH  12  13
ATOM     13  C   UNL     1       3.117   5.782  18.995  0.00  0.00    +0.000 A 
ATOM     14  C   UNL     1       2.320   4.674  18.693  0.00  0.00    +0.000 A 
ATOM     15  C   UNL     1       2.818   3.377  18.862  0.00  0.00    +0.000 A 
ATOM     16  C   UNL     1       4.120   3.164  19.340  0.00  0.00    +0.000 A 
ATOM     17  C   UNL     1       4.947   4.272  19.567  0.00  0.00    +0.000 A 
ATOM     18  C   UNL     1       4.446   5.573  19.398  0.00  0.00    +0.000 A 
BRANCH  16  19
ATOM     19  C   UNL     1       4.539   1.753  19.565  0.00  0.00    +0.000 C 
ATOM     20  O   UNL     1       5.203   1.422  20.542  0.00  0.00    +0.000 OA
BRANCH  19  21
ATOM     21  O   UNL     1       4.211   0.878  18.594  0.00  0.00    +0.000 OA
ATOM     22  H   UNL     1       4.684   0.025  18.586  0.00  0.00    +0.000 HD
ENDBRANCH  19  21
ENDBRANCH  16  19
ENDBRANCH  12  13
TORSDOF 3
ENDMDL
MODEL 9
REMARK VINA RESULT:      -6.5      3.366      4.758
REMARK  Name = 
REMARK  4 active torsions:
REMARK  status: ('A' for Active; 'I' for Inactive)
REMARK    1  A    between atoms: C_1  and  C_2
REMARK    2  A    between atoms: N_12  and  C_13
REMARK    3  A    between atoms: C_16  and  C_17
REMARK    4  A    between atoms: C_17  and  O_19
REMARK                            x       y       z     vdW  Elec       q    Type
REMARK                         _______ _______ _______ _____ _____    ______ ____
ROOT
ATOM      1  C   UNL     1       2.862   5.153  20.430  0.00  0.00    +0.000 C 
ATOM      2  C   UNL     1       2.293   6.500  20.037  0.00  0.00    +0.000 A 
ATOM      3  N   UNL     1       1.559   7.097  20.923  0.00  0.00    +0.000 NA
ATOM      4  C   UNL     1       1.014   8.346  20.618  0.00  0.00    +0.000 A 
ATOM      5  C   UNL     1       0.157   8.949  21.542  0.00  0.00    +0.000 A 
ATOM      6  C   UNL     1      -0.489  10.149  21.234  0.00  0.00    +0.000 A 
ATOM      7  C   UNL     1      -0.262  10.770  20.006  0.00  0.00    +0.000 A 
ATOM      8  C   UNL     1       0.633  10.204  19.099  0.00  0.00    +0.000 A 
ATOM      9  C   UNL     1       1.264   8.992  19.412  0.00  0.00    +0.000 A 
ATOM     10  C   UNL     1       2.185   8.342  18.459  0.00  0.00    +0.000 A 
ATOM     11  O   UNL     1       2.491   8.947  17.438  0.00  0.00    +0.000 OA
ATOM     12  N   UNL     1       2.613   7.048  18.806  0.00  0.00    +0.000 N 
ENDROOT
BRANCH  12  13
ATOM     13  C   UNL     1       3.426   6.354  17.861  0.00  0.00    +0.000 A 
ATOM     14  C   UNL     1       3.156   5.019  17.546  0.00  0.00    +0.000 A 
ATOM     15  C   UNL     1       4.020   4.301  16.711  0.00  0.00    +0.000 A 
ATOM     16  C   UNL     1       5.171   4.902  16.180  0.00  0.00    +0.000 A 
ATOM     17  C   UNL     1       5.400   6.261  16.430  0.00  0.00    +0.000 A 
ATOM     18  C   UNL     1       4.533   6.981  17.268  0.00  0.00    +0.000 A 
BRANCH  16  19
ATOM     19  C   UNL     1       6.074   4.041  15.367  0.00  0.00    +0.000 C 
ATOM     20  O   UNL     1       6.806   4.507  14.500  0.00  0.00    +0.000 OA
BRANCH  19  21
ATOM     21  O   UNL     1       5.982   2.715  15.589  0.00  0.00    +0.000 OA
ATOM     22  H   UNL     1       6.213   2.398  16.483  0.00  0.00    +0.000 HD
ENDBRANCH  19  21
ENDBRANCH  16  19
ENDBRANCH  12  13
TORSDOF 3
ENDMDL
