MODEL 1
REMARK VINA RESULT:      -9.9      0.000      0.000
REMARK  Name = 
REMARK  3 active torsions:
REMARK  status: ('A' for Active; 'I' for Inactive)
REMARK    1  A    between atoms: C_1  and  C_2
REMARK    2  A    between atoms: C_13  and  C_15
REMARK    3  A    between atoms: C_15  and  C_16
REMARK                            x       y       z     vdW  Elec       q    Type
REMARK                         _______ _______ _______ _____ _____    ______ ____
ROOT
ATOM      1  C   UNL     1       7.831   8.155  17.454  0.00  0.00    +0.000 C 
ATOM      2  C   UNL     1       7.139   6.852  17.392  0.00  0.00    +0.000 A 
ATOM      3  C   UNL     1       5.811   6.521  17.525  0.00  0.00    +0.000 A 
ATOM      4  C   UNL     1       5.740   5.112  17.389  0.00  0.00    +0.000 A 
ATOM      5  N   UNL     1       4.643   4.325  17.477  0.00  0.00    +0.000 N 
ATOM      6  C   UNL     1       3.534   4.668  18.226  0.00  0.00    +0.000 A 
ATOM      7  N   UNL     1       3.200   5.899  18.465  0.00  0.00    +0.000 NA
ATOM      8  C   UNL     1       2.166   6.232  19.300  0.00  0.00    +0.000 A 
ATOM      9  N   UNL     1       1.974   7.575  19.513  0.00  0.00    +0.000 N 
ATOM     10  C   UNL     1       2.336   8.593  18.524  0.00  0.00    +0.000 C 
ATOM     11  C   UNL     1       1.160   9.569  18.341  0.00  0.00    +0.000 C 
ATOM     12  N   UNL     1       0.714  10.118  19.630  0.00  0.00    +0.000 N 
ATOM     13  C   UNL     1       0.454  11.473  19.733  0.00  0.00    +0.000 C 
ATOM     14  O   UNL     1       0.591  12.235  18.770  0.00  0.00    +0.000 OA
ATOM     15  C   UNL     1       0.405   9.094  20.643  0.00  0.00    +0.000 C 
ATOM     16  C   UNL     1       1.565   8.103  20.814  0.00  0.00    +0.000 C 
ATOM     17  N   UNL     1       1.395   5.367  19.888  0.00  0.00    +0.000 NA
ATOM     18  N   UNL     1       1.657   4.089  19.587  0.00  0.00    +0.000 N 
ATOM     19  C   UNL     1       0.946   3.002  20.020  0.00  0.00    +0.000 A 
ATOM     20  C   UNL     1       1.528   1.867  19.497  0.00  0.00    +0.000 A 
ATOM     21  C   UNL     1       2.635   2.289  18.717  0.00  0.00    +0.000 A 
ATOM     22  C   UNL     1       2.677   3.667  18.790  0.00  0.00    +0.000 A 
ATOM     23  N   UNL     1       6.954   4.604  17.147  0.00  0.00    +0.000 NA
ATOM     24  N   UNL     1       7.778   5.666  17.174  0.00  0.00    +0.000 N 
ATOM     25  H   UNL     1       4.835   3.337  17.399  0.00  0.00    +0.000 HD
ATOM     26  H   UNL     1       8.770   5.508  17.034  0.00  0.00    +0.000 HD
ENDROOT
BRANCH  13  27
ATOM     27  C   UNL     1       0.024  12.043  21.077  0.00  0.00    +0.000 C 
BRANCH  27  28
ATOM     28  C   UNL     1      -1.461  12.269  21.189  0.00  0.00    +0.000 A 
ATOM     29  C   UNL     1      -2.254  12.418  20.041  0.00  0.00    +0.000 A 
ATOM     30  C   UNL     1      -3.627  12.654  20.153  0.00  0.00    +0.000 A 
ATOM     31  C   UNL     1      -4.223  12.746  21.411  0.00  0.00    +0.000 A 
ATOM     32  C   UNL     1      -3.444  12.607  22.558  0.00  0.00    +0.000 A 
ATOM     33  C   UNL     1      -2.077  12.373  22.438  0.00  0.00    +0.000 A 
ATOM     34  F   UNL     1      -1.348  12.253  23.557  0.00  0.00    +0.000 F 
ENDBRANCH  27  28
ENDBRANCH  13  27
TORSDOF 2
ENDMDL
MODEL 2
REMARK VINA RESULT:      -9.1      1.247      1.491
REMARK  Name = 
REMARK  3 active torsions:
REMARK  status: ('A' for Active; 'I' for Inactive)
REMARK    1  A    between atoms: C_1  and  C_2
REMARK    2  A    between atoms: C_13  and  C_15
REMARK    3  A    between atoms: C_15  and  C_16
REMARK                            x       y       z     vdW  Elec       q    Type
REMARK                         _______ _______ _______ _____ _____    ______ ____
ROOT
ATOM      1  C   UNL     1       7.816   8.175  17.502  0.00  0.00    +0.000 C 
ATOM      2  C   UNL     1       7.115   6.886  17.328  0.00  0.00    +0.000 A 
ATOM      3  C   UNL     1       5.787   6.552  17.445  0.00  0.00    +0.000 A 
ATOM      4  C   UNL     1       5.705   5.162  17.182  0.00  0.00    +0.000 A 
ATOM      5  N   UNL     1       4.604   4.376  17.210  0.00  0.00    +0.000 N 
ATOM      6  C   UNL     1       3.506   4.655  18.000  0.00  0.00    +0.000 A 
ATOM      7  N   UNL     1       3.182   5.860  18.355  0.00  0.00    +0.000 NA
ATOM      8  C   UNL     1       2.160   6.121  19.228  0.00  0.00    +0.000 A 
ATOM      9  N   UNL     1       1.978   7.439  19.567  0.00  0.00    +0.000 N 
ATOM     10  C   UNL     1       2.336   8.541  18.671  0.00  0.00    +0.000 C 
ATOM     11  C   UNL     1       1.164   9.537  18.593  0.00  0.00    +0.000 C 
ATOM     12  N   UNL     1       0.736   9.967  19.931  0.00  0.00    +0.000 N 
ATOM     13  C   UNL     1       0.487  11.308  20.162  0.00  0.00    +0.000 C 
ATOM     14  O   UNL     1       0.618  12.155  19.271  0.00  0.00    +0.000 OA
ATOM     15  C   UNL     1       0.432   8.856  20.850  0.00  0.00    +0.000 C 
ATOM     16  C   UNL     1       1.588   7.848  20.915  0.00  0.00    +0.000 C 
ATOM     17  N   UNL     1       1.390   5.209  19.744  0.00  0.00    +0.000 NA
ATOM     18  N   UNL     1       1.640   3.962  19.323  0.00  0.00    +0.000 N 
ATOM     19  C   UNL     1       0.927   2.845  19.663  0.00  0.00    +0.000 A 
ATOM     20  C   UNL     1       1.496   1.760  19.031  0.00  0.00    +0.000 A 
ATOM     21  C   UNL     1       2.597   2.245  18.280  0.00  0.00    +0.000 A 
ATOM     22  C   UNL     1       2.648   3.610  18.479  0.00  0.00    +0.000 A 
ATOM     23  N   UNL     1       6.913   4.672  16.879  0.00  0.00    +0.000 NA
ATOM     24  N   UNL     1       7.744   5.723  16.994  0.00  0.00    +0.000 N 
ATOM     25  H   UNL     1       4.789   3.399  17.038  0.00  0.00    +0.000 HD
ATOM     26  H   UNL     1       8.733   5.573  16.829  0.00  0.00    +0.000 HD
ENDROOT
BRANCH  13  27
ATOM     27  C   UNL     1       0.075  11.754  21.557  0.00  0.00    +0.000 C 
BRANCH  27  28
ATOM     28  C   UNL     1      -0.561  13.119  21.592  0.00  0.00    +0.000 A 
ATOM     29  C   UNL     1       0.167  14.241  22.016  0.00  0.00    +0.000 A 
ATOM     30  C   UNL     1      -0.438  15.500  22.070  0.00  0.00    +0.000 A 
ATOM     31  C   UNL     1      -1.775  15.653  21.704  0.00  0.00    +0.000 A 
ATOM     32  C   UNL     1      -2.509  14.545  21.288  0.00  0.00    +0.000 A 
ATOM     33  C   UNL     1      -1.901  13.294  21.238  0.00  0.00    +0.000 A 
ATOM     34  F   UNL     1      -2.633  12.242  20.844  0.00  0.00    +0.000 F 
ENDBRANCH  27  28
ENDBRANCH  13  27
TORSDOF 2
ENDMDL
MODEL 3
REMARK VINA RESULT:      -9.0      0.956      1.176
REMARK  Name = 
REMARK  3 active torsions:
REMARK  status: ('A' for Active; 'I' for Inactive)
REMARK    1  A    between atoms: C_1  and  C_2
REMARK    2  A    between atoms: C_13  and  C_15
REMARK    3  A    between atoms: C_15  and  C_16
REMARK                            x       y       z     vdW  Elec       q    Type
REMARK                         _______ _______ _______ _____ _____    ______ ____
ROOT
ATOM      1  C   UNL     1       7.855   8.137  17.451  0.00  0.00    +0.000 C 
ATOM      2  C   UNL     1       7.159   6.834  17.430  0.00  0.00    +0.000 A 
ATOM      3  C   UNL     1       5.831   6.510  17.576  0.00  0.00    +0.000 A 
ATOM      4  C   UNL     1       5.757   5.098  17.484  0.00  0.00    +0.000 A 
ATOM      5  N   UNL     1       4.658   4.316  17.599  0.00  0.00    +0.000 N 
ATOM      6  C   UNL     1       3.551   4.685  18.339  0.00  0.00    +0.000 A 
ATOM      7  N   UNL     1       3.221   5.923  18.540  0.00  0.00    +0.000 NA
ATOM      8  C   UNL     1       2.189   6.285  19.366  0.00  0.00    +0.000 A 
ATOM      9  N   UNL     1       2.000   7.634  19.538  0.00  0.00    +0.000 N 
ATOM     10  C   UNL     1       2.362   8.619  18.517  0.00  0.00    +0.000 C 
ATOM     11  C   UNL     1       1.188   9.592  18.307  0.00  0.00    +0.000 C 
ATOM     12  N   UNL     1       0.746  10.182  19.579  0.00  0.00    +0.000 N 
ATOM     13  C   UNL     1       0.489  11.540  19.640  0.00  0.00    +0.000 C 
ATOM     14  O   UNL     1       0.626  12.271  18.653  0.00  0.00    +0.000 OA
ATOM     15  C   UNL     1       0.437   9.190  20.624  0.00  0.00    +0.000 C 
ATOM     16  C   UNL     1       1.595   8.203  20.822  0.00  0.00    +0.000 C 
ATOM     17  N   UNL     1       1.418   5.439  19.982  0.00  0.00    +0.000 NA
ATOM     18  N   UNL     1       1.676   4.152  19.721  0.00  0.00    +0.000 N 
ATOM     19  C   UNL     1       0.963   3.081  20.188  0.00  0.00    +0.000 A 
ATOM     20  C   UNL     1       1.542   1.929  19.700  0.00  0.00    +0.000 A 
ATOM     21  C   UNL     1       2.648   2.324  18.905  0.00  0.00    +0.000 A 
ATOM     22  C   UNL     1       2.693   3.703  18.935  0.00  0.00    +0.000 A 
ATOM     23  N   UNL     1       6.969   4.580  17.255  0.00  0.00    +0.000 NA
ATOM     24  N   UNL     1       7.795   5.641  17.248  0.00  0.00    +0.000 N 
ATOM     25  H   UNL     1       4.848   3.326  17.550  0.00  0.00    +0.000 HD
ATOM     26  H   UNL     1       8.786   5.476  17.111  0.00  0.00    +0.000 HD
ENDROOT
BRANCH  13  27
ATOM     27  C   UNL     1       0.063  12.151  20.967  0.00  0.00    +0.000 C 
BRANCH  27  28
ATOM     28  C   UNL     1      -1.300  12.792  20.926  0.00  0.00    +0.000 A 
ATOM     29  C   UNL     1      -1.576  13.944  21.678  0.00  0.00    +0.000 A 
ATOM     30  C   UNL     1      -2.850  14.518  21.654  0.00  0.00    +0.000 A 
ATOM     31  C   UNL     1      -3.862  13.949  20.883  0.00  0.00    +0.000 A 
ATOM     32  C   UNL     1      -3.602  12.801  20.137  0.00  0.00    +0.000 A 
ATOM     33  C   UNL     1      -2.331  12.234  20.166  0.00  0.00    +0.000 A 
ATOM     34  F   UNL     1      -2.109  11.124  19.449  0.00  0.00    +0.000 F 
ENDBRANCH  27  28
ENDBRANCH  13  27
TORSDOF 2
ENDMDL
MODEL 4
REMARK VINA RESULT:      -9.0      0.962      1.242
REMARK  Name = 
REMARK  3 active torsions:
REMARK  status: ('A' for Active; 'I' for Inactive)
REMARK    1  A    between atoms: C_1  and  C_2
REMARK    2  A    between atoms: C_13  and  C_15
REMARK    3  A    between atoms: C_15  and  C_16
REMARK                            x       y       z     vdW  Elec       q    Type
REMARK                         _______ _______ _______ _____ _____    ______ ____
ROOT
ATOM      1  C   UNL     1       7.651   7.905  17.205  0.00  0.00    +0.000 C 
ATOM      2  C   UNL     1       6.913   6.631  17.322  0.00  0.00    +0.000 A 
ATOM      3  C   UNL     1       5.596   6.367  17.619  0.00  0.00    +0.000 A 
ATOM      4  C   UNL     1       5.465   4.956  17.608  0.00  0.00    +0.000 A 
ATOM      5  N   UNL     1       4.358   4.224  17.875  0.00  0.00    +0.000 N 
ATOM      6  C   UNL     1       3.347   4.671  18.704  0.00  0.00    +0.000 A 
ATOM      7  N   UNL     1       3.082   5.930  18.874  0.00  0.00    +0.000 NA
ATOM      8  C   UNL     1       2.154   6.370  19.781  0.00  0.00    +0.000 A 
ATOM      9  N   UNL     1       2.030   7.733  19.902  0.00  0.00    +0.000 N 
ATOM     10  C   UNL     1       2.318   8.653  18.800  0.00  0.00    +0.000 C 
ATOM     11  C   UNL     1       1.162   9.660  18.661  0.00  0.00    +0.000 C 
ATOM     12  N   UNL     1       0.875  10.327  19.939  0.00  0.00    +0.000 N 
ATOM     13  C   UNL     1       0.673  11.696  19.957  0.00  0.00    +0.000 C 
ATOM     14  O   UNL     1       0.732  12.373  18.925  0.00  0.00    +0.000 OA
ATOM     15  C   UNL     1       0.642   9.399  21.060  0.00  0.00    +0.000 C 
ATOM     16  C   UNL     1       1.781   8.378  21.190  0.00  0.00    +0.000 C 
ATOM     17  N   UNL     1       1.423   5.587  20.515  0.00  0.00    +0.000 NA
ATOM     18  N   UNL     1       1.608   4.279  20.295  0.00  0.00    +0.000 N 
ATOM     19  C   UNL     1       0.912   3.260  20.887  0.00  0.00    +0.000 A 
ATOM     20  C   UNL     1       1.397   2.065  20.402  0.00  0.00    +0.000 A 
ATOM     21  C   UNL     1       2.427   2.377  19.479  0.00  0.00    +0.000 A 
ATOM     22  C   UNL     1       2.522   3.753  19.434  0.00  0.00    +0.000 A 
ATOM     23  N   UNL     1       6.628   4.381  17.284  0.00  0.00    +0.000 NA
ATOM     24  N   UNL     1       7.485   5.406  17.138  0.00  0.00    +0.000 N 
ATOM     25  H   UNL     1       4.508   3.227  17.858  0.00  0.00    +0.000 HD
ATOM     26  H   UNL     1       8.450   5.196  16.909  0.00  0.00    +0.000 HD
ENDROOT
BRANCH  13  27
ATOM     27  C   UNL     1       0.408  12.386  21.287  0.00  0.00    +0.000 C 
BRANCH  27  28
ATOM     28  C   UNL     1      -1.056  12.529  21.611  0.00  0.00    +0.000 A 
ATOM     29  C   UNL     1      -1.609  11.893  22.732  0.00  0.00    +0.000 A 
ATOM     30  C   UNL     1      -2.974  12.010  23.013  0.00  0.00    +0.000 A 
ATOM     31  C   UNL     1      -3.801  12.760  22.177  0.00  0.00    +0.000 A 
ATOM     32  C   UNL     1      -3.263  13.390  21.056  0.00  0.00    +0.000 A 
ATOM     33  C   UNL     1      -1.904  13.269  20.783  0.00  0.00    +0.000 A 
ATOM     34  F   UNL     1      -1.414  13.876  19.693  0.00  0.00    +0.000 F 
ENDBRANCH  27  28
ENDBRANCH  13  27
TORSDOF 2
ENDMDL
MODEL 5
REMARK VINA RESULT:      -9.0      1.578      2.403
REMARK  Name = 
REMARK  3 active torsions:
REMARK  status: ('A' for Active; 'I' for Inactive)
REMARK    1  A    between atoms: C_1  and  C_2
REMARK    2  A    between atoms: C_13  and  C_15
REMARK    3  A    between atoms: C_15  and  C_16
REMARK                            x       y       z     vdW  Elec       q    Type
REMARK                         _______ _______ _______ _____ _____    ______ ____
ROOT
ATOM      1  C   UNL     1       7.794   8.373  17.609  0.00  0.00    +0.000 C 
ATOM      2  C   UNL     1       7.208   7.034  17.819  0.00  0.00    +0.000 A 
ATOM      3  C   UNL     1       5.910   6.632  18.028  0.00  0.00    +0.000 A 
ATOM      4  C   UNL     1       5.953   5.224  18.182  0.00  0.00    +0.000 A 
ATOM      5  N   UNL     1       4.922   4.386  18.437  0.00  0.00    +0.000 N 
ATOM      6  C   UNL     1       3.783   4.784  19.111  0.00  0.00    +0.000 A 
ATOM      7  N   UNL     1       3.350   6.007  19.099  0.00  0.00    +0.000 NA
ATOM      8  C   UNL     1       2.287   6.419  19.857  0.00  0.00    +0.000 A 
ATOM      9  N   UNL     1       1.986   7.758  19.796  0.00  0.00    +0.000 N 
ATOM     10  C   UNL     1       2.273   8.579  18.618  0.00  0.00    +0.000 C 
ATOM     11  C   UNL     1       1.024   9.401  18.252  0.00  0.00    +0.000 C 
ATOM     12  N   UNL     1       0.526  10.163  19.406  0.00  0.00    +0.000 N 
ATOM     13  C   UNL     1       0.159  11.485  19.235  0.00  0.00    +0.000 C 
ATOM     14  O   UNL     1       0.241  12.044  18.136  0.00  0.00    +0.000 OA
ATOM     15  C   UNL     1       0.293   9.343  20.609  0.00  0.00    +0.000 C 
ATOM     16  C   UNL     1       1.527   8.504  20.966  0.00  0.00    +0.000 C 
ATOM     17  N   UNL     1       1.584   5.633  20.616  0.00  0.00    +0.000 NA
ATOM     18  N   UNL     1       1.948   4.345  20.578  0.00  0.00    +0.000 N 
ATOM     19  C   UNL     1       1.324   3.315  21.228  0.00  0.00    +0.000 A 
ATOM     20  C   UNL     1       1.998   2.148  20.941  0.00  0.00    +0.000 A 
ATOM     21  C   UNL     1       3.074   2.490  20.082  0.00  0.00    +0.000 A 
ATOM     22  C   UNL     1       3.005   3.852  19.874  0.00  0.00    +0.000 A 
ATOM     23  N   UNL     1       7.205   4.776  18.036  0.00  0.00    +0.000 NA
ATOM     24  N   UNL     1       7.941   5.884  17.840  0.00  0.00    +0.000 N 
ATOM     25  H   UNL     1       5.193   3.421  18.558  0.00  0.00    +0.000 HD
ATOM     26  H   UNL     1       8.944   5.780  17.726  0.00  0.00    +0.000 HD
ENDROOT
BRANCH  13  27
ATOM     27  C   UNL     1      -0.326  12.279  20.439  0.00  0.00    +0.000 C 
BRANCH  27  28
ATOM     28  C   UNL     1       0.671  13.294  20.935  0.00  0.00    +0.000 A 
ATOM     29  C   UNL     1       2.026  13.200  20.586  0.00  0.00    +0.000 A 
ATOM     30  C   UNL     1       2.950  14.131  21.070  0.00  0.00    +0.000 A 
ATOM     31  C   UNL     1       2.532  15.163  21.909  0.00  0.00    +0.000 A 
ATOM     32  C   UNL     1       1.189  15.263  22.267  0.00  0.00    +0.000 A 
ATOM     33  C   UNL     1       0.275  14.332  21.782  0.00  0.00    +0.000 A 
ATOM     34  F   UNL     1      -1.009  14.444  22.150  0.00  0.00    +0.000 F 
ENDBRANCH  27  28
ENDBRANCH  13  27
TORSDOF 2
ENDMDL
MODEL 6
REMARK VINA RESULT:      -9.0      1.767      2.238
REMARK  Name = 
REMARK  3 active torsions:
REMARK  status: ('A' for Active; 'I' for Inactive)
REMARK    1  A    between atoms: C_1  and  C_2
REMARK    2  A    between atoms: C_13  and  C_15
REMARK    3  A    between atoms: C_15  and  C_16
REMARK                            x       y       z     vdW  Elec       q    Type
REMARK                         _______ _______ _______ _____ _____    ______ ____
ROOT
ATOM      1  C   UNL     1       7.792   8.136  17.461  0.00  0.00    +0.000 C 
ATOM      2  C   UNL     1       7.129   6.822  17.590  0.00  0.00    +0.000 A 
ATOM      3  C   UNL     1       5.812   6.486  17.799  0.00  0.00    +0.000 A 
ATOM      4  C   UNL     1       5.770   5.071  17.854  0.00  0.00    +0.000 A 
ATOM      5  N   UNL     1       4.693   4.281  18.074  0.00  0.00    +0.000 N 
ATOM      6  C   UNL     1       3.595   4.699  18.800  0.00  0.00    +0.000 A 
ATOM      7  N   UNL     1       3.238   5.944  18.882  0.00  0.00    +0.000 NA
ATOM      8  C   UNL     1       2.216   6.365  19.691  0.00  0.00    +0.000 A 
ATOM      9  N   UNL     1       1.998   7.720  19.730  0.00  0.00    +0.000 N 
ATOM     10  C   UNL     1       2.314   8.604  18.605  0.00  0.00    +0.000 C 
ATOM     11  C   UNL     1       1.112   9.524  18.325  0.00  0.00    +0.000 C 
ATOM     12  N   UNL     1       0.684  10.231  19.541  0.00  0.00    +0.000 N 
ATOM     13  C   UNL     1       0.396  11.582  19.470  0.00  0.00    +0.000 C 
ATOM     14  O   UNL     1       0.493  12.211  18.411  0.00  0.00    +0.000 OA
ATOM     15  C   UNL     1       0.422   9.344  20.688  0.00  0.00    +0.000 C 
ATOM     16  C   UNL     1       1.608   8.409  20.959  0.00  0.00    +0.000 C 
ATOM     17  N   UNL     1       1.480   5.571  20.409  0.00  0.00    +0.000 NA
ATOM     18  N   UNL     1       1.763   4.269  20.273  0.00  0.00    +0.000 N 
ATOM     19  C   UNL     1       1.087   3.236  20.865  0.00  0.00    +0.000 A 
ATOM     20  C   UNL     1       1.683   2.054  20.482  0.00  0.00    +0.000 A 
ATOM     21  C   UNL     1       2.762   2.389  19.624  0.00  0.00    +0.000 A 
ATOM     22  C   UNL     1       2.774   3.765  19.513  0.00  0.00    +0.000 A 
ATOM     23  N   UNL     1       6.989   4.559  17.650  0.00  0.00    +0.000 NA
ATOM     24  N   UNL     1       7.789   5.631  17.515  0.00  0.00    +0.000 N 
ATOM     25  H   UNL     1       4.907   3.296  18.122  0.00  0.00    +0.000 HD
ATOM     26  H   UNL     1       8.781   5.475  17.371  0.00  0.00    +0.000 HD
ENDROOT
BRANCH  13  27
ATOM     27  C   UNL     1      -0.017  12.317  20.737  0.00  0.00    +0.000 C 
BRANCH  27  28
ATOM     28  C   UNL     1       0.224  13.803  20.679  0.00  0.00    +0.000 A 
ATOM     29  C   UNL     1      -0.818  14.687  20.362  0.00  0.00    +0.000 A 
ATOM     30  C   UNL     1      -0.581  16.063  20.285  0.00  0.00    +0.000 A 
ATOM     31  C   UNL     1       0.696  16.570  20.521  0.00  0.00    +0.000 A 
ATOM     32  C   UNL     1       1.740  15.700  20.830  0.00  0.00    +0.000 A 
ATOM     33  C   UNL     1       1.497  14.331  20.904  0.00  0.00    +0.000 A 
ATOM     34  F   UNL     1       2.520  13.515  21.192  0.00  0.00    +0.000 F 
ENDBRANCH  27  28
ENDBRANCH  13  27
TORSDOF 2
ENDMDL
MODEL 7
REMARK VINA RESULT:      -8.6      3.576      9.216
REMARK  Name = 
REMARK  3 active torsions:
REMARK  status: ('A' for Active; 'I' for Inactive)
REMARK    1  A    between atoms: C_1  and  C_2
REMARK    2  A    between atoms: C_13  and  C_15
REMARK    3  A    between atoms: C_15  and  C_16
REMARK                            x       y       z     vdW  Elec       q    Type
REMARK                         _______ _______ _______ _____ _____    ______ ____
ROOT
ATOM      1  C   UNL     1      -3.483   9.304  14.685  0.00  0.00    +0.000 C 
ATOM      2  C   UNL     1      -3.584  10.322  15.750  0.00  0.00    +0.000 A 
ATOM      3  C   UNL     1      -2.711  10.681  16.750  0.00  0.00    +0.000 A 
ATOM      4  C   UNL     1      -3.354  11.708  17.485  0.00  0.00    +0.000 A 
ATOM      5  N   UNL     1      -2.895  12.354  18.583  0.00  0.00    +0.000 N 
ATOM      6  C   UNL     1      -2.007  11.780  19.472  0.00  0.00    +0.000 A 
ATOM      7  N   UNL     1      -1.155  10.866  19.124  0.00  0.00    +0.000 NA
ATOM      8  C   UNL     1      -0.355  10.222  20.030  0.00  0.00    +0.000 A 
ATOM      9  N   UNL     1       0.447   9.228  19.526  0.00  0.00    +0.000 N 
ATOM     10  C   UNL     1       0.939   9.232  18.146  0.00  0.00    +0.000 C 
ATOM     11  C   UNL     1       2.452   8.948  18.142  0.00  0.00    +0.000 C 
ATOM     12  N   UNL     1       2.769   7.721  18.887  0.00  0.00    +0.000 N 
ATOM     13  C   UNL     1       3.660   6.814  18.344  0.00  0.00    +0.000 C 
ATOM     14  O   UNL     1       4.195   7.006  17.247  0.00  0.00    +0.000 OA
ATOM     15  C   UNL     1       2.224   7.694  20.256  0.00  0.00    +0.000 C 
ATOM     16  C   UNL     1       0.720   7.999  20.269  0.00  0.00    +0.000 C 
ATOM     17  N   UNL     1      -0.332  10.489  21.302  0.00  0.00    +0.000 NA
ATOM     18  N   UNL     1      -1.134  11.493  21.678  0.00  0.00    +0.000 N 
ATOM     19  C   UNL     1      -1.234  12.008  22.942  0.00  0.00    +0.000 A 
ATOM     20  C   UNL     1      -2.165  13.024  22.923  0.00  0.00    +0.000 A 
ATOM     21  C   UNL     1      -2.645  13.125  21.592  0.00  0.00    +0.000 A 
ATOM     22  C   UNL     1      -1.978  12.170  20.851  0.00  0.00    +0.000 A 
ATOM     23  N   UNL     1      -4.543  11.995  16.944  0.00  0.00    +0.000 NA
ATOM     24  N   UNL     1      -4.666  11.136  15.918  0.00  0.00    +0.000 N 
ATOM     25  H   UNL     1      -3.547  13.018  18.974  0.00  0.00    +0.000 HD
ATOM     26  H   UNL     1      -5.519  11.161  15.370  0.00  0.00    +0.000 HD
ENDROOT
BRANCH  13  27
ATOM     27  C   UNL     1       3.961   5.530  19.104  0.00  0.00    +0.000 C 
BRANCH  27  28
ATOM     28  C   UNL     1       2.889   4.482  18.967  0.00  0.00    +0.000 A 
ATOM     29  C   UNL     1       1.936   4.291  19.980  0.00  0.00    +0.000 A 
ATOM     30  C   UNL     1       0.959   3.299  19.857  0.00  0.00    +0.000 A 
ATOM     31  C   UNL     1       0.923   2.485  18.725  0.00  0.00    +0.000 A 
ATOM     32  C   UNL     1       1.868   2.661  17.716  0.00  0.00    +0.000 A 
ATOM     33  C   UNL     1       2.839   3.650  17.846  0.00  0.00    +0.000 A 
ATOM     34  F   UNL     1       3.743   3.791  16.866  0.00  0.00    +0.000 F 
ENDBRANCH  27  28
ENDBRANCH  13  27
TORSDOF 2
ENDMDL
MODEL 8
REMARK VINA RESULT:      -8.6      3.261      9.064
REMARK  Name = 
REMARK  3 active torsions:
REMARK  status: ('A' for Active; 'I' for Inactive)
REMARK    1  A    between atoms: C_1  and  C_2
REMARK    2  A    between atoms: C_13  and  C_15
REMARK    3  A    between atoms: C_15  and  C_16
REMARK                            x       y       z     vdW  Elec       q    Type
REMARK                         _______ _______ _______ _____ _____    ______ ____
ROOT
ATOM      1  C   UNL     1      -3.650   9.297  14.906  0.00  0.00    +0.000 C 
ATOM      2  C   UNL     1      -3.719  10.324  15.965  0.00  0.00    +0.000 A 
ATOM      3  C   UNL     1      -2.818  10.689  16.938  0.00  0.00    +0.000 A 
ATOM      4  C   UNL     1      -3.438  11.722  17.682  0.00  0.00    +0.000 A 
ATOM      5  N   UNL     1      -2.948  12.376  18.761  0.00  0.00    +0.000 N 
ATOM      6  C   UNL     1      -2.036  11.808  19.630  0.00  0.00    +0.000 A 
ATOM      7  N   UNL     1      -1.196  10.889  19.265  0.00  0.00    +0.000 NA
ATOM      8  C   UNL     1      -0.372  10.251  20.154  0.00  0.00    +0.000 A 
ATOM      9  N   UNL     1       0.414   9.251  19.636  0.00  0.00    +0.000 N 
ATOM     10  C   UNL     1       0.866   9.244  18.243  0.00  0.00    +0.000 C 
ATOM     11  C   UNL     1       2.378   8.957  18.199  0.00  0.00    +0.000 C 
ATOM     12  N   UNL     1       2.714   7.735  18.944  0.00  0.00    +0.000 N 
ATOM     13  C   UNL     1       3.589   6.821  18.384  0.00  0.00    +0.000 C 
ATOM     14  O   UNL     1       4.093   7.004  17.271  0.00  0.00    +0.000 OA
ATOM     15  C   UNL     1       2.208   7.720  20.328  0.00  0.00    +0.000 C 
ATOM     16  C   UNL     1       0.705   8.028  20.381  0.00  0.00    +0.000 C 
ATOM     17  N   UNL     1      -0.313  10.528  21.422  0.00  0.00    +0.000 NA
ATOM     18  N   UNL     1      -1.102  11.537  21.813  0.00  0.00    +0.000 N 
ATOM     19  C   UNL     1      -1.167  12.062  23.075  0.00  0.00    +0.000 A 
ATOM     20  C   UNL     1      -2.096  13.080  23.074  0.00  0.00    +0.000 A 
ATOM     21  C   UNL     1      -2.612  13.172  21.756  0.00  0.00    +0.000 A 
ATOM     22  C   UNL     1      -1.968  12.209  21.004  0.00  0.00    +0.000 A 
ATOM     23  N   UNL     1      -4.641  12.008  17.172  0.00  0.00    +0.000 NA
ATOM     24  N   UNL     1      -4.795  11.141  16.157  0.00  0.00    +0.000 N 
ATOM     25  H   UNL     1      -3.587  13.045  19.165  0.00  0.00    +0.000 HD
ATOM     26  H   UNL     1      -5.663  11.163  15.633  0.00  0.00    +0.000 HD
ENDROOT
BRANCH  13  27
ATOM     27  C   UNL     1       3.909   5.543  19.145  0.00  0.00    +0.000 C 
BRANCH  27  28
ATOM     28  C   UNL     1       2.808   4.516  19.091  0.00  0.00    +0.000 A 
ATOM     29  C   UNL     1       2.420   3.943  17.871  0.00  0.00    +0.000 A 
ATOM     30  C   UNL     1       1.380   3.009  17.825  0.00  0.00    +0.000 A 
ATOM     31  C   UNL     1       0.716   2.640  18.994  0.00  0.00    +0.000 A 
ATOM     32  C   UNL     1       1.088   3.209  20.211  0.00  0.00    +0.000 A 
ATOM     33  C   UNL     1       2.124   4.138  20.249  0.00  0.00    +0.000 A 
ATOM     34  F   UNL     1       2.456   4.678  21.430  0.00  0.00    +0.000 F 
ENDBRANCH  27  28
ENDBRANCH  13  27
TORSDOF 2
ENDMDL
MODEL 9
REMARK VINA RESULT:      -8.4      2.266      4.657
REMARK  Name = 
REMARK  3 active torsions:
REMARK  status: ('A' for Active; 'I' for Inactive)
REMARK    1  A    between atoms: C_1  and  C_2
REMARK    2  A    between atoms: C_13  and  C_15
REMARK    3  A    between atoms: C_15  and  C_16
REMARK                            x       y       z     vdW  Elec       q    Type
REMARK                         _______ _______ _______ _____ _____    ______ ____
ROOT
ATOM      1  C   UNL     1       0.096   2.169  19.146  0.00  0.00    +0.000 C 
ATOM      2  C   UNL     1       1.555   2.305  18.961  0.00  0.00    +0.000 A 
ATOM      3  C   UNL     1       2.387   3.395  19.066  0.00  0.00    +0.000 A 
ATOM      4  C   UNL     1       3.689   2.929  18.760  0.00  0.00    +0.000 A 
ATOM      5  N   UNL     1       4.835   3.647  18.703  0.00  0.00    +0.000 N 
ATOM      6  C   UNL     1       4.859   4.996  18.404  0.00  0.00    +0.000 A 
ATOM      7  N   UNL     1       3.866   5.790  18.661  0.00  0.00    +0.000 NA
ATOM      8  C   UNL     1       3.850   7.101  18.262  0.00  0.00    +0.000 A 
ATOM      9  N   UNL     1       2.703   7.802  18.542  0.00  0.00    +0.000 N 
ATOM     10  C   UNL     1       1.838   7.481  19.680  0.00  0.00    +0.000 C 
ATOM     11  C   UNL     1       1.509   8.772  20.451  0.00  0.00    +0.000 C 
ATOM     12  N   UNL     1       0.965   9.806  19.559  0.00  0.00    +0.000 N 
ATOM     13  C   UNL     1      -0.143  10.530  19.960  0.00  0.00    +0.000 C 
ATOM     14  O   UNL     1      -0.690  10.327  21.050  0.00  0.00    +0.000 OA
ATOM     15  C   UNL     1       1.809  10.086  18.384  0.00  0.00    +0.000 C 
ATOM     16  C   UNL     1       2.159   8.800  17.623  0.00  0.00    +0.000 C 
ATOM     17  N   UNL     1       4.830   7.686  17.641  0.00  0.00    +0.000 NA
ATOM     18  N   UNL     1       5.908   6.916  17.444  0.00  0.00    +0.000 N 
ATOM     19  C   UNL     1       7.088   7.319  16.880  0.00  0.00    +0.000 A 
ATOM     20  C   UNL     1       7.945   6.240  16.852  0.00  0.00    +0.000 A 
ATOM     21  C   UNL     1       7.252   5.142  17.423  0.00  0.00    +0.000 A 
ATOM     22  C   UNL     1       6.001   5.601  17.784  0.00  0.00    +0.000 A 
ATOM     23  N   UNL     1       3.669   1.614  18.517  0.00  0.00    +0.000 NA
ATOM     24  N   UNL     1       2.374   1.268  18.624  0.00  0.00    +0.000 N 
ATOM     25  H   UNL     1       5.642   3.115  18.413  0.00  0.00    +0.000 HD
ATOM     26  H   UNL     1       2.120   0.301  18.453  0.00  0.00    +0.000 HD
ENDROOT
BRANCH  13  27
ATOM     27  C   UNL     1      -0.721  11.577  19.020  0.00  0.00    +0.000 C 
BRANCH  27  28
ATOM     28  C   UNL     1      -2.114  11.257  18.544  0.00  0.00    +0.000 A 
ATOM     29  C   UNL     1      -3.223  11.954  19.045  0.00  0.00    +0.000 A 
ATOM     30  C   UNL     1      -4.515  11.634  18.617  0.00  0.00    +0.000 A 
ATOM     31  C   UNL     1      -4.714  10.615  17.687  0.00  0.00    +0.000 A 
ATOM     32  C   UNL     1      -3.620   9.912  17.186  0.00  0.00    +0.000 A 
ATOM     33  C   UNL     1      -2.337  10.235  17.618  0.00  0.00    +0.000 A 
ATOM     34  F   UNL     1      -1.302   9.536  17.130  0.00  0.00    +0.000 F 
ENDBRANCH  27  28
ENDBRANCH  13  27
TORSDOF 2
ENDMDL
