MODEL 1
REMARK VINA RESULT:      -7.6      0.000      0.000
REMARK  Name = 
REMARK  6 active torsions:
REMARK  status: ('A' for Active; 'I' for Inactive)
REMARK    1  A    between atoms: C_1  and  C_2
REMARK    2  A    between atoms: C_6  and  C_7
REMARK    3  A    between atoms: C_7  and  C_8
REMARK    4  A    between atoms: C_7  and  C_13
REMARK    5  A    between atoms: C_8  and  C_9
REMARK    6  A    between atoms: C_19  and  C_20
REMARK                            x       y       z     vdW  Elec       q    Type
REMARK                         _______ _______ _______ _____ _____    ______ ____
ROOT
ATOM      1  C   UNL     1       6.980   3.690  11.859  0.00  0.00    +0.000 C 
ATOM      2  C   UNL     1       6.537   4.016  13.256  0.00  0.00    +0.000 A 
ATOM      3  C   UNL     1       7.102   5.089  13.935  0.00  0.00    +0.000 A 
ATOM      4  C   UNL     1       6.673   5.431  15.223  0.00  0.00    +0.000 A 
ATOM      5  C   UNL     1       5.693   4.670  15.900  0.00  0.00    +0.000 A 
ATOM      6  C   UNL     1       5.040   4.716  17.202  0.00  0.00    +0.000 A 
ATOM      7  C   UNL     1       4.116   3.653  17.214  0.00  0.00    +0.000 A 
ATOM      8  N   UNL     1       4.259   2.984  16.022  0.00  0.00    +0.000 N 
ATOM      9  C   UNL     1       5.167   3.587  15.199  0.00  0.00    +0.000 A 
ATOM     10  C   UNL     1       5.553   3.246  13.888  0.00  0.00    +0.000 A 
ATOM     11  H   UNL     1       3.726   2.165  15.760  0.00  0.00    +0.000 HD
ENDROOT
BRANCH   7  12
ATOM     12  C   UNL     1       3.058   3.257  18.177  0.00  0.00    +0.000 A 
ATOM     13  C   UNL     1       1.705   3.497  17.878  0.00  0.00    +0.000 A 
ATOM     14  C   UNL     1       0.705   3.281  18.833  0.00  0.00    +0.000 A 
ATOM     15  C   UNL     1       1.044   2.837  20.107  0.00  0.00    +0.000 A 
ATOM     16  C   UNL     1       2.371   2.549  20.402  0.00  0.00    +0.000 A 
ATOM     17  C   UNL     1       3.363   2.724  19.430  0.00  0.00    +0.000 A 
ENDBRANCH   7  12
BRANCH   6  18
ATOM     18  C   UNL     1       5.283   5.725  18.343  0.00  0.00    +0.000 C 
BRANCH  18  19
ATOM     19  C   UNL     1       4.025   6.590  18.498  0.00  0.00    +0.000 A 
ATOM     20  C   UNL     1       3.254   6.446  19.670  0.00  0.00    +0.000 A 
ATOM     21  C   UNL     1       2.111   7.218  19.883  0.00  0.00    +0.000 A 
ATOM     22  C   UNL     1       1.717   8.155  18.929  0.00  0.00    +0.000 A 
ATOM     23  C   UNL     1       2.470   8.320  17.771  0.00  0.00    +0.000 A 
ATOM     24  C   UNL     1       3.623   7.559  17.564  0.00  0.00    +0.000 A 
ENDBRANCH  18  19
BRANCH  18  25
ATOM     25  C   UNL     1       6.477   6.675  18.248  0.00  0.00    +0.000 C 
BRANCH  25  26
ATOM     26  C   UNL     1       7.743   6.151  18.890  0.00  0.00    +0.000 C 
ATOM     27  F   UNL     1       7.585   5.736  20.158  0.00  0.00    +0.000 F 
ATOM     28  F   UNL     1       8.235   5.111  18.172  0.00  0.00    +0.000 F 
ATOM     29  F   UNL     1       8.706   7.105  18.897  0.00  0.00    +0.000 F 
ENDBRANCH  25  26
ENDBRANCH  18  25
ENDBRANCH   6  18
TORSDOF 5
ENDMDL
MODEL 2
REMARK VINA RESULT:      -7.6      0.434      1.230
REMARK  Name = 
REMARK  6 active torsions:
REMARK  status: ('A' for Active; 'I' for Inactive)
REMARK    1  A    between atoms: C_1  and  C_2
REMARK    2  A    between atoms: C_6  and  C_7
REMARK    3  A    between atoms: C_7  and  C_8
REMARK    4  A    between atoms: C_7  and  C_13
REMARK    5  A    between atoms: C_8  and  C_9
REMARK    6  A    between atoms: C_19  and  C_20
REMARK                            x       y       z     vdW  Elec       q    Type
REMARK                         _______ _______ _______ _____ _____    ______ ____
ROOT
ATOM      1  C   UNL     1       7.399   4.272  11.751  0.00  0.00    +0.000 C 
ATOM      2  C   UNL     1       6.886   4.443  13.151  0.00  0.00    +0.000 A 
ATOM      3  C   UNL     1       7.457   5.390  13.994  0.00  0.00    +0.000 A 
ATOM      4  C   UNL     1       6.964   5.589  15.290  0.00  0.00    +0.000 A 
ATOM      5  C   UNL     1       5.910   4.803  15.806  0.00  0.00    +0.000 A 
ATOM      6  C   UNL     1       5.180   4.720  17.065  0.00  0.00    +0.000 A 
ATOM      7  C   UNL     1       4.208   3.715  16.888  0.00  0.00    +0.000 A 
ATOM      8  N   UNL     1       4.394   3.195  15.629  0.00  0.00    +0.000 N 
ATOM      9  C   UNL     1       5.379   3.847  14.943  0.00  0.00    +0.000 A 
ATOM     10  C   UNL     1       5.829   3.653  13.623  0.00  0.00    +0.000 A 
ATOM     11  H   UNL     1       3.841   2.445  15.235  0.00  0.00    +0.000 HD
ENDROOT
BRANCH   7  12
ATOM     12  C   UNL     1       3.075   3.259  17.731  0.00  0.00    +0.000 A 
ATOM     13  C   UNL     1       1.794   3.814  17.554  0.00  0.00    +0.000 A 
ATOM     14  C   UNL     1       0.751   3.518  18.439  0.00  0.00    +0.000 A 
ATOM     15  C   UNL     1       0.975   2.677  19.524  0.00  0.00    +0.000 A 
ATOM     16  C   UNL     1       2.221   2.082  19.683  0.00  0.00    +0.000 A 
ATOM     17  C   UNL     1       3.250   2.345  18.770  0.00  0.00    +0.000 A 
ENDBRANCH   7  12
BRANCH   6  18
ATOM     18  C   UNL     1       5.398   5.562  18.338  0.00  0.00    +0.000 C 
BRANCH  18  19
ATOM     19  C   UNL     1       4.137   6.403  18.582  0.00  0.00    +0.000 A 
ATOM     20  C   UNL     1       3.764   7.349  17.605  0.00  0.00    +0.000 A 
ATOM     21  C   UNL     1       2.617   8.130  17.755  0.00  0.00    +0.000 A 
ATOM     22  C   UNL     1       1.814   7.975  18.885  0.00  0.00    +0.000 A 
ATOM     23  C   UNL     1       2.158   7.039  19.854  0.00  0.00    +0.000 A 
ATOM     24  C   UNL     1       3.298   6.247  19.697  0.00  0.00    +0.000 A 
ENDBRANCH  18  19
BRANCH  18  25
ATOM     25  C   UNL     1       6.595   6.511  18.401  0.00  0.00    +0.000 C 
BRANCH  25  26
ATOM     26  C   UNL     1       7.833   5.911  19.030  0.00  0.00    +0.000 C 
ATOM     27  F   UNL     1       8.297   4.819  18.399  0.00  0.00    +0.000 F 
ATOM     28  F   UNL     1       8.832   6.828  19.060  0.00  0.00    +0.000 F 
ATOM     29  F   UNL     1       7.593   5.559  20.317  0.00  0.00    +0.000 F 
ENDBRANCH  25  26
ENDBRANCH  18  25
ENDBRANCH   6  18
TORSDOF 5
ENDMDL
MODEL 3
REMARK VINA RESULT:      -7.2      0.321      1.181
REMARK  Name = 
REMARK  6 active torsions:
REMARK  status: ('A' for Active; 'I' for Inactive)
REMARK    1  A    between atoms: C_1  and  C_2
REMARK    2  A    between atoms: C_6  and  C_7
REMARK    3  A    between atoms: C_7  and  C_8
REMARK    4  A    between atoms: C_7  and  C_13
REMARK    5  A    between atoms: C_8  and  C_9
REMARK    6  A    between atoms: C_19  and  C_20
REMARK                            x       y       z     vdW  Elec       q    Type
REMARK                         _______ _______ _______ _____ _____    ______ ____
ROOT
ATOM      1  C   UNL     1       7.151   3.765  11.727  0.00  0.00    +0.000 C 
ATOM      2  C   UNL     1       6.675   4.084  13.114  0.00  0.00    +0.000 A 
ATOM      3  C   UNL     1       7.276   5.106  13.841  0.00  0.00    +0.000 A 
ATOM      4  C   UNL     1       6.818   5.442  15.121  0.00  0.00    +0.000 A 
ATOM      5  C   UNL     1       5.771   4.725  15.742  0.00  0.00    +0.000 A 
ATOM      6  C   UNL     1       5.072   4.780  17.020  0.00  0.00    +0.000 A 
ATOM      7  C   UNL     1       4.087   3.773  16.971  0.00  0.00    +0.000 A 
ATOM      8  N   UNL     1       4.237   3.125  15.768  0.00  0.00    +0.000 N 
ATOM      9  C   UNL     1       5.209   3.692  14.994  0.00  0.00    +0.000 A 
ATOM     10  C   UNL     1       5.623   3.359  13.690  0.00  0.00    +0.000 A 
ATOM     11  H   UNL     1       3.667   2.345  15.466  0.00  0.00    +0.000 HD
ENDROOT
BRANCH   7  12
ATOM     12  C   UNL     1       2.972   3.419  17.884  0.00  0.00    +0.000 A 
ATOM     13  C   UNL     1       3.189   2.530  18.952  0.00  0.00    +0.000 A 
ATOM     14  C   UNL     1       2.123   2.057  19.725  0.00  0.00    +0.000 A 
ATOM     15  C   UNL     1       0.822   2.453  19.434  0.00  0.00    +0.000 A 
ATOM     16  C   UNL     1       0.597   3.369  18.414  0.00  0.00    +0.000 A 
ATOM     17  C   UNL     1       1.671   3.875  17.671  0.00  0.00    +0.000 A 
ENDBRANCH   7  12
BRANCH   6  18
ATOM     18  C   UNL     1       5.330   5.746  18.194  0.00  0.00    +0.000 C 
BRANCH  18  19
ATOM     19  C   UNL     1       4.082   6.617  18.384  0.00  0.00    +0.000 A 
ATOM     20  C   UNL     1       3.310   6.436  19.550  0.00  0.00    +0.000 A 
ATOM     21  C   UNL     1       2.175   7.212  19.795  0.00  0.00    +0.000 A 
ATOM     22  C   UNL     1       1.792   8.191  18.878  0.00  0.00    +0.000 A 
ATOM     23  C   UNL     1       2.546   8.393  17.727  0.00  0.00    +0.000 A 
ATOM     24  C   UNL     1       3.691   7.627  17.490  0.00  0.00    +0.000 A 
ENDBRANCH  18  19
BRANCH  18  25
ATOM     25  C   UNL     1       6.534   6.685  18.128  0.00  0.00    +0.000 C 
BRANCH  25  26
ATOM     26  C   UNL     1       7.766   6.172  18.841  0.00  0.00    +0.000 C 
ATOM     27  F   UNL     1       8.749   7.080  18.962  0.00  0.00    +0.000 F 
ATOM     28  F   UNL     1       7.440   5.746  20.086  0.00  0.00    +0.000 F 
ATOM     29  F   UNL     1       8.285   5.103  18.189  0.00  0.00    +0.000 F 
ENDBRANCH  25  26
ENDBRANCH  18  25
ENDBRANCH   6  18
TORSDOF 5
ENDMDL
MODEL 4
REMARK VINA RESULT:      -7.0      1.370      5.604
REMARK  Name = 
REMARK  6 active torsions:
REMARK  status: ('A' for Active; 'I' for Inactive)
REMARK    1  A    between atoms: C_1  and  C_2
REMARK    2  A    between atoms: C_6  and  C_7
REMARK    3  A    between atoms: C_7  and  C_8
REMARK    4  A    between atoms: C_7  and  C_13
REMARK    5  A    between atoms: C_8  and  C_9
REMARK    6  A    between atoms: C_19  and  C_20
REMARK                            x       y       z     vdW  Elec       q    Type
REMARK                         _______ _______ _______ _____ _____    ______ ____
ROOT
ATOM      1  C   UNL     1       0.657  10.115  19.091  0.00  0.00    +0.000 C 
ATOM      2  C   UNL     1       1.567   8.943  18.868  0.00  0.00    +0.000 A 
ATOM      3  C   UNL     1       1.698   7.963  19.846  0.00  0.00    +0.000 A 
ATOM      4  C   UNL     1       2.513   6.844  19.637  0.00  0.00    +0.000 A 
ATOM      5  C   UNL     1       3.271   6.694  18.454  0.00  0.00    +0.000 A 
ATOM      6  C   UNL     1       4.204   5.709  17.921  0.00  0.00    +0.000 A 
ATOM      7  C   UNL     1       4.573   6.172  16.643  0.00  0.00    +0.000 A 
ATOM      8  N   UNL     1       3.949   7.383  16.459  0.00  0.00    +0.000 N 
ATOM      9  C   UNL     1       3.135   7.707  17.507  0.00  0.00    +0.000 A 
ATOM     10  C   UNL     1       2.292   8.822  17.675  0.00  0.00    +0.000 A 
ATOM     11  H   UNL     1       4.044   7.953  15.629  0.00  0.00    +0.000 HD
ENDROOT
BRANCH   7  12
ATOM     12  C   UNL     1       5.368   5.561  15.548  0.00  0.00    +0.000 A 
ATOM     13  C   UNL     1       4.772   4.636  14.673  0.00  0.00    +0.000 A 
ATOM     14  C   UNL     1       5.537   3.929  13.739  0.00  0.00    +0.000 A 
ATOM     15  C   UNL     1       6.912   4.125  13.674  0.00  0.00    +0.000 A 
ATOM     16  C   UNL     1       7.509   5.072  14.498  0.00  0.00    +0.000 A 
ATOM     17  C   UNL     1       6.733   5.809  15.400  0.00  0.00    +0.000 A 
ENDBRANCH   7  12
BRANCH   6  18
ATOM     18  C   UNL     1       4.688   4.408  18.594  0.00  0.00    +0.000 C 
BRANCH  18  19
ATOM     19  C   UNL     1       3.478   3.721  19.241  0.00  0.00    +0.000 A 
ATOM     20  C   UNL     1       3.478   3.544  20.640  0.00  0.00    +0.000 A 
ATOM     21  C   UNL     1       2.398   2.946  21.293  0.00  0.00    +0.000 A 
ATOM     22  C   UNL     1       1.293   2.519  20.559  0.00  0.00    +0.000 A 
ATOM     23  C   UNL     1       1.268   2.695  19.180  0.00  0.00    +0.000 A 
ATOM     24  C   UNL     1       2.342   3.307  18.527  0.00  0.00    +0.000 A 
ENDBRANCH  18  19
BRANCH  18  25
ATOM     25  C   UNL     1       5.785   4.489  19.655  0.00  0.00    +0.000 C 
BRANCH  25  26
ATOM     26  C   UNL     1       7.046   5.188  19.196  0.00  0.00    +0.000 C 
ATOM     27  F   UNL     1       6.847   6.438  18.743  0.00  0.00    +0.000 F 
ATOM     28  F   UNL     1       7.940   5.254  20.214  0.00  0.00    +0.000 F 
ATOM     29  F   UNL     1       7.644   4.491  18.200  0.00  0.00    +0.000 F 
ENDBRANCH  25  26
ENDBRANCH  18  25
ENDBRANCH   6  18
TORSDOF 5
ENDMDL
MODEL 5
REMARK VINA RESULT:      -7.0      6.342      9.299
REMARK  Name = 
REMARK  6 active torsions:
REMARK  status: ('A' for Active; 'I' for Inactive)
REMARK    1  A    between atoms: C_1  and  C_2
REMARK    2  A    between atoms: C_6  and  C_7
REMARK    3  A    between atoms: C_7  and  C_8
REMARK    4  A    between atoms: C_7  and  C_13
REMARK    5  A    between atoms: C_8  and  C_9
REMARK    6  A    between atoms: C_19  and  C_20
REMARK                            x       y       z     vdW  Elec       q    Type
REMARK                         _______ _______ _______ _____ _____    ______ ____
ROOT
ATOM      1  C   UNL     1       3.181   5.719  19.057  0.00  0.00    +0.000 C 
ATOM      2  C   UNL     1       2.467   7.040  19.065  0.00  0.00    +0.000 A 
ATOM      3  C   UNL     1       2.192   7.692  17.868  0.00  0.00    +0.000 A 
ATOM      4  C   UNL     1       1.493   8.905  17.855  0.00  0.00    +0.000 A 
ATOM      5  C   UNL     1       1.090   9.537  19.054  0.00  0.00    +0.000 A 
ATOM      6  C   UNL     1       0.389  10.764  19.411  0.00  0.00    +0.000 A 
ATOM      7  C   UNL     1       0.291  10.763  20.816  0.00  0.00    +0.000 A 
ATOM      8  N   UNL     1       0.947   9.641  21.263  0.00  0.00    +0.000 N 
ATOM      9  C   UNL     1       1.405   8.867  20.234  0.00  0.00    +0.000 A 
ATOM     10  C   UNL     1       2.072   7.628  20.274  0.00  0.00    +0.000 A 
ATOM     11  H   UNL     1       1.046   9.388  22.238  0.00  0.00    +0.000 HD
ENDROOT
BRANCH   7  12
ATOM     12  C   UNL     1      -0.427  11.645  21.770  0.00  0.00    +0.000 A 
ATOM     13  C   UNL     1      -1.572  11.179  22.440  0.00  0.00    +0.000 A 
ATOM     14  C   UNL     1      -2.354  12.040  23.218  0.00  0.00    +0.000 A 
ATOM     15  C   UNL     1      -2.013  13.384  23.326  0.00  0.00    +0.000 A 
ATOM     16  C   UNL     1      -0.857  13.849  22.710  0.00  0.00    +0.000 A 
ATOM     17  C   UNL     1      -0.052  12.974  21.970  0.00  0.00    +0.000 A 
ENDBRANCH   7  12
BRANCH   6  18
ATOM     18  C   UNL     1      -0.159  11.847  18.460  0.00  0.00    +0.000 C 
BRANCH  18  19
ATOM     19  C   UNL     1       0.687  13.115  18.635  0.00  0.00    +0.000 A 
ATOM     20  C   UNL     1       0.022  14.350  18.777  0.00  0.00    +0.000 A 
ATOM     21  C   UNL     1       0.732  15.537  18.961  0.00  0.00    +0.000 A 
ATOM     22  C   UNL     1       2.125  15.512  19.014  0.00  0.00    +0.000 A 
ATOM     23  C   UNL     1       2.801  14.303  18.888  0.00  0.00    +0.000 A 
ATOM     24  C   UNL     1       2.089  13.112  18.718  0.00  0.00    +0.000 A 
ENDBRANCH  18  19
BRANCH  18  25
ATOM     25  C   UNL     1      -1.626  12.261  18.577  0.00  0.00    +0.000 C 
BRANCH  25  26
ATOM     26  C   UNL     1      -2.578  11.422  17.752  0.00  0.00    +0.000 C 
ATOM     27  F   UNL     1      -2.278  11.378  16.443  0.00  0.00    +0.000 F 
ATOM     28  F   UNL     1      -2.599  10.148  18.215  0.00  0.00    +0.000 F 
ATOM     29  F   UNL     1      -3.844  11.893  17.858  0.00  0.00    +0.000 F 
ENDBRANCH  25  26
ENDBRANCH  18  25
ENDBRANCH   6  18
TORSDOF 5
ENDMDL
MODEL 6
REMARK VINA RESULT:      -7.0      6.408      9.668
REMARK  Name = 
REMARK  6 active torsions:
REMARK  status: ('A' for Active; 'I' for Inactive)
REMARK    1  A    between atoms: C_1  and  C_2
REMARK    2  A    between atoms: C_6  and  C_7
REMARK    3  A    between atoms: C_7  and  C_8
REMARK    4  A    between atoms: C_7  and  C_13
REMARK    5  A    between atoms: C_8  and  C_9
REMARK    6  A    between atoms: C_19  and  C_20
REMARK                            x       y       z     vdW  Elec       q    Type
REMARK                         _______ _______ _______ _____ _____    ______ ____
ROOT
ATOM      1  C   UNL     1       2.585   6.466  19.991  0.00  0.00    +0.000 C 
ATOM      2  C   UNL     1       1.852   7.775  20.010  0.00  0.00    +0.000 A 
ATOM      3  C   UNL     1       1.663   8.487  18.830  0.00  0.00    +0.000 A 
ATOM      4  C   UNL     1       0.947   9.691  18.824  0.00  0.00    +0.000 A 
ATOM      5  C   UNL     1       0.438  10.252  20.017  0.00  0.00    +0.000 A 
ATOM      6  C   UNL     1      -0.311  11.449  20.380  0.00  0.00    +0.000 A 
ATOM      7  C   UNL     1      -0.522  11.371  21.770  0.00  0.00    +0.000 A 
ATOM      8  N   UNL     1       0.114  10.235  22.209  0.00  0.00    +0.000 N 
ATOM      9  C   UNL     1       0.667   9.524  21.183  0.00  0.00    +0.000 A 
ATOM     10  C   UNL     1       1.350   8.292  21.211  0.00  0.00    +0.000 A 
ATOM     11  H   UNL     1       0.139   9.931  23.175  0.00  0.00    +0.000 HD
ENDROOT
BRANCH   7  12
ATOM     12  C   UNL     1      -1.330  12.192  22.708  0.00  0.00    +0.000 A 
ATOM     13  C   UNL     1      -2.575  11.724  23.163  0.00  0.00    +0.000 A 
ATOM     14  C   UNL     1      -3.423  12.545  23.915  0.00  0.00    +0.000 A 
ATOM     15  C   UNL     1      -3.046  13.851  24.211  0.00  0.00    +0.000 A 
ATOM     16  C   UNL     1      -1.797  14.310  23.810  0.00  0.00    +0.000 A 
ATOM     17  C   UNL     1      -0.933  13.472  23.096  0.00  0.00    +0.000 A 
ENDBRANCH   7  12
BRANCH   6  18
ATOM     18  C   UNL     1      -0.798  12.575  19.445  0.00  0.00    +0.000 C 
BRANCH  18  19
ATOM     19  C   UNL     1      -2.052  12.083  18.711  0.00  0.00    +0.000 A 
ATOM     20  C   UNL     1      -3.301  12.222  19.351  0.00  0.00    +0.000 A 
ATOM     21  C   UNL     1      -4.482  11.815  18.728  0.00  0.00    +0.000 A 
ATOM     22  C   UNL     1      -4.439  11.265  17.448  0.00  0.00    +0.000 A 
ATOM     23  C   UNL     1      -3.219  11.129  16.794  0.00  0.00    +0.000 A 
ATOM     24  C   UNL     1      -2.037  11.550  17.411  0.00  0.00    +0.000 A 
ENDBRANCH  18  19
BRANCH  18  25
ATOM     25  C   UNL     1       0.160  13.126  18.389  0.00  0.00    +0.000 C 
BRANCH  25  26
ATOM     26  C   UNL     1       1.426  13.734  18.952  0.00  0.00    +0.000 C 
ATOM     27  F   UNL     1       1.301  14.202  20.206  0.00  0.00    +0.000 F 
ATOM     28  F   UNL     1       2.425  12.817  18.951  0.00  0.00    +0.000 F 
ATOM     29  F   UNL     1       1.846  14.765  18.179  0.00  0.00    +0.000 F 
ENDBRANCH  25  26
ENDBRANCH  18  25
ENDBRANCH   6  18
TORSDOF 5
ENDMDL
MODEL 7
REMARK VINA RESULT:      -6.9      6.463      9.860
REMARK  Name = 
REMARK  6 active torsions:
REMARK  status: ('A' for Active; 'I' for Inactive)
REMARK    1  A    between atoms: C_1  and  C_2
REMARK    2  A    between atoms: C_6  and  C_7
REMARK    3  A    between atoms: C_7  and  C_8
REMARK    4  A    between atoms: C_7  and  C_13
REMARK    5  A    between atoms: C_8  and  C_9
REMARK    6  A    between atoms: C_19  and  C_20
REMARK                            x       y       z     vdW  Elec       q    Type
REMARK                         _______ _______ _______ _____ _____    ______ ____
ROOT
ATOM      1  C   UNL     1       2.078  17.228  18.416  0.00  0.00    +0.000 C 
ATOM      2  C   UNL     1       1.458  15.893  18.707  0.00  0.00    +0.000 A 
ATOM      3  C   UNL     1       0.123  15.811  19.086  0.00  0.00    +0.000 A 
ATOM      4  C   UNL     1      -0.482  14.570  19.324  0.00  0.00    +0.000 A 
ATOM      5  C   UNL     1       0.251  13.365  19.241  0.00  0.00    +0.000 A 
ATOM      6  C   UNL     1      -0.031  11.947  19.431  0.00  0.00    +0.000 A 
ATOM      7  C   UNL     1       1.171  11.269  19.149  0.00  0.00    +0.000 A 
ATOM      8  N   UNL     1       2.117  12.226  18.872  0.00  0.00    +0.000 N 
ATOM      9  C   UNL     1       1.592  13.487  18.883  0.00  0.00    +0.000 A 
ATOM     10  C   UNL     1       2.214  14.719  18.600  0.00  0.00    +0.000 A 
ATOM     11  H   UNL     1       3.082  12.025  18.645  0.00  0.00    +0.000 HD
ENDROOT
BRANCH   7  12
ATOM     12  C   UNL     1       1.499   9.826  19.021  0.00  0.00    +0.000 A 
ATOM     13  C   UNL     1       1.332   8.964  20.119  0.00  0.00    +0.000 A 
ATOM     14  C   UNL     1       1.784   7.640  20.072  0.00  0.00    +0.000 A 
ATOM     15  C   UNL     1       2.424   7.163  18.934  0.00  0.00    +0.000 A 
ATOM     16  C   UNL     1       2.552   7.988  17.823  0.00  0.00    +0.000 A 
ATOM     17  C   UNL     1       2.059   9.298  17.857  0.00  0.00    +0.000 A 
ENDBRANCH   7  12
BRANCH   6  18
ATOM     18  C   UNL     1      -1.370  11.300  19.840  0.00  0.00    +0.000 C 
BRANCH  18  19
ATOM     19  C   UNL     1      -2.220  11.112  18.576  0.00  0.00    +0.000 A 
ATOM     20  C   UNL     1      -3.499  11.704  18.535  0.00  0.00    +0.000 A 
ATOM     21  C   UNL     1      -4.313  11.590  17.408  0.00  0.00    +0.000 A 
ATOM     22  C   UNL     1      -3.862  10.884  16.293  0.00  0.00    +0.000 A 
ATOM     23  C   UNL     1      -2.599  10.302  16.308  0.00  0.00    +0.000 A 
ATOM     24  C   UNL     1      -1.777  10.429  17.431  0.00  0.00    +0.000 A 
ENDBRANCH  18  19
BRANCH  18  25
ATOM     25  C   UNL     1      -2.246  12.004  20.876  0.00  0.00    +0.000 C 
BRANCH  25  26
ATOM     26  C   UNL     1      -1.713  11.940  22.290  0.00  0.00    +0.000 C 
ATOM     27  F   UNL     1      -2.652  11.699  23.221  0.00  0.00    +0.000 F 
ATOM     28  F   UNL     1      -0.772  10.969  22.391  0.00  0.00    +0.000 F 
ATOM     29  F   UNL     1      -1.105  13.104  22.625  0.00  0.00    +0.000 F 
ENDBRANCH  25  26
ENDBRANCH  18  25
ENDBRANCH   6  18
TORSDOF 5
ENDMDL
MODEL 8
REMARK VINA RESULT:      -6.9      3.205      5.952
REMARK  Name = 
REMARK  6 active torsions:
REMARK  status: ('A' for Active; 'I' for Inactive)
REMARK    1  A    between atoms: C_1  and  C_2
REMARK    2  A    between atoms: C_6  and  C_7
REMARK    3  A    between atoms: C_7  and  C_8
REMARK    4  A    between atoms: C_7  and  C_13
REMARK    5  A    between atoms: C_8  and  C_9
REMARK    6  A    between atoms: C_19  and  C_20
REMARK                            x       y       z     vdW  Elec       q    Type
REMARK                         _______ _______ _______ _____ _____    ______ ____
ROOT
ATOM      1  C   UNL     1       6.984   4.765  15.670  0.00  0.00    +0.000 C 
ATOM      2  C   UNL     1       5.903   5.306  16.559  0.00  0.00    +0.000 A 
ATOM      3  C   UNL     1       5.629   4.694  17.777  0.00  0.00    +0.000 A 
ATOM      4  C   UNL     1       4.649   5.209  18.636  0.00  0.00    +0.000 A 
ATOM      5  C   UNL     1       3.870   6.331  18.276  0.00  0.00    +0.000 A 
ATOM      6  C   UNL     1       2.793   7.102  18.885  0.00  0.00    +0.000 A 
ATOM      7  C   UNL     1       2.492   8.137  17.978  0.00  0.00    +0.000 A 
ATOM      8  N   UNL     1       3.294   7.951  16.877  0.00  0.00    +0.000 N 
ATOM      9  C   UNL     1       4.155   6.903  17.038  0.00  0.00    +0.000 A 
ATOM     10  C   UNL     1       5.160   6.430  16.173  0.00  0.00    +0.000 A 
ATOM     11  H   UNL     1       3.283   8.545  16.058  0.00  0.00    +0.000 HD
ENDROOT
BRANCH   7  12
ATOM     12  C   UNL     1       1.605   9.324  18.072  0.00  0.00    +0.000 A 
ATOM     13  C   UNL     1       2.146  10.588  18.366  0.00  0.00    +0.000 A 
ATOM     14  C   UNL     1       1.318  11.688  18.617  0.00  0.00    +0.000 A 
ATOM     15  C   UNL     1      -0.065  11.537  18.594  0.00  0.00    +0.000 A 
ATOM     16  C   UNL     1      -0.614  10.306  18.258  0.00  0.00    +0.000 A 
ATOM     17  C   UNL     1       0.218   9.220  17.963  0.00  0.00    +0.000 A 
ENDBRANCH   7  12
BRANCH   6  18
ATOM     18  C   UNL     1       2.118   6.862  20.251  0.00  0.00    +0.000 C 
BRANCH  18  19
ATOM     19  C   UNL     1       1.851   5.359  20.399  0.00  0.00    +0.000 A 
ATOM     20  C   UNL     1       2.383   4.691  21.521  0.00  0.00    +0.000 A 
ATOM     21  C   UNL     1       2.158   3.329  21.727  0.00  0.00    +0.000 A 
ATOM     22  C   UNL     1       1.389   2.606  20.815  0.00  0.00    +0.000 A 
ATOM     23  C   UNL     1       0.846   3.248  19.707  0.00  0.00    +0.000 A 
ATOM     24  C   UNL     1       1.058   4.615  19.509  0.00  0.00    +0.000 A 
ENDBRANCH  18  19
BRANCH  18  25
ATOM     25  C   UNL     1       0.811   7.589  20.568  0.00  0.00    +0.000 C 
BRANCH  25  26
ATOM     26  C   UNL     1       0.922   8.616  21.673  0.00  0.00    +0.000 C 
ATOM     27  F   UNL     1       1.065   9.880  21.237  0.00  0.00    +0.000 F 
ATOM     28  F   UNL     1      -0.180   8.573  22.463  0.00  0.00    +0.000 F 
ATOM     29  F   UNL     1       1.982   8.346  22.474  0.00  0.00    +0.000 F 
ENDBRANCH  25  26
ENDBRANCH  18  25
ENDBRANCH   6  18
TORSDOF 5
ENDMDL
MODEL 9
REMARK VINA RESULT:      -6.9      1.308      5.664
REMARK  Name = 
REMARK  6 active torsions:
REMARK  status: ('A' for Active; 'I' for Inactive)
REMARK    1  A    between atoms: C_1  and  C_2
REMARK    2  A    between atoms: C_6  and  C_7
REMARK    3  A    between atoms: C_7  and  C_8
REMARK    4  A    between atoms: C_7  and  C_13
REMARK    5  A    between atoms: C_8  and  C_9
REMARK    6  A    between atoms: C_19  and  C_20
REMARK                            x       y       z     vdW  Elec       q    Type
REMARK                         _______ _______ _______ _____ _____    ______ ____
ROOT
ATOM      1  C   UNL     1       0.876  10.136  18.878  0.00  0.00    +0.000 C 
ATOM      2  C   UNL     1       1.748   8.927  18.703  0.00  0.00    +0.000 A 
ATOM      3  C   UNL     1       1.836   7.977  19.714  0.00  0.00    +0.000 A 
ATOM      4  C   UNL     1       2.615   6.824  19.551  0.00  0.00    +0.000 A 
ATOM      5  C   UNL     1       3.377   6.609  18.381  0.00  0.00    +0.000 A 
ATOM      6  C   UNL     1       4.281   5.576  17.890  0.00  0.00    +0.000 A 
ATOM      7  C   UNL     1       4.676   5.983  16.600  0.00  0.00    +0.000 A 
ATOM      8  N   UNL     1       4.095   7.207  16.371  0.00  0.00    +0.000 N 
ATOM      9  C   UNL     1       3.284   7.594  17.399  0.00  0.00    +0.000 A 
ATOM     10  C   UNL     1       2.478   8.742  17.522  0.00  0.00    +0.000 A 
ATOM     11  H   UNL     1       4.216   7.746  15.523  0.00  0.00    +0.000 HD
ENDROOT
BRANCH   7  12
ATOM     12  C   UNL     1       5.459   5.309  15.534  0.00  0.00    +0.000 A 
ATOM     13  C   UNL     1       6.786   5.700  15.278  0.00  0.00    +0.000 A 
ATOM     14  C   UNL     1       7.487   5.194  14.178  0.00  0.00    +0.000 A 
ATOM     15  C   UNL     1       6.869   4.302  13.308  0.00  0.00    +0.000 A 
ATOM     16  C   UNL     1       5.576   3.869  13.576  0.00  0.00    +0.000 A 
ATOM     17  C   UNL     1       4.893   4.343  14.702  0.00  0.00    +0.000 A 
ENDBRANCH   7  12
BRANCH   6  18
ATOM     18  C   UNL     1       4.714   4.284  18.610  0.00  0.00    +0.000 C 
BRANCH  18  19
ATOM     19  C   UNL     1       3.480   3.669  19.284  0.00  0.00    +0.000 A 
ATOM     20  C   UNL     1       2.420   3.229  18.464  0.00  0.00    +0.000 A 
ATOM     21  C   UNL     1       1.279   2.641  19.012  0.00  0.00    +0.000 A 
ATOM     22  C   UNL     1       1.176   2.476  20.393  0.00  0.00    +0.000 A 
ATOM     23  C   UNL     1       2.215   2.894  21.218  0.00  0.00    +0.000 A 
ATOM     24  C   UNL     1       3.364   3.468  20.669  0.00  0.00    +0.000 A 
ENDBRANCH  18  19
BRANCH  18  25
ATOM     25  C   UNL     1       5.817   4.360  19.667  0.00  0.00    +0.000 C 
BRANCH  25  26
ATOM     26  C   UNL     1       7.028   5.164  19.247  0.00  0.00    +0.000 C 
ATOM     27  F   UNL     1       6.741   6.402  18.810  0.00  0.00    +0.000 F 
ATOM     28  F   UNL     1       7.892   5.282  20.285  0.00  0.00    +0.000 F 
ATOM     29  F   UNL     1       7.700   4.534  18.254  0.00  0.00    +0.000 F 
ENDBRANCH  25  26
ENDBRANCH  18  25
ENDBRANCH   6  18
TORSDOF 5
ENDMDL
