MODEL 1
REMARK VINA RESULT:      -9.0      0.000      0.000
REMARK  Name = 
REMARK  5 active torsions:
REMARK  status: ('A' for Active; 'I' for Inactive)
REMARK    1  A    between atoms: C_2  and  C_3
REMARK    2  A    between atoms: C_7  and  C_8
REMARK    3  A    between atoms: C_10  and  C_11
REMARK    4  A    between atoms: C_14  and  C_15
REMARK    5  A    between atoms: C_15  and  O_17
REMARK                            x       y       z     vdW  Elec       q    Type
REMARK                         _______ _______ _______ _____ _____    ______ ____
ROOT
ATOM      1  C   UNL     1       3.964   5.250  18.913  0.00  0.00    +0.000 A 
ATOM      2  N   UNL     1       3.450   6.515  18.780  0.00  0.00    +0.000 NA
ATOM      3  C   UNL     1       2.379   6.868  19.530  0.00  0.00    +0.000 A 
ATOM      4  C   UNL     1       1.819   5.979  20.440  0.00  0.00    +0.000 A 
ATOM      5  C   UNL     1       2.334   4.682  20.561  0.00  0.00    +0.000 A 
ATOM      6  C   UNL     1       1.775   3.766  21.467  0.00  0.00    +0.000 A 
ATOM      7  C   UNL     1       2.289   2.481  21.573  0.00  0.00    +0.000 A 
ATOM      8  C   UNL     1       3.347   2.147  20.758  0.00  0.00    +0.000 A 
ATOM      9  N   UNL     1       3.905   3.003  19.879  0.00  0.00    +0.000 NA
ATOM     10  C   UNL     1       3.427   4.273  19.777  0.00  0.00    +0.000 A 
ENDROOT
BRANCH   1  15
ATOM     11  C   UNL     1       6.151   4.413  15.889  0.00  0.00    +0.000 A 
ATOM     12  C   UNL     1       7.431   4.568  16.418  0.00  0.00    +0.000 A 
ATOM     13  C   UNL     1       7.586   4.902  17.762  0.00  0.00    +0.000 A 
ATOM     14  C   UNL     1       6.462   5.105  18.573  0.00  0.00    +0.000 A 
ATOM     15  C   UNL     1       5.157   4.982  18.062  0.00  0.00    +0.000 A 
ATOM     16  C   UNL     1       5.033   4.603  16.710  0.00  0.00    +0.000 A 
BRANCH  11  18
ATOM     17  N   UNL     1       5.818   3.800  13.389  0.00  0.00    +0.000 NA
ATOM     18  C   UNL     1       5.969   4.071  14.508  0.00  0.00    +0.000 C 
ENDBRANCH  11  18
ENDBRANCH   1  15
BRANCH   3  19
ATOM     19  C   UNL     1       1.856   8.239  19.331  0.00  0.00    +0.000 A 
ATOM     20  C   UNL     1       2.054   8.943  18.127  0.00  0.00    +0.000 A 
ATOM     21  C   UNL     1       1.530  10.227  17.935  0.00  0.00    +0.000 A 
ATOM     22  C   UNL     1       0.794  10.851  18.946  0.00  0.00    +0.000 A 
ATOM     23  C   UNL     1       0.586  10.176  20.152  0.00  0.00    +0.000 A 
ATOM     24  C   UNL     1       1.123   8.891  20.341  0.00  0.00    +0.000 A 
BRANCH  22  25
ATOM     25  C   UNL     1       0.216  12.189  18.655  0.00  0.00    +0.000 C 
ATOM     26  O   UNL     1       0.628  13.208  19.181  0.00  0.00    +0.000 OA
BRANCH  25  27
ATOM     27  O   UNL     1      -0.821  12.178  17.792  0.00  0.00    +0.000 OA
ATOM     28  H   UNL     1      -0.688  11.653  16.982  0.00  0.00    +0.000 HD
ENDBRANCH  25  27
ENDBRANCH  22  25
ENDBRANCH   3  19
TORSDOF 5
ENDMDL
MODEL 2
REMARK VINA RESULT:      -8.9      0.192      1.119
REMARK  Name = 
REMARK  5 active torsions:
REMARK  status: ('A' for Active; 'I' for Inactive)
REMARK    1  A    between atoms: C_2  and  C_3
REMARK    2  A    between atoms: C_7  and  C_8
REMARK    3  A    between atoms: C_10  and  C_11
REMARK    4  A    between atoms: C_14  and  C_15
REMARK    5  A    between atoms: C_15  and  O_17
REMARK                            x       y       z     vdW  Elec       q    Type
REMARK                         _______ _______ _______ _____ _____    ______ ____
ROOT
ATOM      1  C   UNL     1       3.960   5.261  18.922  0.00  0.00    +0.000 A 
ATOM      2  N   UNL     1       3.445   6.524  18.778  0.00  0.00    +0.000 NA
ATOM      3  C   UNL     1       2.367   6.878  19.518  0.00  0.00    +0.000 A 
ATOM      4  C   UNL     1       1.802   5.993  20.428  0.00  0.00    +0.000 A 
ATOM      5  C   UNL     1       2.318   4.697  20.559  0.00  0.00    +0.000 A 
ATOM      6  C   UNL     1       1.753   3.785  21.465  0.00  0.00    +0.000 A 
ATOM      7  C   UNL     1       2.269   2.501  21.581  0.00  0.00    +0.000 A 
ATOM      8  C   UNL     1       3.333   2.165  20.776  0.00  0.00    +0.000 A 
ATOM      9  N   UNL     1       3.897   3.018  19.898  0.00  0.00    +0.000 NA
ATOM     10  C   UNL     1       3.418   4.287  19.786  0.00  0.00    +0.000 A 
ENDROOT
BRANCH   1  15
ATOM     11  C   UNL     1       6.173   4.411  15.921  0.00  0.00    +0.000 A 
ATOM     12  C   UNL     1       7.448   4.573  16.457  0.00  0.00    +0.000 A 
ATOM     13  C   UNL     1       7.592   4.917  17.800  0.00  0.00    +0.000 A 
ATOM     14  C   UNL     1       6.461   5.121  18.601  0.00  0.00    +0.000 A 
ATOM     15  C   UNL     1       5.160   4.991  18.081  0.00  0.00    +0.000 A 
ATOM     16  C   UNL     1       5.048   4.602  16.731  0.00  0.00    +0.000 A 
BRANCH  11  18
ATOM     17  N   UNL     1       5.860   3.778  13.422  0.00  0.00    +0.000 NA
ATOM     18  C   UNL     1       6.002   4.058  14.540  0.00  0.00    +0.000 C 
ENDBRANCH  11  18
ENDBRANCH   1  15
BRANCH   3  19
ATOM     19  C   UNL     1       1.844   8.248  19.309  0.00  0.00    +0.000 A 
ATOM     20  C   UNL     1       1.096   8.917  20.296  0.00  0.00    +0.000 A 
ATOM     21  C   UNL     1       0.632  10.224  20.103  0.00  0.00    +0.000 A 
ATOM     22  C   UNL     1       0.897  10.901  18.909  0.00  0.00    +0.000 A 
ATOM     23  C   UNL     1       1.634  10.258  17.911  0.00  0.00    +0.000 A 
ATOM     24  C   UNL     1       2.088   8.944  18.109  0.00  0.00    +0.000 A 
BRANCH  22  25
ATOM     25  C   UNL     1       0.426  12.307  18.792  0.00  0.00    +0.000 C 
ATOM     26  O   UNL     1      -0.630  12.601  18.259  0.00  0.00    +0.000 OA
BRANCH  25  27
ATOM     27  O   UNL     1       1.277  13.228  19.290  0.00  0.00    +0.000 OA
ATOM     28  H   UNL     1       1.528  13.107  20.224  0.00  0.00    +0.000 HD
ENDBRANCH  25  27
ENDBRANCH  22  25
ENDBRANCH   3  19
TORSDOF 5
ENDMDL
MODEL 3
REMARK VINA RESULT:      -8.4      3.832      7.330
REMARK  Name = 
REMARK  5 active torsions:
REMARK  status: ('A' for Active; 'I' for Inactive)
REMARK    1  A    between atoms: C_2  and  C_3
REMARK    2  A    between atoms: C_7  and  C_8
REMARK    3  A    between atoms: C_10  and  C_11
REMARK    4  A    between atoms: C_14  and  C_15
REMARK    5  A    between atoms: C_15  and  O_17
REMARK                            x       y       z     vdW  Elec       q    Type
REMARK                         _______ _______ _______ _____ _____    ______ ____
ROOT
ATOM      1  C   UNL     1       2.885   5.953  19.012  0.00  0.00    +0.000 A 
ATOM      2  N   UNL     1       3.735   5.951  17.935  0.00  0.00    +0.000 NA
ATOM      3  C   UNL     1       4.394   4.809  17.624  0.00  0.00    +0.000 A 
ATOM      4  C   UNL     1       4.199   3.647  18.362  0.00  0.00    +0.000 A 
ATOM      5  C   UNL     1       3.346   3.658  19.473  0.00  0.00    +0.000 A 
ATOM      6  C   UNL     1       3.146   2.497  20.238  0.00  0.00    +0.000 A 
ATOM      7  C   UNL     1       2.302   2.520  21.341  0.00  0.00    +0.000 A 
ATOM      8  C   UNL     1       1.690   3.713  21.651  0.00  0.00    +0.000 A 
ATOM      9  N   UNL     1       1.861   4.843  20.937  0.00  0.00    +0.000 NA
ATOM     10  C   UNL     1       2.668   4.833  19.841  0.00  0.00    +0.000 A 
ENDROOT
BRANCH   1  15
ATOM     11  C   UNL     1       1.222   8.919  20.761  0.00  0.00    +0.000 A 
ATOM     12  C   UNL     1       0.965   9.770  19.688  0.00  0.00    +0.000 A 
ATOM     13  C   UNL     1       1.292   9.365  18.395  0.00  0.00    +0.000 A 
ATOM     14  C   UNL     1       1.897   8.122  18.176  0.00  0.00    +0.000 A 
ATOM     15  C   UNL     1       2.193   7.252  19.242  0.00  0.00    +0.000 A 
ATOM     16  C   UNL     1       1.813   7.671  20.533  0.00  0.00    +0.000 A 
BRANCH  11  18
ATOM     17  N   UNL     1       0.626   9.640  23.183  0.00  0.00    +0.000 NA
ATOM     18  C   UNL     1       0.895   9.316  22.101  0.00  0.00    +0.000 C 
ENDBRANCH  11  18
ENDBRANCH   1  15
BRANCH   3  19
ATOM     19  C   UNL     1       5.311   4.871  16.463  0.00  0.00    +0.000 A 
ATOM     20  C   UNL     1       4.983   4.286  15.225  0.00  0.00    +0.000 A 
ATOM     21  C   UNL     1       5.841   4.376  14.122  0.00  0.00    +0.000 A 
ATOM     22  C   UNL     1       7.060   5.051  14.226  0.00  0.00    +0.000 A 
ATOM     23  C   UNL     1       7.412   5.638  15.446  0.00  0.00    +0.000 A 
ATOM     24  C   UNL     1       6.549   5.535  16.549  0.00  0.00    +0.000 A 
BRANCH  22  25
ATOM     25  C   UNL     1       7.897   5.160  13.002  0.00  0.00    +0.000 C 
ATOM     26  O   UNL     1       8.868   5.894  12.937  0.00  0.00    +0.000 OA
BRANCH  25  27
ATOM     27  O   UNL     1       7.473   4.413  11.962  0.00  0.00    +0.000 OA
ATOM     28  H   UNL     1       7.692   3.464  12.010  0.00  0.00    +0.000 HD
ENDBRANCH  25  27
ENDBRANCH  22  25
ENDBRANCH   3  19
TORSDOF 5
ENDMDL
MODEL 4
REMARK VINA RESULT:      -8.4      1.246      1.659
REMARK  Name = 
REMARK  5 active torsions:
REMARK  status: ('A' for Active; 'I' for Inactive)
REMARK    1  A    between atoms: C_2  and  C_3
REMARK    2  A    between atoms: C_7  and  C_8
REMARK    3  A    between atoms: C_10  and  C_11
REMARK    4  A    between atoms: C_14  and  C_15
REMARK    5  A    between atoms: C_15  and  O_17
REMARK                            x       y       z     vdW  Elec       q    Type
REMARK                         _______ _______ _______ _____ _____    ______ ____
ROOT
ATOM      1  C   UNL     1       3.914   5.073  17.593  0.00  0.00    +0.000 A 
ATOM      2  N   UNL     1       3.479   6.360  17.783  0.00  0.00    +0.000 NA
ATOM      3  C   UNL     1       2.436   6.581  18.618  0.00  0.00    +0.000 A 
ATOM      4  C   UNL     1       1.826   5.531  19.295  0.00  0.00    +0.000 A 
ATOM      5  C   UNL     1       2.260   4.215  19.084  0.00  0.00    +0.000 A 
ATOM      6  C   UNL     1       1.649   3.140  19.750  0.00  0.00    +0.000 A 
ATOM      7  C   UNL     1       2.083   1.840  19.528  0.00  0.00    +0.000 A 
ATOM      8  C   UNL     1       3.113   1.654  18.635  0.00  0.00    +0.000 A 
ATOM      9  N   UNL     1       3.720   2.665  17.981  0.00  0.00    +0.000 NA
ATOM     10  C   UNL     1       3.321   3.947  18.202  0.00  0.00    +0.000 A 
ENDROOT
BRANCH   1  15
ATOM     11  C   UNL     1       6.052   4.299  14.518  0.00  0.00    +0.000 A 
ATOM     12  C   UNL     1       7.290   4.811  14.901  0.00  0.00    +0.000 A 
ATOM     13  C   UNL     1       7.442   5.369  16.169  0.00  0.00    +0.000 A 
ATOM     14  C   UNL     1       6.353   5.436  17.046  0.00  0.00    +0.000 A 
ATOM     15  C   UNL     1       5.084   4.951  16.678  0.00  0.00    +0.000 A 
ATOM     16  C   UNL     1       4.972   4.356  15.406  0.00  0.00    +0.000 A 
BRANCH  11  18
ATOM     17  N   UNL     1       5.732   3.251  12.165  0.00  0.00    +0.000 NA
ATOM     18  C   UNL     1       5.873   3.722  13.217  0.00  0.00    +0.000 C 
ENDBRANCH  11  18
ENDBRANCH   1  15
BRANCH   3  19
ATOM     19  C   UNL     1       1.999   7.988  18.771  0.00  0.00    +0.000 A 
ATOM     20  C   UNL     1       1.401   8.456  19.957  0.00  0.00    +0.000 A 
ATOM     21  C   UNL     1       1.019   9.795  20.105  0.00  0.00    +0.000 A 
ATOM     22  C   UNL     1       1.219  10.708  19.066  0.00  0.00    +0.000 A 
ATOM     23  C   UNL     1       1.808  10.268  17.877  0.00  0.00    +0.000 A 
ATOM     24  C   UNL     1       2.179   8.922  17.732  0.00  0.00    +0.000 A 
BRANCH  22  25
ATOM     25  C   UNL     1       0.846  12.127  19.311  0.00  0.00    +0.000 C 
ATOM     26  O   UNL     1       0.522  12.537  20.412  0.00  0.00    +0.000 OA
BRANCH  25  27
ATOM     27  O   UNL     1       0.860  12.909  18.213  0.00  0.00    +0.000 OA
ATOM     28  H   UNL     1       1.740  13.219  17.929  0.00  0.00    +0.000 HD
ENDBRANCH  25  27
ENDBRANCH  22  25
ENDBRANCH   3  19
TORSDOF 5
ENDMDL
MODEL 5
REMARK VINA RESULT:      -8.3      1.243      1.452
REMARK  Name = 
REMARK  5 active torsions:
REMARK  status: ('A' for Active; 'I' for Inactive)
REMARK    1  A    between atoms: C_2  and  C_3
REMARK    2  A    between atoms: C_7  and  C_8
REMARK    3  A    between atoms: C_10  and  C_11
REMARK    4  A    between atoms: C_14  and  C_15
REMARK    5  A    between atoms: C_15  and  O_17
REMARK                            x       y       z     vdW  Elec       q    Type
REMARK                         _______ _______ _______ _____ _____    ______ ____
ROOT
ATOM      1  C   UNL     1       3.681   5.337  18.438  0.00  0.00    +0.000 A 
ATOM      2  N   UNL     1       3.230   6.581  18.800  0.00  0.00    +0.000 NA
ATOM      3  C   UNL     1       2.141   6.675  19.600  0.00  0.00    +0.000 A 
ATOM      4  C   UNL     1       1.501   5.536  20.073  0.00  0.00    +0.000 A 
ATOM      5  C   UNL     1       1.952   4.267  19.687  0.00  0.00    +0.000 A 
ATOM      6  C   UNL     1       1.311   3.104  20.145  0.00  0.00    +0.000 A 
ATOM      7  C   UNL     1       1.763   1.853  19.750  0.00  0.00    +0.000 A 
ATOM      8  C   UNL     1       2.842   1.802  18.897  0.00  0.00    +0.000 A 
ATOM      9  N   UNL     1       3.478   2.899  18.441  0.00  0.00    +0.000 NA
ATOM     10  C   UNL     1       3.062   4.134  18.834  0.00  0.00    +0.000 A 
ENDROOT
BRANCH   1  15
ATOM     11  C   UNL     1       6.052   4.787  15.488  0.00  0.00    +0.000 A 
ATOM     12  C   UNL     1       7.189   5.472  15.911  0.00  0.00    +0.000 A 
ATOM     13  C   UNL     1       7.203   6.075  17.167  0.00  0.00    +0.000 A 
ATOM     14  C   UNL     1       6.073   6.015  17.991  0.00  0.00    +0.000 A 
ATOM     15  C   UNL     1       4.900   5.354  17.581  0.00  0.00    +0.000 A 
ATOM     16  C   UNL     1       4.931   4.719  16.324  0.00  0.00    +0.000 A 
BRANCH  11  18
ATOM     17  N   UNL     1       5.979   3.651  13.155  0.00  0.00    +0.000 NA
ATOM     18  C   UNL     1       6.015   4.160  14.198  0.00  0.00    +0.000 C 
ENDBRANCH  11  18
ENDBRANCH   1  15
BRANCH   3  19
ATOM     19  C   UNL     1       1.690   8.043  19.943  0.00  0.00    +0.000 A 
ATOM     20  C   UNL     1       1.550   9.047  18.965  0.00  0.00    +0.000 A 
ATOM     21  C   UNL     1       1.092  10.330  19.292  0.00  0.00    +0.000 A 
ATOM     22  C   UNL     1       0.765  10.649  20.613  0.00  0.00    +0.000 A 
ATOM     23  C   UNL     1       0.898   9.672  21.604  0.00  0.00    +0.000 A 
ATOM     24  C   UNL     1       1.367   8.391  21.269  0.00  0.00    +0.000 A 
BRANCH  22  25
ATOM     25  C   UNL     1       0.229  12.010  20.882  0.00  0.00    +0.000 C 
ATOM     26  O   UNL     1       0.048  12.829  19.997  0.00  0.00    +0.000 OA
BRANCH  25  27
ATOM     27  O   UNL     1      -0.005  12.275  22.183  0.00  0.00    +0.000 OA
ATOM     28  H   UNL     1       0.078  11.515  22.788  0.00  0.00    +0.000 HD
ENDBRANCH  25  27
ENDBRANCH  22  25
ENDBRANCH   3  19
TORSDOF 5
ENDMDL
MODEL 6
REMARK VINA RESULT:      -7.8      1.972      2.486
REMARK  Name = 
REMARK  5 active torsions:
REMARK  status: ('A' for Active; 'I' for Inactive)
REMARK    1  A    between atoms: C_2  and  C_3
REMARK    2  A    between atoms: C_7  and  C_8
REMARK    3  A    between atoms: C_10  and  C_11
REMARK    4  A    between atoms: C_14  and  C_15
REMARK    5  A    between atoms: C_15  and  O_17
REMARK                            x       y       z     vdW  Elec       q    Type
REMARK                         _______ _______ _______ _____ _____    ______ ____
ROOT
ATOM      1  C   UNL     1       3.103   5.891  19.036  0.00  0.00    +0.000 A 
ATOM      2  N   UNL     1       2.628   7.103  19.468  0.00  0.00    +0.000 NA
ATOM      3  C   UNL     1       1.607   7.126  20.358  0.00  0.00    +0.000 A 
ATOM      4  C   UNL     1       1.061   5.946  20.850  0.00  0.00    +0.000 A 
ATOM      5  C   UNL     1       1.535   4.710  20.392  0.00  0.00    +0.000 A 
ATOM      6  C   UNL     1       0.987   3.508  20.868  0.00  0.00    +0.000 A 
ATOM      7  C   UNL     1       1.460   2.289  20.402  0.00  0.00    +0.000 A 
ATOM      8  C   UNL     1       2.465   2.310  19.463  0.00  0.00    +0.000 A 
ATOM      9  N   UNL     1       3.011   3.447  18.986  0.00  0.00    +0.000 NA
ATOM     10  C   UNL     1       2.574   4.650  19.447  0.00  0.00    +0.000 A 
ENDROOT
BRANCH   1  15
ATOM     11  C   UNL     1       6.519   5.364  17.399  0.00  0.00    +0.000 A 
ATOM     12  C   UNL     1       6.379   6.090  16.218  0.00  0.00    +0.000 A 
ATOM     13  C   UNL     1       5.196   6.783  15.972  0.00  0.00    +0.000 A 
ATOM     14  C   UNL     1       4.143   6.732  16.894  0.00  0.00    +0.000 A 
ATOM     15  C   UNL     1       4.244   5.986  18.083  0.00  0.00    +0.000 A 
ATOM     16  C   UNL     1       5.468   5.330  18.323  0.00  0.00    +0.000 A 
BRANCH  11  18
ATOM     17  N   UNL     1       8.704   4.053  17.897  0.00  0.00    +0.000 NA
ATOM     18  C   UNL     1       7.728   4.641  17.672  0.00  0.00    +0.000 C 
ENDBRANCH  11  18
ENDBRANCH   1  15
BRANCH   3  19
ATOM     19  C   UNL     1       1.125   8.462  20.775  0.00  0.00    +0.000 A 
ATOM     20  C   UNL     1       0.933   9.506  19.850  0.00  0.00    +0.000 A 
ATOM     21  C   UNL     1       0.446  10.758  20.247  0.00  0.00    +0.000 A 
ATOM     22  C   UNL     1       0.141  11.006  21.588  0.00  0.00    +0.000 A 
ATOM     23  C   UNL     1       0.326   9.988  22.529  0.00  0.00    +0.000 A 
ATOM     24  C   UNL     1       0.823   8.738  22.123  0.00  0.00    +0.000 A 
BRANCH  22  25
ATOM     25  C   UNL     1      -0.427  12.336  21.934  0.00  0.00    +0.000 C 
ATOM     26  O   UNL     1      -0.378  13.286  21.172  0.00  0.00    +0.000 OA
BRANCH  25  27
ATOM     27  O   UNL     1      -0.967  12.413  23.167  0.00  0.00    +0.000 OA
ATOM     28  H   UNL     1      -0.339  12.318  23.907  0.00  0.00    +0.000 HD
ENDBRANCH  25  27
ENDBRANCH  22  25
ENDBRANCH   3  19
TORSDOF 5
ENDMDL
MODEL 7
REMARK VINA RESULT:      -7.6      1.962      2.615
REMARK  Name = 
REMARK  5 active torsions:
REMARK  status: ('A' for Active; 'I' for Inactive)
REMARK    1  A    between atoms: C_2  and  C_3
REMARK    2  A    between atoms: C_7  and  C_8
REMARK    3  A    between atoms: C_10  and  C_11
REMARK    4  A    between atoms: C_14  and  C_15
REMARK    5  A    between atoms: C_15  and  O_17
REMARK                            x       y       z     vdW  Elec       q    Type
REMARK                         _______ _______ _______ _____ _____    ______ ____
ROOT
ATOM      1  C   UNL     1       3.224   5.744  18.875  0.00  0.00    +0.000 A 
ATOM      2  N   UNL     1       2.746   6.957  19.304  0.00  0.00    +0.000 NA
ATOM      3  C   UNL     1       1.734   6.979  20.203  0.00  0.00    +0.000 A 
ATOM      4  C   UNL     1       1.199   5.800  20.708  0.00  0.00    +0.000 A 
ATOM      5  C   UNL     1       1.677   4.563  20.255  0.00  0.00    +0.000 A 
ATOM      6  C   UNL     1       1.141   3.361  20.745  0.00  0.00    +0.000 A 
ATOM      7  C   UNL     1       1.618   2.142  20.283  0.00  0.00    +0.000 A 
ATOM      8  C   UNL     1       2.613   2.163  19.334  0.00  0.00    +0.000 A 
ATOM      9  N   UNL     1       3.147   3.299  18.844  0.00  0.00    +0.000 NA
ATOM     10  C   UNL     1       2.707   4.503  19.300  0.00  0.00    +0.000 A 
ENDROOT
BRANCH   1  15
ATOM     11  C   UNL     1       6.485   6.837  17.200  0.00  0.00    +0.000 A 
ATOM     12  C   UNL     1       6.557   5.953  16.126  0.00  0.00    +0.000 A 
ATOM     13  C   UNL     1       5.531   5.033  15.920  0.00  0.00    +0.000 A 
ATOM     14  C   UNL     1       4.444   4.979  16.800  0.00  0.00    +0.000 A 
ATOM     15  C   UNL     1       4.355   5.840  17.910  0.00  0.00    +0.000 A 
ATOM     16  C   UNL     1       5.387   6.787  18.068  0.00  0.00    +0.000 A 
BRANCH  11  18
ATOM     17  N   UNL     1       8.378   8.564  17.613  0.00  0.00    +0.000 NA
ATOM     18  C   UNL     1       7.530   7.791  17.432  0.00  0.00    +0.000 C 
ENDBRANCH  11  18
ENDBRANCH   1  15
BRANCH   3  19
ATOM     19  C   UNL     1       1.247   8.316  20.616  0.00  0.00    +0.000 A 
ATOM     20  C   UNL     1       1.129   9.379  19.700  0.00  0.00    +0.000 A 
ATOM     21  C   UNL     1       0.638  10.631  20.091  0.00  0.00    +0.000 A 
ATOM     22  C   UNL     1       0.254  10.859  21.416  0.00  0.00    +0.000 A 
ATOM     23  C   UNL     1       0.365   9.821  22.346  0.00  0.00    +0.000 A 
ATOM     24  C   UNL     1       0.867   8.572  21.947  0.00  0.00    +0.000 A 
BRANCH  22  25
ATOM     25  C   UNL     1      -0.314  12.192  21.751  0.00  0.00    +0.000 C 
ATOM     26  O   UNL     1      -0.455  13.071  20.918  0.00  0.00    +0.000 OA
BRANCH  25  27
ATOM     27  O   UNL     1      -0.625  12.360  23.052  0.00  0.00    +0.000 OA
ATOM     28  H   UNL     1      -1.495  12.014  23.325  0.00  0.00    +0.000 HD
ENDBRANCH  25  27
ENDBRANCH  22  25
ENDBRANCH   3  19
TORSDOF 5
ENDMDL
MODEL 8
REMARK VINA RESULT:      -7.4      1.702      4.495
REMARK  Name = 
REMARK  5 active torsions:
REMARK  status: ('A' for Active; 'I' for Inactive)
REMARK    1  A    between atoms: C_2  and  C_3
REMARK    2  A    between atoms: C_7  and  C_8
REMARK    3  A    between atoms: C_10  and  C_11
REMARK    4  A    between atoms: C_14  and  C_15
REMARK    5  A    between atoms: C_15  and  O_17
REMARK                            x       y       z     vdW  Elec       q    Type
REMARK                         _______ _______ _______ _____ _____    ______ ____
ROOT
ATOM      1  C   UNL     1       2.904   5.718  19.029  0.00  0.00    +0.000 A 
ATOM      2  N   UNL     1       2.098   6.772  19.376  0.00  0.00    +0.000 NA
ATOM      3  C   UNL     1       2.191   7.926  18.673  0.00  0.00    +0.000 A 
ATOM      4  C   UNL     1       3.067   8.041  17.600  0.00  0.00    +0.000 A 
ATOM      5  C   UNL     1       3.903   6.969  17.260  0.00  0.00    +0.000 A 
ATOM      6  C   UNL     1       4.802   7.071  16.186  0.00  0.00    +0.000 A 
ATOM      7  C   UNL     1       5.630   6.005  15.862  0.00  0.00    +0.000 A 
ATOM      8  C   UNL     1       5.539   4.868  16.632  0.00  0.00    +0.000 A 
ATOM      9  N   UNL     1       4.687   4.740  17.668  0.00  0.00    +0.000 NA
ATOM     10  C   UNL     1       3.853   5.767  17.987  0.00  0.00    +0.000 A 
ENDROOT
BRANCH   1  15
ATOM     11  C   UNL     1       3.574   2.481  20.953  0.00  0.00    +0.000 A 
ATOM     12  C   UNL     1       2.320   2.213  21.497  0.00  0.00    +0.000 A 
ATOM     13  C   UNL     1       1.248   3.057  21.207  0.00  0.00    +0.000 A 
ATOM     14  C   UNL     1       1.436   4.181  20.393  0.00  0.00    +0.000 A 
ATOM     15  C   UNL     1       2.696   4.493  19.851  0.00  0.00    +0.000 A 
ATOM     16  C   UNL     1       3.750   3.598  20.128  0.00  0.00    +0.000 A 
BRANCH  11  18
ATOM     17  N   UNL     1       5.592   0.932  21.468  0.00  0.00    +0.000 NA
ATOM     18  C   UNL     1       4.691   1.627  21.240  0.00  0.00    +0.000 C 
ENDBRANCH  11  18
ENDBRANCH   1  15
BRANCH   3  19
ATOM     19  C   UNL     1       1.309   9.035  19.104  0.00  0.00    +0.000 A 
ATOM     20  C   UNL     1       0.811   9.986  18.193  0.00  0.00    +0.000 A 
ATOM     21  C   UNL     1      -0.048  11.013  18.603  0.00  0.00    +0.000 A 
ATOM     22  C   UNL     1      -0.432  11.124  19.942  0.00  0.00    +0.000 A 
ATOM     23  C   UNL     1       0.052  10.195  20.868  0.00  0.00    +0.000 A 
ATOM     24  C   UNL     1       0.920   9.173  20.451  0.00  0.00    +0.000 A 
BRANCH  22  25
ATOM     25  C   UNL     1      -1.392  12.201  20.300  0.00  0.00    +0.000 C 
ATOM     26  O   UNL     1      -1.816  12.350  21.433  0.00  0.00    +0.000 OA
BRANCH  25  27
ATOM     27  O   UNL     1      -1.781  12.973  19.265  0.00  0.00    +0.000 OA
ATOM     28  H   UNL     1      -2.217  12.503  18.530  0.00  0.00    +0.000 HD
ENDBRANCH  25  27
ENDBRANCH  22  25
ENDBRANCH   3  19
TORSDOF 5
ENDMDL
MODEL 9
REMARK VINA RESULT:      -7.3      1.756      4.617
REMARK  Name = 
REMARK  5 active torsions:
REMARK  status: ('A' for Active; 'I' for Inactive)
REMARK    1  A    between atoms: C_2  and  C_3
REMARK    2  A    between atoms: C_7  and  C_8
REMARK    3  A    between atoms: C_10  and  C_11
REMARK    4  A    between atoms: C_14  and  C_15
REMARK    5  A    between atoms: C_15  and  O_17
REMARK                            x       y       z     vdW  Elec       q    Type
REMARK                         _______ _______ _______ _____ _____    ______ ____
ROOT
ATOM      1  C   UNL     1       2.936   5.660  18.977  0.00  0.00    +0.000 A 
ATOM      2  N   UNL     1       2.231   6.754  19.411  0.00  0.00    +0.000 NA
ATOM      3  C   UNL     1       2.343   7.917  18.727  0.00  0.00    +0.000 A 
ATOM      4  C   UNL     1       3.136   8.004  17.589  0.00  0.00    +0.000 A 
ATOM      5  C   UNL     1       3.870   6.891  17.159  0.00  0.00    +0.000 A 
ATOM      6  C   UNL     1       4.686   6.963  16.018  0.00  0.00    +0.000 A 
ATOM      7  C   UNL     1       5.413   5.855  15.606  0.00  0.00    +0.000 A 
ATOM      8  C   UNL     1       5.310   4.706  16.357  0.00  0.00    +0.000 A 
ATOM      9  N   UNL     1       4.536   4.606  17.456  0.00  0.00    +0.000 NA
ATOM     10  C   UNL     1       3.799   5.676  17.862  0.00  0.00    +0.000 A 
ENDROOT
BRANCH   1  15
ATOM     11  C   UNL     1       3.579   2.429  20.920  0.00  0.00    +0.000 A 
ATOM     12  C   UNL     1       2.308   2.140  21.413  0.00  0.00    +0.000 A 
ATOM     13  C   UNL     1       1.237   2.968  21.083  0.00  0.00    +0.000 A 
ATOM     14  C   UNL     1       1.439   4.097  20.279  0.00  0.00    +0.000 A 
ATOM     15  C   UNL     1       2.715   4.429  19.788  0.00  0.00    +0.000 A 
ATOM     16  C   UNL     1       3.770   3.550  20.105  0.00  0.00    +0.000 A 
BRANCH  11  18
ATOM     17  N   UNL     1       5.604   0.916  21.510  0.00  0.00    +0.000 NA
ATOM     18  C   UNL     1       4.696   1.591  21.248  0.00  0.00    +0.000 C 
ENDBRANCH  11  18
ENDBRANCH   1  15
BRANCH   3  19
ATOM     19  C   UNL     1       1.573   9.068  19.251  0.00  0.00    +0.000 A 
ATOM     20  C   UNL     1       0.989   9.050  20.532  0.00  0.00    +0.000 A 
ATOM     21  C   UNL     1       0.288  10.155  21.034  0.00  0.00    +0.000 A 
ATOM     22  C   UNL     1       0.146  11.312  20.264  0.00  0.00    +0.000 A 
ATOM     23  C   UNL     1       0.713  11.355  18.986  0.00  0.00    +0.000 A 
ATOM     24  C   UNL     1       1.406  10.240  18.487  0.00  0.00    +0.000 A 
BRANCH  22  25
ATOM     25  C   UNL     1      -0.557  12.470  20.878  0.00  0.00    +0.000 C 
ATOM     26  O   UNL     1      -1.515  13.008  20.350  0.00  0.00    +0.000 OA
BRANCH  25  27
ATOM     27  O   UNL     1      -0.028  12.894  22.044  0.00  0.00    +0.000 OA
ATOM     28  H   UNL     1       0.907  13.166  22.007  0.00  0.00    +0.000 HD
ENDBRANCH  25  27
ENDBRANCH  22  25
ENDBRANCH   3  19
TORSDOF 5
ENDMDL
