MODEL 1
REMARK VINA RESULT:      -8.0      0.000      0.000
REMARK  Name = 
REMARK  11 active torsions:
REMARK  status: ('A' for Active; 'I' for Inactive)
REMARK    1  A    between atoms: C_2  and  O_3
REMARK    2  A    between atoms: C_2  and  C_22
REMARK    3  A    between atoms: O_3  and  C_4
REMARK    4  A    between atoms: N_6  and  C_7
REMARK    5  A    between atoms: C_7  and  C_8
REMARK    6  A    between atoms: C_8  and  C_9
REMARK    7  A    between atoms: C_9  and  O_10
REMARK    8  A    between atoms: O_10  and  C_11
REMARK    9  A    between atoms: C_22  and  O_23
REMARK   10  A    between atoms: C_22  and  C_24
REMARK   11  A    between atoms: C_22  and  C_30
REMARK                            x       y       z     vdW  Elec       q    Type
REMARK                         _______ _______ _______ _____ _____    ______ ____
ROOT
ATOM      1  C   UNL     1       2.462   6.930  18.281  0.00  0.00    +0.000 C 
ATOM      2  C   UNL     1       3.978   6.637  18.445  0.00  0.00    +0.000 C 
ATOM      3  N   UNL     1       4.217   5.140  18.862  0.00  0.00    +0.000 N 
ATOM      4  C   UNL     1       3.509   4.916  20.203  0.00  0.00    +0.000 C 
ATOM      5  C   UNL     1       2.008   5.155  20.033  0.00  0.00    +0.000 C 
ATOM      6  C   UNL     1       1.668   5.656  18.620  0.00  0.00    +0.000 C 
ATOM      7  C   UNL     1       2.102   4.579  17.621  0.00  0.00    +0.000 C 
ATOM      8  C   UNL     1       3.589   4.259  17.777  0.00  0.00    +0.000 C 
ENDROOT
BRANCH   1   9
ATOM      9  O   UNL     1       2.002   8.038  19.088  0.00  0.00    +0.000 OA
BRANCH   9  11
ATOM     10  O   UNL     1       2.007   9.304  17.196  0.00  0.00    +0.000 OA
ATOM     11  C   UNL     1       1.634   9.145  18.360  0.00  0.00    +0.000 C 
BRANCH  11  12
ATOM     12  C   UNL     1       0.702  10.160  19.086  0.00  0.00    +0.000 C 
BRANCH  12  13
ATOM     13  C   UNL     1       1.444  11.496  19.284  0.00  0.00    +0.000 A 
ATOM     14  C   UNL     1       2.105  12.109  18.201  0.00  0.00    +0.000 A 
ATOM     15  C   UNL     1       2.807  13.306  18.367  0.00  0.00    +0.000 A 
ATOM     16  C   UNL     1       2.854  13.922  19.615  0.00  0.00    +0.000 A 
ATOM     17  C   UNL     1       2.188  13.349  20.694  0.00  0.00    +0.000 A 
ATOM     18  C   UNL     1       1.482  12.150  20.531  0.00  0.00    +0.000 A 
ENDBRANCH  12  13
BRANCH  12  19
ATOM     19  C   UNL     1      -0.660  10.318  18.418  0.00  0.00    +0.000 A 
ATOM     20  C   UNL     1      -1.177   9.613  17.339  0.00  0.00    +0.000 A 
ATOM     21  C   UNL     1      -2.521   9.972  17.033  0.00  0.00    +0.000 A 
ATOM     22  C   UNL     1      -2.972  10.998  17.829  0.00  0.00    +0.000 A 
ATOM     23  S   UNL     1      -1.760  11.562  18.890  0.00  0.00    +0.000 S 
ENDBRANCH  12  19
BRANCH  12  24
ATOM     24  O   UNL     1       0.403   9.585  20.372  0.00  0.00    +0.000 OA
ATOM     25  H   UNL     1       1.159   9.813  20.952  0.00  0.00    +0.000 HD
ENDBRANCH  12  24
ENDBRANCH  11  12
ENDBRANCH   9  11
ENDBRANCH   1   9
BRANCH   3  26
ATOM     26  C   UNL     1       5.752   4.956  18.991  0.00  0.00    +0.000 C 
BRANCH  26  27
ATOM     27  C   UNL     1       6.648   5.659  17.963  0.00  0.00    +0.000 C 
BRANCH  27  28
ATOM     28  C   UNL     1       7.156   4.797  16.813  0.00  0.00    +0.000 C 
BRANCH  28  29
ATOM     29  O   UNL     1       7.266   5.595  15.639  0.00  0.00    +0.000 OA
BRANCH  29  30
ATOM     30  C   UNL     1       6.968   4.964  14.456  0.00  0.00    +0.000 A 
ATOM     31  C   UNL     1       5.804   4.191  14.485  0.00  0.00    +0.000 A 
ATOM     32  C   UNL     1       5.389   3.494  13.351  0.00  0.00    +0.000 A 
ATOM     33  C   UNL     1       6.129   3.570  12.174  0.00  0.00    +0.000 A 
ATOM     34  C   UNL     1       7.277   4.353  12.129  0.00  0.00    +0.000 A 
ATOM     35  C   UNL     1       7.700   5.048  13.266  0.00  0.00    +0.000 A 
ENDBRANCH  29  30
ENDBRANCH  28  29
ENDBRANCH  27  28
ENDBRANCH  26  27
ENDBRANCH   3  26
TORSDOF 11
ENDMDL
MODEL 2
REMARK VINA RESULT:      -8.0      1.626      3.052
REMARK  Name = 
REMARK  11 active torsions:
REMARK  status: ('A' for Active; 'I' for Inactive)
REMARK    1  A    between atoms: C_2  and  O_3
REMARK    2  A    between atoms: C_2  and  C_22
REMARK    3  A    between atoms: O_3  and  C_4
REMARK    4  A    between atoms: N_6  and  C_7
REMARK    5  A    between atoms: C_7  and  C_8
REMARK    6  A    between atoms: C_8  and  C_9
REMARK    7  A    between atoms: C_9  and  O_10
REMARK    8  A    between atoms: O_10  and  C_11
REMARK    9  A    between atoms: C_22  and  O_23
REMARK   10  A    between atoms: C_22  and  C_24
REMARK   11  A    between atoms: C_22  and  C_30
REMARK                            x       y       z     vdW  Elec       q    Type
REMARK                         _______ _______ _______ _____ _____    ______ ____
ROOT
ATOM      1  C   UNL     1       2.090   7.330  18.239  0.00  0.00    +0.000 C 
ATOM      2  C   UNL     1       3.581   7.390  17.807  0.00  0.00    +0.000 C 
ATOM      3  N   UNL     1       4.307   6.029  18.112  0.00  0.00    +0.000 N 
ATOM      4  C   UNL     1       4.225   5.790  19.624  0.00  0.00    +0.000 C 
ATOM      5  C   UNL     1       2.759   5.681  20.043  0.00  0.00    +0.000 C 
ATOM      6  C   UNL     1       1.808   5.955  18.867  0.00  0.00    +0.000 C 
ATOM      7  C   UNL     1       2.081   4.904  17.786  0.00  0.00    +0.000 C 
ATOM      8  C   UNL     1       3.549   4.930  17.359  0.00  0.00    +0.000 C 
ENDROOT
BRANCH   1   9
ATOM      9  O   UNL     1       1.716   8.386  19.152  0.00  0.00    +0.000 OA
BRANCH   9  11
ATOM     10  O   UNL     1       1.919   9.904  17.467  0.00  0.00    +0.000 OA
ATOM     11  C   UNL     1       1.397   9.573  18.533  0.00  0.00    +0.000 C 
BRANCH  11  12
ATOM     12  C   UNL     1       0.326  10.449  19.249  0.00  0.00    +0.000 C 
BRANCH  12  13
ATOM     13  C   UNL     1      -0.939  10.540  18.374  0.00  0.00    +0.000 A 
ATOM     14  C   UNL     1      -1.874  11.573  18.581  0.00  0.00    +0.000 A 
ATOM     15  C   UNL     1      -3.041  11.656  17.816  0.00  0.00    +0.000 A 
ATOM     16  C   UNL     1      -3.294  10.715  16.822  0.00  0.00    +0.000 A 
ATOM     17  C   UNL     1      -2.373   9.699  16.582  0.00  0.00    +0.000 A 
ATOM     18  C   UNL     1      -1.202   9.614  17.346  0.00  0.00    +0.000 A 
ENDBRANCH  12  13
BRANCH  12  19
ATOM     19  C   UNL     1       0.041  10.009  20.680  0.00  0.00    +0.000 A 
ATOM     20  C   UNL     1      -0.094   8.718  21.174  0.00  0.00    +0.000 A 
ATOM     21  C   UNL     1      -0.276   8.678  22.586  0.00  0.00    +0.000 A 
ATOM     22  C   UNL     1      -0.358   9.939  23.128  0.00  0.00    +0.000 A 
ATOM     23  S   UNL     1      -0.281  11.154  21.932  0.00  0.00    +0.000 S 
ENDBRANCH  12  19
BRANCH  12  24
ATOM     24  O   UNL     1       0.905  11.760  19.388  0.00  0.00    +0.000 OA
ATOM     25  H   UNL     1       1.588  11.681  20.086  0.00  0.00    +0.000 HD
ENDBRANCH  12  24
ENDBRANCH  11  12
ENDBRANCH   9  11
ENDBRANCH   1   9
BRANCH   3  26
ATOM     26  C   UNL     1       5.775   6.195  17.640  0.00  0.00    +0.000 C 
BRANCH  26  27
ATOM     27  C   UNL     1       6.754   5.048  17.921  0.00  0.00    +0.000 C 
BRANCH  27  28
ATOM     28  C   UNL     1       7.511   4.499  16.717  0.00  0.00    +0.000 C 
BRANCH  28  29
ATOM     29  O   UNL     1       7.430   5.432  15.645  0.00  0.00    +0.000 OA
BRANCH  29  30
ATOM     30  C   UNL     1       7.104   4.906  14.419  0.00  0.00    +0.000 A 
ATOM     31  C   UNL     1       5.976   4.080  14.419  0.00  0.00    +0.000 A 
ATOM     32  C   UNL     1       5.539   3.479  13.239  0.00  0.00    +0.000 A 
ATOM     33  C   UNL     1       6.220   3.705  12.045  0.00  0.00    +0.000 A 
ATOM     34  C   UNL     1       7.330   4.542  12.030  0.00  0.00    +0.000 A 
ATOM     35  C   UNL     1       7.776   5.141  13.213  0.00  0.00    +0.000 A 
ENDBRANCH  29  30
ENDBRANCH  28  29
ENDBRANCH  27  28
ENDBRANCH  26  27
ENDBRANCH   3  26
TORSDOF 11
ENDMDL
MODEL 3
REMARK VINA RESULT:      -7.6      1.598      2.873
REMARK  Name = 
REMARK  11 active torsions:
REMARK  status: ('A' for Active; 'I' for Inactive)
REMARK    1  A    between atoms: C_2  and  O_3
REMARK    2  A    between atoms: C_2  and  C_22
REMARK    3  A    between atoms: O_3  and  C_4
REMARK    4  A    between atoms: N_6  and  C_7
REMARK    5  A    between atoms: C_7  and  C_8
REMARK    6  A    between atoms: C_8  and  C_9
REMARK    7  A    between atoms: C_9  and  O_10
REMARK    8  A    between atoms: O_10  and  C_11
REMARK    9  A    between atoms: C_22  and  O_23
REMARK   10  A    between atoms: C_22  and  C_24
REMARK   11  A    between atoms: C_22  and  C_30
REMARK                            x       y       z     vdW  Elec       q    Type
REMARK                         _______ _______ _______ _____ _____    ______ ____
ROOT
ATOM      1  C   UNL     1       2.382   7.017  18.331  0.00  0.00    +0.000 C 
ATOM      2  C   UNL     1       3.914   6.778  18.418  0.00  0.00    +0.000 C 
ATOM      3  N   UNL     1       4.227   5.284  18.797  0.00  0.00    +0.000 N 
ATOM      4  C   UNL     1       3.592   5.012  20.166  0.00  0.00    +0.000 C 
ATOM      5  C   UNL     1       2.077   5.198  20.069  0.00  0.00    +0.000 C 
ATOM      6  C   UNL     1       1.653   5.709  18.684  0.00  0.00    +0.000 C 
ATOM      7  C   UNL     1       2.079   4.665  17.646  0.00  0.00    +0.000 C 
ATOM      8  C   UNL     1       3.582   4.398  17.727  0.00  0.00    +0.000 C 
ENDROOT
BRANCH   1   9
ATOM      9  O   UNL     1       1.921   8.093  19.177  0.00  0.00    +0.000 OA
BRANCH   9  11
ATOM     10  O   UNL     1       2.037   9.467  17.366  0.00  0.00    +0.000 OA
ATOM     11  C   UNL     1       1.595   9.241  18.494  0.00  0.00    +0.000 C 
BRANCH  11  12
ATOM     12  C   UNL     1       0.619  10.215  19.221  0.00  0.00    +0.000 C 
BRANCH  12  13
ATOM     13  C   UNL     1      -0.618  10.465  18.337  0.00  0.00    +0.000 A 
ATOM     14  C   UNL     1      -1.065   9.473  17.442  0.00  0.00    +0.000 A 
ATOM     15  C   UNL     1      -2.168   9.692  16.613  0.00  0.00    +0.000 A 
ATOM     16  C   UNL     1      -2.855  10.901  16.667  0.00  0.00    +0.000 A 
ATOM     17  C   UNL     1      -2.448  11.887  17.561  0.00  0.00    +0.000 A 
ATOM     18  C   UNL     1      -1.344  11.670  18.395  0.00  0.00    +0.000 A 
ENDBRANCH  12  13
BRANCH  12  19
ATOM     19  C   UNL     1       0.270   9.775  20.639  0.00  0.00    +0.000 A 
ATOM     20  C   UNL     1      -0.118   8.517  21.080  0.00  0.00    +0.000 A 
ATOM     21  C   UNL     1      -0.285   8.450  22.493  0.00  0.00    +0.000 A 
ATOM     22  C   UNL     1      -0.100   9.674  23.089  0.00  0.00    +0.000 A 
ATOM     23  S   UNL     1       0.206  10.902  21.945  0.00  0.00    +0.000 S 
ENDBRANCH  12  19
BRANCH  12  24
ATOM     24  O   UNL     1       1.338  11.449  19.397  0.00  0.00    +0.000 OA
ATOM     25  H   UNL     1       0.721  12.162  19.126  0.00  0.00    +0.000 HD
ENDBRANCH  12  24
ENDBRANCH  11  12
ENDBRANCH   9  11
ENDBRANCH   1   9
BRANCH   3  26
ATOM     26  C   UNL     1       5.772   5.156  18.852  0.00  0.00    +0.000 C 
BRANCH  26  27
ATOM     27  C   UNL     1       6.506   4.769  17.561  0.00  0.00    +0.000 C 
BRANCH  27  28
ATOM     28  C   UNL     1       6.414   5.764  16.411  0.00  0.00    +0.000 C 
BRANCH  28  29
ATOM     29  O   UNL     1       7.473   5.519  15.491  0.00  0.00    +0.000 OA
BRANCH  29  30
ATOM     30  C   UNL     1       7.112   4.915  14.311  0.00  0.00    +0.000 A 
ATOM     31  C   UNL     1       5.942   4.154  14.380  0.00  0.00    +0.000 A 
ATOM     32  C   UNL     1       5.466   3.484  13.253  0.00  0.00    +0.000 A 
ATOM     33  C   UNL     1       6.151   3.576  12.044  0.00  0.00    +0.000 A 
ATOM     34  C   UNL     1       7.304   4.349  11.960  0.00  0.00    +0.000 A 
ATOM     35  C   UNL     1       7.788   5.016  13.090  0.00  0.00    +0.000 A 
ENDBRANCH  29  30
ENDBRANCH  28  29
ENDBRANCH  27  28
ENDBRANCH  26  27
ENDBRANCH   3  26
TORSDOF 11
ENDMDL
MODEL 4
REMARK VINA RESULT:      -7.6      2.702      4.183
REMARK  Name = 
REMARK  11 active torsions:
REMARK  status: ('A' for Active; 'I' for Inactive)
REMARK    1  A    between atoms: C_2  and  O_3
REMARK    2  A    between atoms: C_2  and  C_22
REMARK    3  A    between atoms: O_3  and  C_4
REMARK    4  A    between atoms: N_6  and  C_7
REMARK    5  A    between atoms: C_7  and  C_8
REMARK    6  A    between atoms: C_8  and  C_9
REMARK    7  A    between atoms: C_9  and  O_10
REMARK    8  A    between atoms: O_10  and  C_11
REMARK    9  A    between atoms: C_22  and  O_23
REMARK   10  A    between atoms: C_22  and  C_24
REMARK   11  A    between atoms: C_22  and  C_30
REMARK                            x       y       z     vdW  Elec       q    Type
REMARK                         _______ _______ _______ _____ _____    ______ ____
ROOT
ATOM      1  C   UNL     1       2.489   7.060  18.034  0.00  0.00    +0.000 C 
ATOM      2  C   UNL     1       3.922   7.118  17.441  0.00  0.00    +0.000 C 
ATOM      3  N   UNL     1       4.712   5.796  17.756  0.00  0.00    +0.000 N 
ATOM      4  C   UNL     1       4.799   5.662  19.281  0.00  0.00    +0.000 C 
ATOM      5  C   UNL     1       3.389   5.555  19.863  0.00  0.00    +0.000 C 
ATOM      6  C   UNL     1       2.312   5.727  18.781  0.00  0.00    +0.000 C 
ATOM      7  C   UNL     1       2.496   4.608  17.750  0.00  0.00    +0.000 C 
ATOM      8  C   UNL     1       3.909   4.632  17.166  0.00  0.00    +0.000 C 
ENDROOT
BRANCH   1   9
ATOM      9  O   UNL     1       2.185   8.170  18.908  0.00  0.00    +0.000 OA
BRANCH   9  11
ATOM     10  O   UNL     1       2.116   9.534  17.086  0.00  0.00    +0.000 OA
ATOM     11  C   UNL     1       1.775   9.305  18.248  0.00  0.00    +0.000 C 
BRANCH  11  12
ATOM     12  C   UNL     1       0.838  10.259  19.049  0.00  0.00    +0.000 C 
BRANCH  12  13
ATOM     13  C   UNL     1       1.542  11.609  19.275  0.00  0.00    +0.000 A 
ATOM     14  C   UNL     1       1.523  12.218  20.546  0.00  0.00    +0.000 A 
ATOM     15  C   UNL     1       2.133  13.456  20.765  0.00  0.00    +0.000 A 
ATOM     16  C   UNL     1       2.784  14.108  19.722  0.00  0.00    +0.000 A 
ATOM     17  C   UNL     1       2.839  13.516  18.464  0.00  0.00    +0.000 A 
ATOM     18  C   UNL     1       2.230  12.274  18.242  0.00  0.00    +0.000 A 
ENDBRANCH  12  13
BRANCH  12  19
ATOM     19  C   UNL     1      -0.552  10.397  18.437  0.00  0.00    +0.000 A 
ATOM     20  C   UNL     1      -1.162   9.583  17.490  0.00  0.00    +0.000 A 
ATOM     21  C   UNL     1      -2.504   9.967  17.209  0.00  0.00    +0.000 A 
ATOM     22  C   UNL     1      -2.862  11.110  17.883  0.00  0.00    +0.000 A 
ATOM     23  S   UNL     1      -1.567  11.747  18.794  0.00  0.00    +0.000 S 
ENDBRANCH  12  19
BRANCH  12  24
ATOM     24  O   UNL     1       0.605   9.622  20.320  0.00  0.00    +0.000 OA
ATOM     25  H   UNL     1       0.607  10.341  20.986  0.00  0.00    +0.000 HD
ENDBRANCH  12  24
ENDBRANCH  11  12
ENDBRANCH   9  11
ENDBRANCH   1   9
BRANCH   3  26
ATOM     26  C   UNL     1       6.118   5.956  17.119  0.00  0.00    +0.000 C 
BRANCH  26  27
ATOM     27  C   UNL     1       7.244   6.518  17.996  0.00  0.00    +0.000 C 
BRANCH  27  28
ATOM     28  C   UNL     1       7.775   7.894  17.610  0.00  0.00    +0.000 C 
BRANCH  28  29
ATOM     29  O   UNL     1       8.508   8.439  18.701  0.00  0.00    +0.000 OA
BRANCH  29  30
ATOM     30  C   UNL     1       8.770   9.785  18.632  0.00  0.00    +0.000 A 
ATOM     31  C   UNL     1       9.629  10.264  19.626  0.00  0.00    +0.000 A 
ATOM     32  C   UNL     1       9.975  11.614  19.673  0.00  0.00    +0.000 A 
ATOM     33  C   UNL     1       9.473  12.498  18.722  0.00  0.00    +0.000 A 
ATOM     34  C   UNL     1       8.635  12.028  17.716  0.00  0.00    +0.000 A 
ATOM     35  C   UNL     1       8.281  10.676  17.670  0.00  0.00    +0.000 A 
ENDBRANCH  29  30
ENDBRANCH  28  29
ENDBRANCH  27  28
ENDBRANCH  26  27
ENDBRANCH   3  26
TORSDOF 11
ENDMDL
MODEL 5
REMARK VINA RESULT:      -7.5      3.900      7.123
REMARK  Name = 
REMARK  11 active torsions:
REMARK  status: ('A' for Active; 'I' for Inactive)
REMARK    1  A    between atoms: C_2  and  O_3
REMARK    2  A    between atoms: C_2  and  C_22
REMARK    3  A    between atoms: O_3  and  C_4
REMARK    4  A    between atoms: N_6  and  C_7
REMARK    5  A    between atoms: C_7  and  C_8
REMARK    6  A    between atoms: C_8  and  C_9
REMARK    7  A    between atoms: C_9  and  O_10
REMARK    8  A    between atoms: O_10  and  C_11
REMARK    9  A    between atoms: C_22  and  O_23
REMARK   10  A    between atoms: C_22  and  C_24
REMARK   11  A    between atoms: C_22  and  C_30
REMARK                            x       y       z     vdW  Elec       q    Type
REMARK                         _______ _______ _______ _____ _____    ______ ____
ROOT
ATOM      1  C   UNL     1      -1.595  12.196  20.203  0.00  0.00    +0.000 C 
ATOM      2  C   UNL     1      -0.934  10.821  19.918  0.00  0.00    +0.000 C 
ATOM      3  N   UNL     1       0.628  10.963  19.806  0.00  0.00    +0.000 N 
ATOM      4  C   UNL     1       0.924  11.919  18.644  0.00  0.00    +0.000 C 
ATOM      5  C   UNL     1       0.316  13.289  18.947  0.00  0.00    +0.000 C 
ATOM      6  C   UNL     1      -0.499  13.276  20.249  0.00  0.00    +0.000 C 
ATOM      7  C   UNL     1       0.448  12.904  21.394  0.00  0.00    +0.000 C 
ATOM      8  C   UNL     1       1.127  11.561  21.126  0.00  0.00    +0.000 C 
ENDROOT
BRANCH   1   9
ATOM      9  O   UNL     1      -2.612  12.554  19.241  0.00  0.00    +0.000 OA
BRANCH   9  11
ATOM     10  O   UNL     1      -4.185  12.768  20.873  0.00  0.00    +0.000 OA
ATOM     11  C   UNL     1      -3.897  12.443  19.719  0.00  0.00    +0.000 C 
BRANCH  11  12
ATOM     12  C   UNL     1      -4.957  11.910  18.710  0.00  0.00    +0.000 C 
BRANCH  12  13
ATOM     13  C   UNL     1      -4.251  11.166  17.560  0.00  0.00    +0.000 A 
ATOM     14  C   UNL     1      -4.387  11.618  16.232  0.00  0.00    +0.000 A 
ATOM     15  C   UNL     1      -3.777  10.941  15.172  0.00  0.00    +0.000 A 
ATOM     16  C   UNL     1      -3.010   9.805  15.417  0.00  0.00    +0.000 A 
ATOM     17  C   UNL     1      -2.841   9.354  16.723  0.00  0.00    +0.000 A 
ATOM     18  C   UNL     1      -3.449  10.031  17.787  0.00  0.00    +0.000 A 
ENDBRANCH  12  13
BRANCH  12  19
ATOM     19  C   UNL     1      -6.064  11.094  19.368  0.00  0.00    +0.000 A 
ATOM     20  C   UNL     1      -6.477   9.802  19.069  0.00  0.00    +0.000 A 
ATOM     21  C   UNL     1      -7.489   9.324  19.949  0.00  0.00    +0.000 A 
ATOM     22  C   UNL     1      -7.884  10.286  20.847  0.00  0.00    +0.000 A 
ATOM     23  S   UNL     1      -7.085  11.771  20.585  0.00  0.00    +0.000 S 
ENDBRANCH  12  19
BRANCH  12  24
ATOM     24  O   UNL     1      -5.633  13.068  18.185  0.00  0.00    +0.000 OA
ATOM     25  H   UNL     1      -5.912  13.594  18.964  0.00  0.00    +0.000 HD
ENDBRANCH  12  24
ENDBRANCH  11  12
ENDBRANCH   9  11
ENDBRANCH   1   9
BRANCH   3  26
ATOM     26  C   UNL     1       1.183   9.541  19.528  0.00  0.00    +0.000 C 
BRANCH  26  27
ATOM     27  C   UNL     1       1.808   9.270  18.154  0.00  0.00    +0.000 C 
BRANCH  27  28
ATOM     28  C   UNL     1       2.355   7.865  17.928  0.00  0.00    +0.000 C 
BRANCH  28  29
ATOM     29  O   UNL     1       2.591   7.244  19.186  0.00  0.00    +0.000 OA
BRANCH  29  30
ATOM     30  C   UNL     1       2.115   5.963  19.320  0.00  0.00    +0.000 A 
ATOM     31  C   UNL     1       2.106   5.218  18.137  0.00  0.00    +0.000 A 
ATOM     32  C   UNL     1       1.643   3.902  18.133  0.00  0.00    +0.000 A 
ATOM     33  C   UNL     1       1.193   3.315  19.313  0.00  0.00    +0.000 A 
ATOM     34  C   UNL     1       1.219   4.041  20.499  0.00  0.00    +0.000 A 
ATOM     35  C   UNL     1       1.676   5.363  20.505  0.00  0.00    +0.000 A 
ENDBRANCH  29  30
ENDBRANCH  28  29
ENDBRANCH  27  28
ENDBRANCH  26  27
ENDBRANCH   3  26
TORSDOF 11
ENDMDL
MODEL 6
REMARK VINA RESULT:      -7.5      2.353      8.485
REMARK  Name = 
REMARK  11 active torsions:
REMARK  status: ('A' for Active; 'I' for Inactive)
REMARK    1  A    between atoms: C_2  and  O_3
REMARK    2  A    between atoms: C_2  and  C_22
REMARK    3  A    between atoms: O_3  and  C_4
REMARK    4  A    between atoms: N_6  and  C_7
REMARK    5  A    between atoms: C_7  and  C_8
REMARK    6  A    between atoms: C_8  and  C_9
REMARK    7  A    between atoms: C_9  and  O_10
REMARK    8  A    between atoms: O_10  and  C_11
REMARK    9  A    between atoms: C_22  and  O_23
REMARK   10  A    between atoms: C_22  and  C_24
REMARK   11  A    between atoms: C_22  and  C_30
REMARK                            x       y       z     vdW  Elec       q    Type
REMARK                         _______ _______ _______ _____ _____    ______ ____
ROOT
ATOM      1  C   UNL     1       4.275   3.544  19.293  0.00  0.00    +0.000 C 
ATOM      2  C   UNL     1       3.717   4.978  19.503  0.00  0.00    +0.000 C 
ATOM      3  N   UNL     1       2.235   4.930  20.025  0.00  0.00    +0.000 N 
ATOM      4  C   UNL     1       1.394   4.208  18.966  0.00  0.00    +0.000 C 
ATOM      5  C   UNL     1       1.911   2.779  18.794  0.00  0.00    +0.000 C 
ATOM      6  C   UNL     1       3.174   2.526  19.633  0.00  0.00    +0.000 C 
ATOM      7  C   UNL     1       2.810   2.734  21.106  0.00  0.00    +0.000 C 
ATOM      8  C   UNL     1       2.238   4.134  21.334  0.00  0.00    +0.000 C 
ENDROOT
BRANCH   1   9
ATOM      9  O   UNL     1       4.778   3.314  17.958  0.00  0.00    +0.000 OA
BRANCH   9  11
ATOM     10  O   UNL     1       4.047   5.216  16.941  0.00  0.00    +0.000 OA
ATOM     11  C   UNL     1       4.980   4.464  17.231  0.00  0.00    +0.000 C 
BRANCH  11  12
ATOM     12  C   UNL     1       6.454   4.765  16.826  0.00  0.00    +0.000 C 
BRANCH  12  13
ATOM     13  C   UNL     1       6.619   4.598  15.304  0.00  0.00    +0.000 A 
ATOM     14  C   UNL     1       5.764   3.738  14.587  0.00  0.00    +0.000 A 
ATOM     15  C   UNL     1       5.914   3.551  13.210  0.00  0.00    +0.000 A 
ATOM     16  C   UNL     1       6.915   4.227  12.518  0.00  0.00    +0.000 A 
ATOM     17  C   UNL     1       7.756   5.102  13.200  0.00  0.00    +0.000 A 
ATOM     18  C   UNL     1       7.607   5.292  14.580  0.00  0.00    +0.000 A 
ENDBRANCH  12  13
BRANCH  12  19
ATOM     19  C   UNL     1       6.963   6.106  17.346  0.00  0.00    +0.000 A 
ATOM     20  C   UNL     1       7.958   6.345  18.285  0.00  0.00    +0.000 A 
ATOM     21  C   UNL     1       8.229   7.731  18.467  0.00  0.00    +0.000 A 
ATOM     22  C   UNL     1       7.383   8.521  17.726  0.00  0.00    +0.000 A 
ATOM     23  S   UNL     1       6.232   7.596  16.871  0.00  0.00    +0.000 S 
ENDBRANCH  12  19
BRANCH  12  24
ATOM     24  O   UNL     1       7.266   3.789  17.505  0.00  0.00    +0.000 OA
ATOM     25  H   UNL     1       6.772   2.944  17.454  0.00  0.00    +0.000 HD
ENDBRANCH  12  24
ENDBRANCH  11  12
ENDBRANCH   9  11
ENDBRANCH   1   9
BRANCH   3  26
ATOM     26  C   UNL     1       1.781   6.403  20.204  0.00  0.00    +0.000 C 
BRANCH  26  27
ATOM     27  C   UNL     1       2.551   7.489  19.442  0.00  0.00    +0.000 C 
BRANCH  27  28
ATOM     28  C   UNL     1       1.956   7.924  18.107  0.00  0.00    +0.000 C 
BRANCH  28  29
ATOM     29  O   UNL     1       1.950   9.345  18.035  0.00  0.00    +0.000 OA
BRANCH  29  30
ATOM     30  C   UNL     1       0.792   9.960  18.446  0.00  0.00    +0.000 A 
ATOM     31  C   UNL     1       0.946  10.824  19.534  0.00  0.00    +0.000 A 
ATOM     32  C   UNL     1      -0.152  11.509  20.053  0.00  0.00    +0.000 A 
ATOM     33  C   UNL     1      -1.413  11.344  19.484  0.00  0.00    +0.000 A 
ATOM     34  C   UNL     1      -1.572  10.504  18.389  0.00  0.00    +0.000 A 
ATOM     35  C   UNL     1      -0.474   9.809  17.869  0.00  0.00    +0.000 A 
ENDBRANCH  29  30
ENDBRANCH  28  29
ENDBRANCH  27  28
ENDBRANCH  26  27
ENDBRANCH   3  26
TORSDOF 11
ENDMDL
MODEL 7
REMARK VINA RESULT:      -7.4      0.682      1.370
REMARK  Name = 
REMARK  11 active torsions:
REMARK  status: ('A' for Active; 'I' for Inactive)
REMARK    1  A    between atoms: C_2  and  O_3
REMARK    2  A    between atoms: C_2  and  C_22
REMARK    3  A    between atoms: O_3  and  C_4
REMARK    4  A    between atoms: N_6  and  C_7
REMARK    5  A    between atoms: C_7  and  C_8
REMARK    6  A    between atoms: C_8  and  C_9
REMARK    7  A    between atoms: C_9  and  O_10
REMARK    8  A    between atoms: O_10  and  C_11
REMARK    9  A    between atoms: C_22  and  O_23
REMARK   10  A    between atoms: C_22  and  C_24
REMARK   11  A    between atoms: C_22  and  C_30
REMARK                            x       y       z     vdW  Elec       q    Type
REMARK                         _______ _______ _______ _____ _____    ______ ____
ROOT
ATOM      1  C   UNL     1       2.215   7.267  18.147  0.00  0.00    +0.000 C 
ATOM      2  C   UNL     1       3.720   7.331  17.772  0.00  0.00    +0.000 C 
ATOM      3  N   UNL     1       4.437   5.970  18.099  0.00  0.00    +0.000 N 
ATOM      4  C   UNL     1       4.299   5.726  19.606  0.00  0.00    +0.000 C 
ATOM      5  C   UNL     1       2.819   5.613  19.970  0.00  0.00    +0.000 C 
ATOM      6  C   UNL     1       1.912   5.889  18.760  0.00  0.00    +0.000 C 
ATOM      7  C   UNL     1       2.228   4.842  17.687  0.00  0.00    +0.000 C 
ATOM      8  C   UNL     1       3.711   4.872  17.315  0.00  0.00    +0.000 C 
ENDROOT
BRANCH   1   9
ATOM      9  O   UNL     1       1.804   8.319  19.048  0.00  0.00    +0.000 OA
BRANCH   9  11
ATOM     10  O   UNL     1       1.872   9.795  17.316  0.00  0.00    +0.000 OA
ATOM     11  C   UNL     1       1.415   9.477  18.416  0.00  0.00    +0.000 C 
BRANCH  11  12
ATOM     12  C   UNL     1       0.350  10.337  19.161  0.00  0.00    +0.000 C 
BRANCH  12  13
ATOM     13  C   UNL     1       0.984  11.663  19.622  0.00  0.00    +0.000 A 
ATOM     14  C   UNL     1       0.579  12.262  20.831  0.00  0.00    +0.000 A 
ATOM     15  C   UNL     1       1.123  13.478  21.254  0.00  0.00    +0.000 A 
ATOM     16  C   UNL     1       2.090  14.117  20.482  0.00  0.00    +0.000 A 
ATOM     17  C   UNL     1       2.524  13.533  19.296  0.00  0.00    +0.000 A 
ATOM     18  C   UNL     1       1.983  12.313  18.872  0.00  0.00    +0.000 A 
ENDBRANCH  12  13
BRANCH  12  19
ATOM     19  C   UNL     1      -0.938  10.526  18.367  0.00  0.00    +0.000 A 
ATOM     20  C   UNL     1      -1.708   9.562  17.729  0.00  0.00    +0.000 A 
ATOM     21  C   UNL     1      -2.896  10.092  17.151  0.00  0.00    +0.000 A 
ATOM     22  C   UNL     1      -2.969  11.458  17.289  0.00  0.00    +0.000 A 
ATOM     23  S   UNL     1      -1.582  12.097  18.050  0.00  0.00    +0.000 S 
ENDBRANCH  12  19
BRANCH  12  24
ATOM     24  O   UNL     1      -0.051   9.573  20.313  0.00  0.00    +0.000 OA
ATOM     25  H   UNL     1      -1.023   9.467  20.242  0.00  0.00    +0.000 HD
ENDBRANCH  12  24
ENDBRANCH  11  12
ENDBRANCH   9  11
ENDBRANCH   1   9
BRANCH   3  26
ATOM     26  C   UNL     1       5.922   6.141  17.683  0.00  0.00    +0.000 C 
BRANCH  26  27
ATOM     27  C   UNL     1       6.879   4.970  17.940  0.00  0.00    +0.000 C 
BRANCH  27  28
ATOM     28  C   UNL     1       7.700   4.497  16.745  0.00  0.00    +0.000 C 
BRANCH  28  29
ATOM     29  O   UNL     1       7.487   5.380  15.649  0.00  0.00    +0.000 OA
BRANCH  29  30
ATOM     30  C   UNL     1       7.000   4.802  14.502  0.00  0.00    +0.000 A 
ATOM     31  C   UNL     1       7.749   5.066  13.352  0.00  0.00    +0.000 A 
ATOM     32  C   UNL     1       7.362   4.543  12.119  0.00  0.00    +0.000 A 
ATOM     33  C   UNL     1       6.227   3.742  12.025  0.00  0.00    +0.000 A 
ATOM     34  C   UNL     1       5.487   3.455  13.167  0.00  0.00    +0.000 A 
ATOM     35  C   UNL     1       5.868   3.984  14.404  0.00  0.00    +0.000 A 
ENDBRANCH  29  30
ENDBRANCH  28  29
ENDBRANCH  27  28
ENDBRANCH  26  27
ENDBRANCH   3  26
TORSDOF 11
ENDMDL
MODEL 8
REMARK VINA RESULT:      -7.4      3.184      9.778
REMARK  Name = 
REMARK  11 active torsions:
REMARK  status: ('A' for Active; 'I' for Inactive)
REMARK    1  A    between atoms: C_2  and  O_3
REMARK    2  A    between atoms: C_2  and  C_22
REMARK    3  A    between atoms: O_3  and  C_4
REMARK    4  A    between atoms: N_6  and  C_7
REMARK    5  A    between atoms: C_7  and  C_8
REMARK    6  A    between atoms: C_8  and  C_9
REMARK    7  A    between atoms: C_9  and  O_10
REMARK    8  A    between atoms: O_10  and  C_11
REMARK    9  A    between atoms: C_22  and  O_23
REMARK   10  A    between atoms: C_22  and  C_24
REMARK   11  A    between atoms: C_22  and  C_30
REMARK                            x       y       z     vdW  Elec       q    Type
REMARK                         _______ _______ _______ _____ _____    ______ ____
ROOT
ATOM      1  C   UNL     1       1.912   8.472  19.882  0.00  0.00    +0.000 C 
ATOM      2  C   UNL     1       1.202   9.607  19.096  0.00  0.00    +0.000 C 
ATOM      3  N   UNL     1       0.130  10.325  19.995  0.00  0.00    +0.000 N 
ATOM      4  C   UNL     1      -0.904   9.272  20.410  0.00  0.00    +0.000 C 
ATOM      5  C   UNL     1      -0.216   8.178  21.227  0.00  0.00    +0.000 C 
ATOM      6  C   UNL     1       1.304   8.387  21.293  0.00  0.00    +0.000 C 
ATOM      7  C   UNL     1       1.565   9.735  21.974  0.00  0.00    +0.000 C 
ATOM      8  C   UNL     1       0.859  10.868  21.229  0.00  0.00    +0.000 C 
ENDROOT
BRANCH   1   9
ATOM      9  O   UNL     1       1.836   7.187  19.225  0.00  0.00    +0.000 OA
BRANCH   9  11
ATOM     10  O   UNL     1       3.367   7.604  17.592  0.00  0.00    +0.000 OA
ATOM     11  C   UNL     1       2.954   6.868  18.491  0.00  0.00    +0.000 C 
BRANCH  11  12
ATOM     12  C   UNL     1       3.673   5.542  18.884  0.00  0.00    +0.000 C 
BRANCH  12  13
ATOM     13  C   UNL     1       2.628   4.481  19.275  0.00  0.00    +0.000 A 
ATOM     14  C   UNL     1       2.434   4.138  20.628  0.00  0.00    +0.000 A 
ATOM     15  C   UNL     1       1.509   3.159  21.000  0.00  0.00    +0.000 A 
ATOM     16  C   UNL     1       0.752   2.507  20.031  0.00  0.00    +0.000 A 
ATOM     17  C   UNL     1       0.907   2.846  18.690  0.00  0.00    +0.000 A 
ATOM     18  C   UNL     1       1.832   3.829  18.313  0.00  0.00    +0.000 A 
ENDBRANCH  12  13
BRANCH  12  19
ATOM     19  C   UNL     1       4.664   5.056  17.832  0.00  0.00    +0.000 A 
ATOM     20  C   UNL     1       4.398   4.550  16.565  0.00  0.00    +0.000 A 
ATOM     21  C   UNL     1       5.578   4.271  15.819  0.00  0.00    +0.000 A 
ATOM     22  C   UNL     1       6.716   4.492  16.557  0.00  0.00    +0.000 A 
ATOM     23  S   UNL     1       6.357   4.968  18.156  0.00  0.00    +0.000 S 
ENDBRANCH  12  19
BRANCH  12  24
ATOM     24  O   UNL     1       4.492   5.851  20.028  0.00  0.00    +0.000 OA
ATOM     25  H   UNL     1       4.402   6.816  20.172  0.00  0.00    +0.000 HD
ENDBRANCH  12  24
ENDBRANCH  11  12
ENDBRANCH   9  11
ENDBRANCH   1   9
BRANCH   3  26
ATOM     26  C   UNL     1      -0.508  11.437  19.121  0.00  0.00    +0.000 C 
BRANCH  26  27
ATOM     27  C   UNL     1      -2.033  11.429  18.951  0.00  0.00    +0.000 C 
BRANCH  27  28
ATOM     28  C   UNL     1      -2.552  11.142  17.547  0.00  0.00    +0.000 C 
BRANCH  28  29
ATOM     29  O   UNL     1      -3.737  10.357  17.634  0.00  0.00    +0.000 OA
BRANCH  29  30
ATOM     30  C   UNL     1      -4.914  11.059  17.725  0.00  0.00    +0.000 A 
ATOM     31  C   UNL     1      -5.794  10.597  18.707  0.00  0.00    +0.000 A 
ATOM     32  C   UNL     1      -7.027  11.219  18.901  0.00  0.00    +0.000 A 
ATOM     33  C   UNL     1      -7.389  12.315  18.121  0.00  0.00    +0.000 A 
ATOM     34  C   UNL     1      -6.510  12.795  17.157  0.00  0.00    +0.000 A 
ATOM     35  C   UNL     1      -5.276  12.170  16.954  0.00  0.00    +0.000 A 
ENDBRANCH  29  30
ENDBRANCH  28  29
ENDBRANCH  27  28
ENDBRANCH  26  27
ENDBRANCH   3  26
TORSDOF 11
ENDMDL
MODEL 9
REMARK VINA RESULT:      -7.3      3.718      6.820
REMARK  Name = 
REMARK  11 active torsions:
REMARK  status: ('A' for Active; 'I' for Inactive)
REMARK    1  A    between atoms: C_2  and  O_3
REMARK    2  A    between atoms: C_2  and  C_22
REMARK    3  A    between atoms: O_3  and  C_4
REMARK    4  A    between atoms: N_6  and  C_7
REMARK    5  A    between atoms: C_7  and  C_8
REMARK    6  A    between atoms: C_8  and  C_9
REMARK    7  A    between atoms: C_9  and  O_10
REMARK    8  A    between atoms: O_10  and  C_11
REMARK    9  A    between atoms: C_22  and  O_23
REMARK   10  A    between atoms: C_22  and  C_24
REMARK   11  A    between atoms: C_22  and  C_30
REMARK                            x       y       z     vdW  Elec       q    Type
REMARK                         _______ _______ _______ _____ _____    ______ ____
ROOT
ATOM      1  C   UNL     1      -1.107  11.262  19.819  0.00  0.00    +0.000 C 
ATOM      2  C   UNL     1      -0.568  10.312  18.716  0.00  0.00    +0.000 C 
ATOM      3  N   UNL     1       0.906   9.865  19.033  0.00  0.00    +0.000 N 
ATOM      4  C   UNL     1       1.772  11.130  19.081  0.00  0.00    +0.000 C 
ATOM      5  C   UNL     1       1.274  12.045  20.200  0.00  0.00    +0.000 C 
ATOM      6  C   UNL     1       0.001  11.494  20.862  0.00  0.00    +0.000 C 
ATOM      7  C   UNL     1       0.338  10.128  21.468  0.00  0.00    +0.000 C 
ATOM      8  C   UNL     1       0.891   9.180  20.403  0.00  0.00    +0.000 C 
ENDROOT
BRANCH   1   9
ATOM      9  O   UNL     1      -1.585  12.525  19.304  0.00  0.00    +0.000 OA
BRANCH   9  11
ATOM     10  O   UNL     1      -3.844  12.302  19.472  0.00  0.00    +0.000 OA
ATOM     11  C   UNL     1      -2.815  12.898  19.793  0.00  0.00    +0.000 C 
BRANCH  11  12
ATOM     12  C   UNL     1      -2.817  14.095  20.791  0.00  0.00    +0.000 C 
BRANCH  12  13
ATOM     13  C   UNL     1      -3.460  13.660  22.122  0.00  0.00    +0.000 A 
ATOM     14  C   UNL     1      -2.984  12.522  22.803  0.00  0.00    +0.000 A 
ATOM     15  C   UNL     1      -3.571  12.095  23.997  0.00  0.00    +0.000 A 
ATOM     16  C   UNL     1      -4.640  12.802  24.542  0.00  0.00    +0.000 A 
ATOM     17  C   UNL     1      -5.111  13.944  23.902  0.00  0.00    +0.000 A 
ATOM     18  C   UNL     1      -4.524  14.375  22.706  0.00  0.00    +0.000 A 
ENDBRANCH  12  13
BRANCH  12  19
ATOM     19  C   UNL     1      -1.448  14.742  20.964  0.00  0.00    +0.000 A 
ATOM     20  C   UNL     1      -0.662  14.806  22.108  0.00  0.00    +0.000 A 
ATOM     21  C   UNL     1       0.602  15.419  21.882  0.00  0.00    +0.000 A 
ATOM     22  C   UNL     1       0.724  15.882  20.593  0.00  0.00    +0.000 A 
ATOM     23  S   UNL     1      -0.702  15.636  19.689  0.00  0.00    +0.000 S 
ENDBRANCH  12  19
BRANCH  12  24
ATOM     24  O   UNL     1      -3.623  15.123  20.185  0.00  0.00    +0.000 OA
ATOM     25  H   UNL     1      -3.134  15.963  20.316  0.00  0.00    +0.000 HD
ENDBRANCH  12  24
ENDBRANCH  11  12
ENDBRANCH   9  11
ENDBRANCH   1   9
BRANCH   3  26
ATOM     26  C   UNL     1       1.340   8.922  17.880  0.00  0.00    +0.000 C 
BRANCH  26  27
ATOM     27  C   UNL     1       2.821   8.529  17.792  0.00  0.00    +0.000 C 
BRANCH  27  28
ATOM     28  C   UNL     1       3.136   7.049  17.976  0.00  0.00    +0.000 C 
BRANCH  28  29
ATOM     29  O   UNL     1       2.812   6.660  19.306  0.00  0.00    +0.000 OA
BRANCH  29  30
ATOM     30  C   UNL     1       2.191   5.442  19.438  0.00  0.00    +0.000 A 
ATOM     31  C   UNL     1       2.028   4.738  18.241  0.00  0.00    +0.000 A 
ATOM     32  C   UNL     1       1.408   3.488  18.234  0.00  0.00    +0.000 A 
ATOM     33  C   UNL     1       0.953   2.926  19.424  0.00  0.00    +0.000 A 
ATOM     34  C   UNL     1       1.130   3.609  20.622  0.00  0.00    +0.000 A 
ATOM     35  C   UNL     1       1.745   4.866  20.632  0.00  0.00    +0.000 A 
ENDBRANCH  29  30
ENDBRANCH  28  29
ENDBRANCH  27  28
ENDBRANCH  26  27
ENDBRANCH   3  26
TORSDOF 11
ENDMDL
