MODEL 1
REMARK VINA RESULT:      -6.7      0.000      0.000
REMARK  Name = 
REMARK  3 active torsions:
REMARK  status: ('A' for Active; 'I' for Inactive)
REMARK    1  A    between atoms: C_4  and  C_5
REMARK    2  A    between atoms: C_5  and  O_6
REMARK    3  A    between atoms: C_8  and  C_9
REMARK                            x       y       z     vdW  Elec       q    Type
REMARK                         _______ _______ _______ _____ _____    ______ ____
ROOT
ATOM      1  O   UNL     1       7.706   4.360  18.107  0.00  0.00    +0.000 OA
ATOM      2  C   UNL     1       7.072   4.649  17.108  0.00  0.00    +0.000 C 
ATOM      3  O   UNL     1       7.638   5.057  15.935  0.00  0.00    +0.000 OA
ATOM      4  C   UNL     1       6.613   5.293  14.968  0.00  0.00    +0.000 C 
ATOM      5  C   UNL     1       5.362   5.004  15.699  0.00  0.00    +0.000 C 
ATOM      6  C   UNL     1       5.603   4.602  16.950  0.00  0.00    +0.000 C 
ENDROOT
BRANCH   6   7
ATOM      7  C   UNL     1       4.617   4.181  17.947  0.00  0.00    +0.000 A 
ATOM      8  C   UNL     1       4.264   5.033  19.010  0.00  0.00    +0.000 A 
ATOM      9  C   UNL     1       3.308   4.648  19.956  0.00  0.00    +0.000 A 
ATOM     10  C   UNL     1       2.691   3.406  19.844  0.00  0.00    +0.000 A 
ATOM     11 BR   UNL     1       1.391   2.886  21.114  0.00  0.00    +0.000 Br
ATOM     12  C   UNL     1       3.021   2.549  18.799  0.00  0.00    +0.000 A 
ATOM     13  C   UNL     1       3.979   2.937  17.856  0.00  0.00    +0.000 A 
ENDBRANCH   6   7
BRANCH   4  14
ATOM     14  C   UNL     1       6.835   4.380  13.756  0.00  0.00    +0.000 C 
BRANCH  14  15
ATOM     15  O   UNL     1       6.159   3.129  13.903  0.00  0.00    +0.000 OA
ATOM     16  H   UNL     1       6.733   2.556  14.444  0.00  0.00    +0.000 HD
ENDBRANCH  14  15
ENDBRANCH   4  14
TORSDOF 3
ENDMDL
MODEL 2
REMARK VINA RESULT:      -6.6      0.394      1.306
REMARK  Name = 
REMARK  3 active torsions:
REMARK  status: ('A' for Active; 'I' for Inactive)
REMARK    1  A    between atoms: C_4  and  C_5
REMARK    2  A    between atoms: C_5  and  O_6
REMARK    3  A    between atoms: C_8  and  C_9
REMARK                            x       y       z     vdW  Elec       q    Type
REMARK                         _______ _______ _______ _____ _____    ______ ____
ROOT
ATOM      1  O   UNL     1       7.651   4.347  17.926  0.00  0.00    +0.000 OA
ATOM      2  C   UNL     1       7.000   4.556  16.918  0.00  0.00    +0.000 C 
ATOM      3  O   UNL     1       7.544   4.877  15.709  0.00  0.00    +0.000 OA
ATOM      4  C   UNL     1       6.502   5.033  14.743  0.00  0.00    +0.000 C 
ATOM      5  C   UNL     1       5.265   4.792  15.514  0.00  0.00    +0.000 C 
ATOM      6  C   UNL     1       5.529   4.487  16.788  0.00  0.00    +0.000 C 
ENDROOT
BRANCH   6   7
ATOM      7  C   UNL     1       4.561   4.137  17.830  0.00  0.00    +0.000 A 
ATOM      8  C   UNL     1       3.920   2.885  17.822  0.00  0.00    +0.000 A 
ATOM      9  C   UNL     1       3.009   2.535  18.824  0.00  0.00    +0.000 A 
ATOM     10  C   UNL     1       2.734   3.435  19.849  0.00  0.00    +0.000 A 
ATOM     11 BR   UNL     1       1.512   2.961  21.211  0.00  0.00    +0.000 Br
ATOM     12  C   UNL     1       3.359   4.677  19.880  0.00  0.00    +0.000 A 
ATOM     13  C   UNL     1       4.268   5.025  18.875  0.00  0.00    +0.000 A 
ENDBRANCH   6   7
BRANCH   4  14
ATOM     14  C   UNL     1       6.713   4.031  13.600  0.00  0.00    +0.000 C 
BRANCH  14  15
ATOM     15  O   UNL     1       5.480   3.683  12.967  0.00  0.00    +0.000 OA
ATOM     16  H   UNL     1       4.854   4.409  13.142  0.00  0.00    +0.000 HD
ENDBRANCH  14  15
ENDBRANCH   4  14
TORSDOF 3
ENDMDL
MODEL 3
REMARK VINA RESULT:      -6.5      1.604      2.017
REMARK  Name = 
REMARK  3 active torsions:
REMARK  status: ('A' for Active; 'I' for Inactive)
REMARK    1  A    between atoms: C_4  and  C_5
REMARK    2  A    between atoms: C_5  and  O_6
REMARK    3  A    between atoms: C_8  and  C_9
REMARK                            x       y       z     vdW  Elec       q    Type
REMARK                         _______ _______ _______ _____ _____    ______ ____
ROOT
ATOM      1  O   UNL     1       4.619   7.246  17.270  0.00  0.00    +0.000 OA
ATOM      2  C   UNL     1       4.881   6.306  16.543  0.00  0.00    +0.000 C 
ATOM      3  O   UNL     1       5.595   6.411  15.384  0.00  0.00    +0.000 OA
ATOM      4  C   UNL     1       5.736   5.119  14.791  0.00  0.00    +0.000 C 
ATOM      5  C   UNL     1       5.004   4.225  15.713  0.00  0.00    +0.000 C 
ATOM      6  C   UNL     1       4.512   4.891  16.761  0.00  0.00    +0.000 C 
ENDROOT
BRANCH   6   7
ATOM      7  C   UNL     1       3.779   4.330  17.898  0.00  0.00    +0.000 A 
ATOM      8  C   UNL     1       4.450   3.591  18.889  0.00  0.00    +0.000 A 
ATOM      9  C   UNL     1       3.761   3.068  19.989  0.00  0.00    +0.000 A 
ATOM     10  C   UNL     1       2.392   3.286  20.110  0.00  0.00    +0.000 A 
ATOM     11 BR   UNL     1       1.460   2.591  21.600  0.00  0.00    +0.000 Br
ATOM     12  C   UNL     1       1.709   4.018  19.145  0.00  0.00    +0.000 A 
ATOM     13  C   UNL     1       2.401   4.537  18.045  0.00  0.00    +0.000 A 
ENDBRANCH   6   7
BRANCH   4  14
ATOM     14  C   UNL     1       7.226   4.776  14.664  0.00  0.00    +0.000 C 
BRANCH  14  15
ATOM     15  O   UNL     1       7.838   4.588  15.942  0.00  0.00    +0.000 OA
ATOM     16  H   UNL     1       7.693   3.657  16.193  0.00  0.00    +0.000 HD
ENDBRANCH  14  15
ENDBRANCH   4  14
TORSDOF 3
ENDMDL
MODEL 4
REMARK VINA RESULT:      -6.5      1.588      1.950
REMARK  Name = 
REMARK  3 active torsions:
REMARK  status: ('A' for Active; 'I' for Inactive)
REMARK    1  A    between atoms: C_4  and  C_5
REMARK    2  A    between atoms: C_5  and  O_6
REMARK    3  A    between atoms: C_8  and  C_9
REMARK                            x       y       z     vdW  Elec       q    Type
REMARK                         _______ _______ _______ _____ _____    ______ ____
ROOT
ATOM      1  O   UNL     1       4.710   7.306  17.306  0.00  0.00    +0.000 OA
ATOM      2  C   UNL     1       4.931   6.357  16.577  0.00  0.00    +0.000 C 
ATOM      3  O   UNL     1       5.617   6.441  15.400  0.00  0.00    +0.000 OA
ATOM      4  C   UNL     1       5.711   5.143  14.810  0.00  0.00    +0.000 C 
ATOM      5  C   UNL     1       4.982   4.270  15.754  0.00  0.00    +0.000 C 
ATOM      6  C   UNL     1       4.534   4.952  16.811  0.00  0.00    +0.000 C 
ENDROOT
BRANCH   6   7
ATOM      7  C   UNL     1       3.817   4.414  17.969  0.00  0.00    +0.000 A 
ATOM      8  C   UNL     1       2.470   4.748  18.197  0.00  0.00    +0.000 A 
ATOM      9  C   UNL     1       1.772   4.223  19.290  0.00  0.00    +0.000 A 
ATOM     10  C   UNL     1       2.416   3.353  20.164  0.00  0.00    +0.000 A 
ATOM     11 BR   UNL     1       1.473   2.633  21.636  0.00  0.00    +0.000 Br
ATOM     12  C   UNL     1       3.747   3.006  19.957  0.00  0.00    +0.000 A 
ATOM     13  C   UNL     1       4.442   3.535  18.864  0.00  0.00    +0.000 A 
ENDBRANCH   6   7
BRANCH   4  14
ATOM     14  C   UNL     1       7.189   4.763  14.646  0.00  0.00    +0.000 C 
BRANCH  14  15
ATOM     15  O   UNL     1       7.834   4.585  15.909  0.00  0.00    +0.000 OA
ATOM     16  H   UNL     1       8.586   3.982  15.762  0.00  0.00    +0.000 HD
ENDBRANCH  14  15
ENDBRANCH   4  14
TORSDOF 3
ENDMDL
MODEL 5
REMARK VINA RESULT:      -6.3      4.133      6.104
REMARK  Name = 
REMARK  3 active torsions:
REMARK  status: ('A' for Active; 'I' for Inactive)
REMARK    1  A    between atoms: C_4  and  C_5
REMARK    2  A    between atoms: C_5  and  O_6
REMARK    3  A    between atoms: C_8  and  C_9
REMARK                            x       y       z     vdW  Elec       q    Type
REMARK                         _______ _______ _______ _____ _____    ______ ____
ROOT
ATOM      1  O   UNL     1       1.012   4.007  17.372  0.00  0.00    +0.000 OA
ATOM      2  C   UNL     1       1.601   4.303  18.396  0.00  0.00    +0.000 C 
ATOM      3  O   UNL     1       1.026   4.305  19.634  0.00  0.00    +0.000 OA
ATOM      4  C   UNL     1       2.000   4.679  20.611  0.00  0.00    +0.000 C 
ATOM      5  C   UNL     1       3.222   4.925  19.817  0.00  0.00    +0.000 C 
ATOM      6  C   UNL     1       3.022   4.689  18.518  0.00  0.00    +0.000 C 
ENDROOT
BRANCH   6   7
ATOM      7  C   UNL     1       4.013   4.776  17.443  0.00  0.00    +0.000 A 
ATOM      8  C   UNL     1       4.434   6.026  16.955  0.00  0.00    +0.000 A 
ATOM      9  C   UNL     1       5.394   6.119  15.942  0.00  0.00    +0.000 A 
ATOM     10  C   UNL     1       5.947   4.958  15.410  0.00  0.00    +0.000 A 
ATOM     11 BR   UNL     1       7.253   5.080  14.049  0.00  0.00    +0.000 Br
ATOM     12  C   UNL     1       5.549   3.711  15.879  0.00  0.00    +0.000 A 
ATOM     13  C   UNL     1       4.587   3.622  16.891  0.00  0.00    +0.000 A 
ENDBRANCH   6   7
BRANCH   4  14
ATOM     14  C   UNL     1       2.156   3.547  21.635  0.00  0.00    +0.000 C 
BRANCH  14  15
ATOM     15  O   UNL     1       1.030   2.667  21.628  0.00  0.00    +0.000 OA
ATOM     16  H   UNL     1       0.535   2.844  20.806  0.00  0.00    +0.000 HD
ENDBRANCH  14  15
ENDBRANCH   4  14
TORSDOF 3
ENDMDL
MODEL 6
REMARK VINA RESULT:      -6.3      3.806      5.957
REMARK  Name = 
REMARK  3 active torsions:
REMARK  status: ('A' for Active; 'I' for Inactive)
REMARK    1  A    between atoms: C_4  and  C_5
REMARK    2  A    between atoms: C_5  and  O_6
REMARK    3  A    between atoms: C_8  and  C_9
REMARK                            x       y       z     vdW  Elec       q    Type
REMARK                         _______ _______ _______ _____ _____    ______ ____
ROOT
ATOM      1  O   UNL     1       3.590   1.938  17.855  0.00  0.00    +0.000 OA
ATOM      2  C   UNL     1       2.894   2.566  18.632  0.00  0.00    +0.000 C 
ATOM      3  O   UNL     1       1.801   2.051  19.267  0.00  0.00    +0.000 OA
ATOM      4  C   UNL     1       1.231   3.046  20.119  0.00  0.00    +0.000 C 
ATOM      5  C   UNL     1       2.091   4.229  19.906  0.00  0.00    +0.000 C 
ATOM      6  C   UNL     1       3.088   3.968  19.057  0.00  0.00    +0.000 C 
ENDROOT
BRANCH   6   7
ATOM      7  C   UNL     1       4.161   4.878  18.649  0.00  0.00    +0.000 A 
ATOM      8  C   UNL     1       5.450   4.757  19.198  0.00  0.00    +0.000 A 
ATOM      9  C   UNL     1       6.486   5.609  18.800  0.00  0.00    +0.000 A 
ATOM     10  C   UNL     1       6.242   6.589  17.843  0.00  0.00    +0.000 A 
ATOM     11 BR   UNL     1       7.641   7.735  17.296  0.00  0.00    +0.000 Br
ATOM     12  C   UNL     1       4.975   6.725  17.284  0.00  0.00    +0.000 A 
ATOM     13  C   UNL     1       3.942   5.872  17.686  0.00  0.00    +0.000 A 
ENDBRANCH   6   7
BRANCH   4  14
ATOM     14  C   UNL     1       1.236   2.541  21.568  0.00  0.00    +0.000 C 
BRANCH  14  15
ATOM     15  O   UNL     1       2.443   2.891  22.247  0.00  0.00    +0.000 OA
ATOM     16  H   UNL     1       2.440   3.861  22.353  0.00  0.00    +0.000 HD
ENDBRANCH  14  15
ENDBRANCH   4  14
TORSDOF 3
ENDMDL
MODEL 7
REMARK VINA RESULT:      -6.2      3.966      6.197
REMARK  Name = 
REMARK  3 active torsions:
REMARK  status: ('A' for Active; 'I' for Inactive)
REMARK    1  A    between atoms: C_4  and  C_5
REMARK    2  A    between atoms: C_5  and  O_6
REMARK    3  A    between atoms: C_8  and  C_9
REMARK                            x       y       z     vdW  Elec       q    Type
REMARK                         _______ _______ _______ _____ _____    ______ ____
ROOT
ATOM      1  O   UNL     1       0.811   3.901  17.442  0.00  0.00    +0.000 OA
ATOM      2  C   UNL     1       1.361   4.045  18.518  0.00  0.00    +0.000 C 
ATOM      3  O   UNL     1       0.732   3.911  19.722  0.00  0.00    +0.000 OA
ATOM      4  C   UNL     1       1.672   4.125  20.778  0.00  0.00    +0.000 C 
ATOM      5  C   UNL     1       2.934   4.428  20.072  0.00  0.00    +0.000 C 
ATOM      6  C   UNL     1       2.786   4.365  18.746  0.00  0.00    +0.000 C 
ENDROOT
BRANCH   6   7
ATOM      7  C   UNL     1       3.826   4.554  17.732  0.00  0.00    +0.000 A 
ATOM      8  C   UNL     1       4.457   3.446  17.138  0.00  0.00    +0.000 A 
ATOM      9  C   UNL     1       5.437   3.616  16.154  0.00  0.00    +0.000 A 
ATOM     10  C   UNL     1       5.793   4.900  15.752  0.00  0.00    +0.000 A 
ATOM     11 BR   UNL     1       7.109   5.134  14.416  0.00  0.00    +0.000 Br
ATOM     12  C   UNL     1       5.180   6.010  16.323  0.00  0.00    +0.000 A 
ATOM     13  C   UNL     1       4.201   5.836  17.308  0.00  0.00    +0.000 A 
ENDBRANCH   6   7
BRANCH   4  14
ATOM     14  C   UNL     1       1.749   2.868  21.654  0.00  0.00    +0.000 C 
BRANCH  14  15
ATOM     15  O   UNL     1       3.100   2.451  21.864  0.00  0.00    +0.000 OA
ATOM     16  H   UNL     1       3.235   2.398  22.828  0.00  0.00    +0.000 HD
ENDBRANCH  14  15
ENDBRANCH   4  14
TORSDOF 3
ENDMDL
MODEL 8
REMARK VINA RESULT:      -6.2      3.860      6.026
REMARK  Name = 
REMARK  3 active torsions:
REMARK  status: ('A' for Active; 'I' for Inactive)
REMARK    1  A    between atoms: C_4  and  C_5
REMARK    2  A    between atoms: C_5  and  O_6
REMARK    3  A    between atoms: C_8  and  C_9
REMARK                            x       y       z     vdW  Elec       q    Type
REMARK                         _______ _______ _______ _____ _____    ______ ____
ROOT
ATOM      1  O   UNL     1       2.999   2.251  17.564  0.00  0.00    +0.000 OA
ATOM      2  C   UNL     1       2.492   2.842  18.499  0.00  0.00    +0.000 C 
ATOM      3  O   UNL     1       1.423   2.377  19.209  0.00  0.00    +0.000 OA
ATOM      4  C   UNL     1       1.099   3.305  20.246  0.00  0.00    +0.000 C 
ATOM      5  C   UNL     1       2.079   4.395  20.065  0.00  0.00    +0.000 C 
ATOM      6  C   UNL     1       2.924   4.139  19.062  0.00  0.00    +0.000 C 
ENDROOT
BRANCH   6   7
ATOM      7  C   UNL     1       4.053   4.963  18.627  0.00  0.00    +0.000 A 
ATOM      8  C   UNL     1       3.875   5.974  17.666  0.00  0.00    +0.000 A 
ATOM      9  C   UNL     1       4.944   6.779  17.259  0.00  0.00    +0.000 A 
ATOM     10  C   UNL     1       6.204   6.583  17.816  0.00  0.00    +0.000 A 
ATOM     11 BR   UNL     1       7.649   7.675  17.276  0.00  0.00    +0.000 Br
ATOM     12  C   UNL     1       6.403   5.592  18.772  0.00  0.00    +0.000 A 
ATOM     13  C   UNL     1       5.332   4.787  19.174  0.00  0.00    +0.000 A 
ENDBRANCH   6   7
BRANCH   4  14
ATOM     14  C   UNL     1       1.208   2.607  21.608  0.00  0.00    +0.000 C 
BRANCH  14  15
ATOM     15  O   UNL     1       2.410   2.965  22.293  0.00  0.00    +0.000 OA
ATOM     16  H   UNL     1       2.937   2.150  22.389  0.00  0.00    +0.000 HD
ENDBRANCH  14  15
ENDBRANCH   4  14
TORSDOF 3
ENDMDL
MODEL 9
REMARK VINA RESULT:      -6.1      3.601      4.769
REMARK  Name = 
REMARK  3 active torsions:
REMARK  status: ('A' for Active; 'I' for Inactive)
REMARK    1  A    between atoms: C_4  and  C_5
REMARK    2  A    between atoms: C_5  and  O_6
REMARK    3  A    between atoms: C_8  and  C_9
REMARK                            x       y       z     vdW  Elec       q    Type
REMARK                         _______ _______ _______ _____ _____    ______ ____
ROOT
ATOM      1  O   UNL     1       5.379   5.484  19.428  0.00  0.00    +0.000 OA
ATOM      2  C   UNL     1       4.546   4.918  18.743  0.00  0.00    +0.000 C 
ATOM      3  O   UNL     1       4.731   3.694  18.171  0.00  0.00    +0.000 OA
ATOM      4  C   UNL     1       3.552   3.318  17.455  0.00  0.00    +0.000 C 
ATOM      5  C   UNL     1       2.643   4.469  17.641  0.00  0.00    +0.000 C 
ATOM      6  C   UNL     1       3.192   5.412  18.412  0.00  0.00    +0.000 C 
ENDROOT
BRANCH   6   7
ATOM      7  C   UNL     1       2.571   6.662  18.853  0.00  0.00    +0.000 A 
ATOM      8  C   UNL     1       2.389   7.728  17.954  0.00  0.00    +0.000 A 
ATOM      9  C   UNL     1       1.779   8.919  18.361  0.00  0.00    +0.000 A 
ATOM     10  C   UNL     1       1.340   9.053  19.675  0.00  0.00    +0.000 A 
ATOM     11 BR   UNL     1       0.506  10.657  20.226  0.00  0.00    +0.000 Br
ATOM     12  C   UNL     1       1.506   8.011  20.581  0.00  0.00    +0.000 A 
ATOM     13  C   UNL     1       2.118   6.822  20.170  0.00  0.00    +0.000 A 
ENDBRANCH   6   7
BRANCH   4  14
ATOM     14  C   UNL     1       3.002   2.007  18.031  0.00  0.00    +0.000 C 
BRANCH  14  15
ATOM     15  O   UNL     1       4.050   1.123  18.434  0.00  0.00    +0.000 OA
ATOM     16  H   UNL     1       4.726   1.667  18.880  0.00  0.00    +0.000 HD
ENDBRANCH  14  15
ENDBRANCH   4  14
TORSDOF 3
ENDMDL
