MODEL 1
REMARK VINA RESULT:      -8.4      0.000      0.000
REMARK  Name = 
REMARK  6 active torsions:
REMARK  status: ('A' for Active; 'I' for Inactive)
REMARK    1  A    between atoms: C_1  and  C_2
REMARK    2  A    between atoms: C_2  and  C_3
REMARK    3  A    between atoms: C_3  and  C_4
REMARK    4  A    between atoms: C_4  and  C_5
REMARK    5  A    between atoms: N_23  and  C_24
REMARK    6  A    between atoms: C_24  and  C_25
REMARK                            x       y       z     vdW  Elec       q    Type
REMARK                         _______ _______ _______ _____ _____    ______ ____
ROOT
ATOM      1  C   UNL     1       4.201   5.453  17.747  0.00  0.00    +0.000 C 
ATOM      2  C   UNL     1       3.508   4.168  18.234  0.00  0.00    +0.000 A 
ATOM      3  C   UNL     1       4.282   3.153  18.804  0.00  0.00    +0.000 A 
ATOM      4  C   UNL     1       3.703   1.983  19.305  0.00  0.00    +0.000 A 
ATOM      5  C   UNL     1       2.324   1.805  19.221  0.00  0.00    +0.000 A 
ATOM      6  C   UNL     1       1.555   2.771  18.586  0.00  0.00    +0.000 A 
ATOM      7  F   UNL     1       0.233   2.577  18.462  0.00  0.00    +0.000 F 
ATOM      8  C   UNL     1       2.137   3.930  18.082  0.00  0.00    +0.000 A 
ATOM      9  F   UNL     1       1.363   4.809  17.431  0.00  0.00    +0.000 F 
ATOM     10  N   UNL     1       5.666   3.293  18.841  0.00  0.00    +0.000 N 
ATOM     11  C   UNL     1       6.329   4.463  18.638  0.00  0.00    +0.000 C 
ATOM     12  O   UNL     1       7.548   4.511  18.779  0.00  0.00    +0.000 OA
ATOM     13  N   UNL     1       5.545   5.573  18.413  0.00  0.00    +0.000 N 
ATOM     14  H   UNL     1       6.251   2.527  19.147  0.00  0.00    +0.000 HD
ENDROOT
BRANCH   1  15
ATOM     15  C   UNL     1       3.328   6.690  18.145  0.00  0.00    +0.000 A 
ATOM     16  C   UNL     1       3.047   7.752  17.262  0.00  0.00    +0.000 A 
ATOM     17  C   UNL     1       2.235   8.820  17.655  0.00  0.00    +0.000 A 
ATOM     18  C   UNL     1       1.703   8.849  18.932  0.00  0.00    +0.000 A 
ATOM     19  F   UNL     1       0.924   9.872  19.305  0.00  0.00    +0.000 F 
ATOM     20  C   UNL     1       1.968   7.828  19.835  0.00  0.00    +0.000 A 
ATOM     21  C   UNL     1       2.772   6.755  19.446  0.00  0.00    +0.000 A 
ENDBRANCH   1  15
BRANCH   1  22
ATOM     22  C   UNL     1       4.352   5.337  16.181  0.00  0.00    +0.000 C 
BRANCH  22  24
ATOM     23  C   UNL     1       5.974   4.656  14.364  0.00  0.00    +0.000 C 
ATOM     24  C   UNL     1       5.234   4.209  15.620  0.00  0.00    +0.000 C 
ENDBRANCH  22  24
ENDBRANCH   1  22
BRANCH  13  25
ATOM     25  C   UNL     1       6.195   6.871  18.705  0.00  0.00    +0.000 C 
BRANCH  25  26
ATOM     26  C   UNL     1       7.295   7.373  17.771  0.00  0.00    +0.000 C 
ATOM     27  F   UNL     1       7.430   6.625  16.658  0.00  0.00    +0.000 F 
ATOM     28  F   UNL     1       7.017   8.639  17.373  0.00  0.00    +0.000 F 
ATOM     29  F   UNL     1       8.494   7.413  18.394  0.00  0.00    +0.000 F 
ENDBRANCH  25  26
ENDBRANCH  13  25
TORSDOF 5
ENDMDL
MODEL 2
REMARK VINA RESULT:      -8.0      2.400      5.582
REMARK  Name = 
REMARK  6 active torsions:
REMARK  status: ('A' for Active; 'I' for Inactive)
REMARK    1  A    between atoms: C_1  and  C_2
REMARK    2  A    between atoms: C_2  and  C_3
REMARK    3  A    between atoms: C_3  and  C_4
REMARK    4  A    between atoms: C_4  and  C_5
REMARK    5  A    between atoms: N_23  and  C_24
REMARK    6  A    between atoms: C_24  and  C_25
REMARK                            x       y       z     vdW  Elec       q    Type
REMARK                         _______ _______ _______ _____ _____    ______ ____
ROOT
ATOM      1  C   UNL     1       2.996   5.118  18.633  0.00  0.00    +0.000 C 
ATOM      2  C   UNL     1       2.460   6.519  18.976  0.00  0.00    +0.000 A 
ATOM      3  C   UNL     1       1.967   6.762  20.261  0.00  0.00    +0.000 A 
ATOM      4  C   UNL     1       1.509   8.026  20.645  0.00  0.00    +0.000 A 
ATOM      5  C   UNL     1       1.521   9.072  19.724  0.00  0.00    +0.000 A 
ATOM      6  C   UNL     1       1.934   8.823  18.423  0.00  0.00    +0.000 A 
ATOM      7  F   UNL     1       1.900   9.818  17.524  0.00  0.00    +0.000 F 
ATOM      8  C   UNL     1       2.381   7.560  18.044  0.00  0.00    +0.000 A 
ATOM      9  F   UNL     1       2.720   7.354  16.764  0.00  0.00    +0.000 F 
ATOM     10  N   UNL     1       1.895   5.712  21.171  0.00  0.00    +0.000 N 
ATOM     11  C   UNL     1       2.536   4.521  21.027  0.00  0.00    +0.000 C 
ATOM     12  O   UNL     1       2.488   3.684  21.926  0.00  0.00    +0.000 OA
ATOM     13  N   UNL     1       3.327   4.389  19.908  0.00  0.00    +0.000 N 
ATOM     14  H   UNL     1       1.442   5.839  22.067  0.00  0.00    +0.000 HD
ENDROOT
BRANCH   1  15
ATOM     15  C   UNL     1       4.300   5.262  17.780  0.00  0.00    +0.000 A 
ATOM     16  C   UNL     1       5.412   6.025  18.192  0.00  0.00    +0.000 A 
ATOM     17  C   UNL     1       6.568   6.096  17.409  0.00  0.00    +0.000 A 
ATOM     18  C   UNL     1       6.627   5.419  16.204  0.00  0.00    +0.000 A 
ATOM     19  F   UNL     1       7.736   5.487  15.457  0.00  0.00    +0.000 F 
ATOM     20  C   UNL     1       5.548   4.667  15.758  0.00  0.00    +0.000 A 
ATOM     21  C   UNL     1       4.395   4.586  16.539  0.00  0.00    +0.000 A 
ENDBRANCH   1  15
BRANCH   1  22
ATOM     22  C   UNL     1       1.864   4.369  17.828  0.00  0.00    +0.000 C 
BRANCH  22  24
ATOM     23  C   UNL     1       0.701   2.229  18.509  0.00  0.00    +0.000 C 
ATOM     24  C   UNL     1       0.701   3.750  18.621  0.00  0.00    +0.000 C 
ENDBRANCH  22  24
ENDBRANCH   1  22
BRANCH  13  25
ATOM     25  C   UNL     1       4.388   3.361  20.004  0.00  0.00    +0.000 C 
BRANCH  25  26
ATOM     26  C   UNL     1       4.096   1.949  19.498  0.00  0.00    +0.000 C 
ATOM     27  F   UNL     1       4.043   1.866  18.154  0.00  0.00    +0.000 F 
ATOM     28  F   UNL     1       5.070   1.103  19.915  0.00  0.00    +0.000 F 
ATOM     29  F   UNL     1       2.929   1.477  19.992  0.00  0.00    +0.000 F 
ENDBRANCH  25  26
ENDBRANCH  13  25
TORSDOF 5
ENDMDL
MODEL 3
REMARK VINA RESULT:      -7.1      1.872      5.098
REMARK  Name = 
REMARK  6 active torsions:
REMARK  status: ('A' for Active; 'I' for Inactive)
REMARK    1  A    between atoms: C_1  and  C_2
REMARK    2  A    between atoms: C_2  and  C_3
REMARK    3  A    between atoms: C_3  and  C_4
REMARK    4  A    between atoms: C_4  and  C_5
REMARK    5  A    between atoms: N_23  and  C_24
REMARK    6  A    between atoms: C_24  and  C_25
REMARK                            x       y       z     vdW  Elec       q    Type
REMARK                         _______ _______ _______ _____ _____    ______ ____
ROOT
ATOM      1  C   UNL     1       3.797   4.895  18.536  0.00  0.00    +0.000 C 
ATOM      2  C   UNL     1       4.993   5.016  17.576  0.00  0.00    +0.000 A 
ATOM      3  C   UNL     1       5.228   3.994  16.652  0.00  0.00    +0.000 A 
ATOM      4  C   UNL     1       6.272   4.070  15.724  0.00  0.00    +0.000 A 
ATOM      5  C   UNL     1       7.116   5.178  15.725  0.00  0.00    +0.000 A 
ATOM      6  C   UNL     1       6.940   6.161  16.689  0.00  0.00    +0.000 A 
ATOM      7  F   UNL     1       7.783   7.205  16.720  0.00  0.00    +0.000 F 
ATOM      8  C   UNL     1       5.905   6.077  17.615  0.00  0.00    +0.000 A 
ATOM      9  F   UNL     1       5.807   7.023  18.559  0.00  0.00    +0.000 F 
ATOM     10  N   UNL     1       4.429   2.855  16.679  0.00  0.00    +0.000 N 
ATOM     11  C   UNL     1       3.240   2.762  17.333  0.00  0.00    +0.000 C 
ATOM     12  O   UNL     1       2.558   1.747  17.227  0.00  0.00    +0.000 OA
ATOM     13  N   UNL     1       2.813   3.902  17.978  0.00  0.00    +0.000 N 
ATOM     14  H   UNL     1       4.650   2.059  16.095  0.00  0.00    +0.000 HD
ENDROOT
BRANCH   1  15
ATOM     15  C   UNL     1       3.094   6.287  18.660  0.00  0.00    +0.000 A 
ATOM     16  C   UNL     1       2.949   7.178  17.577  0.00  0.00    +0.000 A 
ATOM     17  C   UNL     1       2.284   8.398  17.732  0.00  0.00    +0.000 A 
ATOM     18  C   UNL     1       1.767   8.750  18.966  0.00  0.00    +0.000 A 
ATOM     19  F   UNL     1       1.128   9.919  19.111  0.00  0.00    +0.000 F 
ATOM     20  C   UNL     1       1.901   7.906  20.060  0.00  0.00    +0.000 A 
ATOM     21  C   UNL     1       2.557   6.683  19.910  0.00  0.00    +0.000 A 
ENDBRANCH   1  15
BRANCH   1  22
ATOM     22  C   UNL     1       4.363   4.411  19.927  0.00  0.00    +0.000 C 
BRANCH  22  24
ATOM     23  C   UNL     1       4.659   1.963  20.488  0.00  0.00    +0.000 C 
ATOM     24  C   UNL     1       5.332   3.216  19.939  0.00  0.00    +0.000 C 
ENDBRANCH  22  24
ENDBRANCH   1  22
BRANCH  13  25
ATOM     25  C   UNL     1       1.355   3.973  18.230  0.00  0.00    +0.000 C 
BRANCH  25  26
ATOM     26  C   UNL     1       0.798   3.373  19.520  0.00  0.00    +0.000 C 
ATOM     27  F   UNL     1       0.277   4.295  20.353  0.00  0.00    +0.000 F 
ATOM     28  F   UNL     1      -0.189   2.491  19.227  0.00  0.00    +0.000 F 
ATOM     29  F   UNL     1       1.747   2.688  20.197  0.00  0.00    +0.000 F 
ENDBRANCH  25  26
ENDBRANCH  13  25
TORSDOF 5
ENDMDL
MODEL 4
REMARK VINA RESULT:      -7.1      2.049      5.004
REMARK  Name = 
REMARK  6 active torsions:
REMARK  status: ('A' for Active; 'I' for Inactive)
REMARK    1  A    between atoms: C_1  and  C_2
REMARK    2  A    between atoms: C_2  and  C_3
REMARK    3  A    between atoms: C_3  and  C_4
REMARK    4  A    between atoms: C_4  and  C_5
REMARK    5  A    between atoms: N_23  and  C_24
REMARK    6  A    between atoms: C_24  and  C_25
REMARK                            x       y       z     vdW  Elec       q    Type
REMARK                         _______ _______ _______ _____ _____    ______ ____
ROOT
ATOM      1  C   UNL     1       4.065   5.593  18.260  0.00  0.00    +0.000 C 
ATOM      2  C   UNL     1       3.162   6.771  18.667  0.00  0.00    +0.000 A 
ATOM      3  C   UNL     1       3.125   7.910  17.857  0.00  0.00    +0.000 A 
ATOM      4  C   UNL     1       2.290   8.992  18.151  0.00  0.00    +0.000 A 
ATOM      5  C   UNL     1       1.487   8.954  19.288  0.00  0.00    +0.000 A 
ATOM      6  C   UNL     1       1.574   7.862  20.142  0.00  0.00    +0.000 A 
ATOM      7  F   UNL     1       0.836   7.847  21.262  0.00  0.00    +0.000 F 
ATOM      8  C   UNL     1       2.413   6.791  19.848  0.00  0.00    +0.000 A 
ATOM      9  F   UNL     1       2.503   5.785  20.728  0.00  0.00    +0.000 F 
ATOM     10  N   UNL     1       3.965   7.985  16.750  0.00  0.00    +0.000 N 
ATOM     11  C   UNL     1       4.620   6.925  16.205  0.00  0.00    +0.000 C 
ATOM     12  O   UNL     1       5.270   7.069  15.173  0.00  0.00    +0.000 OA
ATOM     13  N   UNL     1       4.388   5.702  16.793  0.00  0.00    +0.000 N 
ATOM     14  H   UNL     1       4.034   8.841  16.215  0.00  0.00    +0.000 HD
ENDROOT
BRANCH   1  15
ATOM     15  C   UNL     1       3.302   4.251  18.510  0.00  0.00    +0.000 A 
ATOM     16  C   UNL     1       3.876   3.149  19.177  0.00  0.00    +0.000 A 
ATOM     17  C   UNL     1       3.142   1.982  19.406  0.00  0.00    +0.000 A 
ATOM     18  C   UNL     1       1.833   1.892  18.963  0.00  0.00    +0.000 A 
ATOM     19  F   UNL     1       1.131   0.774  19.185  0.00  0.00    +0.000 F 
ATOM     20  C   UNL     1       1.237   2.950  18.291  0.00  0.00    +0.000 A 
ATOM     21  C   UNL     1       1.963   4.122  18.068  0.00  0.00    +0.000 A 
ENDBRANCH   1  15
BRANCH   1  22
ATOM     22  C   UNL     1       5.373   5.683  19.137  0.00  0.00    +0.000 C 
BRANCH  22  24
ATOM     23  C   UNL     1       7.899   5.778  19.203  0.00  0.00    +0.000 C 
ATOM     24  C   UNL     1       6.642   6.262  18.489  0.00  0.00    +0.000 C 
ENDBRANCH  22  24
ENDBRANCH   1  22
BRANCH  13  25
ATOM     25  C   UNL     1       4.658   4.528  15.932  0.00  0.00    +0.000 C 
BRANCH  25  26
ATOM     26  C   UNL     1       6.082   3.981  15.852  0.00  0.00    +0.000 C 
ATOM     27  F   UNL     1       6.991   4.913  15.502  0.00  0.00    +0.000 F 
ATOM     28  F   UNL     1       6.454   3.492  17.061  0.00  0.00    +0.000 F 
ATOM     29  F   UNL     1       6.172   2.960  14.971  0.00  0.00    +0.000 F 
ENDBRANCH  25  26
ENDBRANCH  13  25
TORSDOF 5
ENDMDL
MODEL 5
REMARK VINA RESULT:      -6.7      1.796      4.772
REMARK  Name = 
REMARK  6 active torsions:
REMARK  status: ('A' for Active; 'I' for Inactive)
REMARK    1  A    between atoms: C_1  and  C_2
REMARK    2  A    between atoms: C_2  and  C_3
REMARK    3  A    between atoms: C_3  and  C_4
REMARK    4  A    between atoms: C_4  and  C_5
REMARK    5  A    between atoms: N_23  and  C_24
REMARK    6  A    between atoms: C_24  and  C_25
REMARK                            x       y       z     vdW  Elec       q    Type
REMARK                         _______ _______ _______ _____ _____    ______ ____
ROOT
ATOM      1  C   UNL     1       4.228   5.091  18.733  0.00  0.00    +0.000 C 
ATOM      2  C   UNL     1       4.677   5.071  17.262  0.00  0.00    +0.000 A 
ATOM      3  C   UNL     1       4.808   3.842  16.608  0.00  0.00    +0.000 A 
ATOM      4  C   UNL     1       5.168   3.763  15.259  0.00  0.00    +0.000 A 
ATOM      5  C   UNL     1       5.426   4.931  14.545  0.00  0.00    +0.000 A 
ATOM      6  C   UNL     1       5.376   6.152  15.204  0.00  0.00    +0.000 A 
ATOM      7  F   UNL     1       5.672   7.272  14.528  0.00  0.00    +0.000 F 
ATOM      8  C   UNL     1       5.025   6.224  16.549  0.00  0.00    +0.000 A 
ATOM      9  F   UNL     1       5.042   7.419  17.155  0.00  0.00    +0.000 F 
ATOM     10  N   UNL     1       4.610   2.666  17.326  0.00  0.00    +0.000 N 
ATOM     11  C   UNL     1       4.010   2.597  18.544  0.00  0.00    +0.000 C 
ATOM     12  O   UNL     1       3.797   1.505  19.064  0.00  0.00    +0.000 OA
ATOM     13  N   UNL     1       3.550   3.788  19.062  0.00  0.00    +0.000 N 
ATOM     14  H   UNL     1       4.806   1.768  16.903  0.00  0.00    +0.000 HD
ENDROOT
BRANCH   1  15
ATOM     15  C   UNL     1       3.207   6.258  18.942  0.00  0.00    +0.000 A 
ATOM     16  C   UNL     1       2.822   6.729  20.215  0.00  0.00    +0.000 A 
ATOM     17  C   UNL     1       1.930   7.797  20.349  0.00  0.00    +0.000 A 
ATOM     18  C   UNL     1       1.401   8.399  19.220  0.00  0.00    +0.000 A 
ATOM     19  F   UNL     1       0.548   9.423  19.351  0.00  0.00    +0.000 F 
ATOM     20  C   UNL     1       1.744   7.956  17.951  0.00  0.00    +0.000 A 
ATOM     21  C   UNL     1       2.642   6.895  17.811  0.00  0.00    +0.000 A 
ENDBRANCH   1  15
BRANCH   1  22
ATOM     22  C   UNL     1       5.522   5.296  19.613  0.00  0.00    +0.000 C 
BRANCH  22  24
ATOM     23  C   UNL     1       7.800   6.179  18.962  0.00  0.00    +0.000 C 
ATOM     24  C   UNL     1       6.885   4.959  18.985  0.00  0.00    +0.000 C 
ENDBRANCH  22  24
ENDBRANCH   1  22
BRANCH  13  25
ATOM     25  C   UNL     1       2.484   3.661  20.081  0.00  0.00    +0.000 C 
BRANCH  25  26
ATOM     26  C   UNL     1       1.027   3.610  19.623  0.00  0.00    +0.000 C 
ATOM     27  F   UNL     1       0.476   2.385  19.736  0.00  0.00    +0.000 F 
ATOM     28  F   UNL     1       0.281   4.457  20.374  0.00  0.00    +0.000 F 
ATOM     29  F   UNL     1       0.898   4.008  18.338  0.00  0.00    +0.000 F 
ENDBRANCH  25  26
ENDBRANCH  13  25
TORSDOF 5
ENDMDL
MODEL 6
REMARK VINA RESULT:      -6.6      2.172      4.791
REMARK  Name = 
REMARK  6 active torsions:
REMARK  status: ('A' for Active; 'I' for Inactive)
REMARK    1  A    between atoms: C_1  and  C_2
REMARK    2  A    between atoms: C_2  and  C_3
REMARK    3  A    between atoms: C_3  and  C_4
REMARK    4  A    between atoms: C_4  and  C_5
REMARK    5  A    between atoms: N_23  and  C_24
REMARK    6  A    between atoms: C_24  and  C_25
REMARK                            x       y       z     vdW  Elec       q    Type
REMARK                         _______ _______ _______ _____ _____    ______ ____
ROOT
ATOM      1  C   UNL     1       3.870   5.002  18.717  0.00  0.00    +0.000 C 
ATOM      2  C   UNL     1       4.460   5.027  17.296  0.00  0.00    +0.000 A 
ATOM      3  C   UNL     1       4.550   3.832  16.576  0.00  0.00    +0.000 A 
ATOM      4  C   UNL     1       5.034   3.801  15.264  0.00  0.00    +0.000 A 
ATOM      5  C   UNL     1       5.459   4.980  14.658  0.00  0.00    +0.000 A 
ATOM      6  C   UNL     1       5.447   6.160  15.390  0.00  0.00    +0.000 A 
ATOM      7  F   UNL     1       5.902   7.287  14.821  0.00  0.00    +0.000 F 
ATOM      8  C   UNL     1       4.972   6.184  16.698  0.00  0.00    +0.000 A 
ATOM      9  F   UNL     1       5.030   7.335  17.382  0.00  0.00    +0.000 F 
ATOM     10  N   UNL     1       4.184   2.639  17.191  0.00  0.00    +0.000 N 
ATOM     11  C   UNL     1       3.462   2.553  18.341  0.00  0.00    +0.000 C 
ATOM     12  O   UNL     1       3.107   1.456  18.763  0.00  0.00    +0.000 OA
ATOM     13  N   UNL     1       3.056   3.748  18.892  0.00  0.00    +0.000 N 
ATOM     14  H   UNL     1       4.344   1.753  16.729  0.00  0.00    +0.000 HD
ENDROOT
BRANCH   1  15
ATOM     15  C   UNL     1       2.935   6.241  18.908  0.00  0.00    +0.000 A 
ATOM     16  C   UNL     1       2.660   6.815  20.166  0.00  0.00    +0.000 A 
ATOM     17  C   UNL     1       1.844   7.943  20.281  0.00  0.00    +0.000 A 
ATOM     18  C   UNL     1       1.282   8.507  19.149  0.00  0.00    +0.000 A 
ATOM     19  F   UNL     1       0.501   9.589  19.262  0.00  0.00    +0.000 F 
ATOM     20  C   UNL     1       1.518   7.963  17.893  0.00  0.00    +0.000 A 
ATOM     21  C   UNL     1       2.340   6.842  17.771  0.00  0.00    +0.000 A 
ENDBRANCH   1  15
BRANCH   1  22
ATOM     22  C   UNL     1       5.083   5.036  19.725  0.00  0.00    +0.000 C 
BRANCH  22  24
ATOM     23  C   UNL     1       7.476   5.787  19.399  0.00  0.00    +0.000 C 
ATOM     24  C   UNL     1       6.476   4.654  19.196  0.00  0.00    +0.000 C 
ENDBRANCH  22  24
ENDBRANCH   1  22
BRANCH  13  25
ATOM     25  C   UNL     1       1.887   3.658  19.796  0.00  0.00    +0.000 C 
BRANCH  25  26
ATOM     26  C   UNL     1       2.116   3.322  21.269  0.00  0.00    +0.000 C 
ATOM     27  F   UNL     1       3.183   2.525  21.473  0.00  0.00    +0.000 F 
ATOM     28  F   UNL     1       2.325   4.462  21.972  0.00  0.00    +0.000 F 
ATOM     29  F   UNL     1       1.035   2.719  21.813  0.00  0.00    +0.000 F 
ENDBRANCH  25  26
ENDBRANCH  13  25
TORSDOF 5
ENDMDL
MODEL 7
REMARK VINA RESULT:      -6.5      6.643     10.212
REMARK  Name = 
REMARK  6 active torsions:
REMARK  status: ('A' for Active; 'I' for Inactive)
REMARK    1  A    between atoms: C_1  and  C_2
REMARK    2  A    between atoms: C_2  and  C_3
REMARK    3  A    between atoms: C_3  and  C_4
REMARK    4  A    between atoms: C_4  and  C_5
REMARK    5  A    between atoms: N_23  and  C_24
REMARK    6  A    between atoms: C_24  and  C_25
REMARK                            x       y       z     vdW  Elec       q    Type
REMARK                         _______ _______ _______ _____ _____    ______ ____
ROOT
ATOM      1  C   UNL     1      -1.549  11.876  19.380  0.00  0.00    +0.000 C 
ATOM      2  C   UNL     1      -1.946  12.725  20.600  0.00  0.00    +0.000 A 
ATOM      3  C   UNL     1      -3.261  13.189  20.706  0.00  0.00    +0.000 A 
ATOM      4  C   UNL     1      -3.692  13.926  21.814  0.00  0.00    +0.000 A 
ATOM      5  C   UNL     1      -2.792  14.228  22.833  0.00  0.00    +0.000 A 
ATOM      6  C   UNL     1      -1.466  13.839  22.702  0.00  0.00    +0.000 A 
ATOM      7  F   UNL     1      -0.588  14.172  23.661  0.00  0.00    +0.000 F 
ATOM      8  C   UNL     1      -1.040  13.113  21.593  0.00  0.00    +0.000 A 
ATOM      9  F   UNL     1       0.260  12.806  21.485  0.00  0.00    +0.000 F 
ATOM     10  N   UNL     1      -4.154  12.945  19.667  0.00  0.00    +0.000 N 
ATOM     11  C   UNL     1      -3.954  12.036  18.675  0.00  0.00    +0.000 C 
ATOM     12  O   UNL     1      -4.837  11.823  17.849  0.00  0.00    +0.000 OA
ATOM     13  N   UNL     1      -2.791  11.302  18.751  0.00  0.00    +0.000 N 
ATOM     14  H   UNL     1      -5.075  13.364  19.672  0.00  0.00    +0.000 HD
ENDROOT
BRANCH   1  15
ATOM     15  C   UNL     1      -0.631  10.699  19.849  0.00  0.00    +0.000 A 
ATOM     16  C   UNL     1      -0.898   9.921  20.994  0.00  0.00    +0.000 A 
ATOM     17  C   UNL     1      -0.065   8.858  21.355  0.00  0.00    +0.000 A 
ATOM     18  C   UNL     1       1.050   8.565  20.588  0.00  0.00    +0.000 A 
ATOM     19  F   UNL     1       1.846   7.546  20.934  0.00  0.00    +0.000 F 
ATOM     20  C   UNL     1       1.354   9.317  19.461  0.00  0.00    +0.000 A 
ATOM     21  C   UNL     1       0.520  10.374  19.091  0.00  0.00    +0.000 A 
ENDBRANCH   1  15
BRANCH   1  22
ATOM     22  C   UNL     1      -0.793  12.829  18.375  0.00  0.00    +0.000 C 
BRANCH  22  24
ATOM     23  C   UNL     1       1.068  14.484  18.816  0.00  0.00    +0.000 C 
ATOM     24  C   UNL     1      -0.439  14.248  18.851  0.00  0.00    +0.000 C 
ENDBRANCH  22  24
ENDBRANCH   1  22
BRANCH  13  25
ATOM     25  C   UNL     1      -2.811  10.014  18.021  0.00  0.00    +0.000 C 
BRANCH  25  26
ATOM     26  C   UNL     1      -2.339   9.981  16.568  0.00  0.00    +0.000 C 
ATOM     27  F   UNL     1      -2.199  11.207  16.026  0.00  0.00    +0.000 F 
ATOM     28  F   UNL     1      -1.133   9.367  16.491  0.00  0.00    +0.000 F 
ATOM     29  F   UNL     1      -3.189   9.276  15.788  0.00  0.00    +0.000 F 
ENDBRANCH  25  26
ENDBRANCH  13  25
TORSDOF 5
ENDMDL
MODEL 8
REMARK VINA RESULT:      -6.4      6.538      9.404
REMARK  Name = 
REMARK  6 active torsions:
REMARK  status: ('A' for Active; 'I' for Inactive)
REMARK    1  A    between atoms: C_1  and  C_2
REMARK    2  A    between atoms: C_2  and  C_3
REMARK    3  A    between atoms: C_3  and  C_4
REMARK    4  A    between atoms: C_4  and  C_5
REMARK    5  A    between atoms: N_23  and  C_24
REMARK    6  A    between atoms: C_24  and  C_25
REMARK                            x       y       z     vdW  Elec       q    Type
REMARK                         _______ _______ _______ _____ _____    ______ ____
ROOT
ATOM      1  C   UNL     1       0.124  11.425  20.393  0.00  0.00    +0.000 C 
ATOM      2  C   UNL     1       1.169  12.487  20.008  0.00  0.00    +0.000 A 
ATOM      3  C   UNL     1       1.919  12.311  18.841  0.00  0.00    +0.000 A 
ATOM      4  C   UNL     1       2.849  13.264  18.416  0.00  0.00    +0.000 A 
ATOM      5  C   UNL     1       3.058  14.411  19.178  0.00  0.00    +0.000 A 
ATOM      6  C   UNL     1       2.377  14.559  20.378  0.00  0.00    +0.000 A 
ATOM      7  F   UNL     1       2.614  15.641  21.136  0.00  0.00    +0.000 F 
ATOM      8  C   UNL     1       1.457  13.603  20.801  0.00  0.00    +0.000 A 
ATOM      9  F   UNL     1       0.864  13.763  21.991  0.00  0.00    +0.000 F 
ATOM     10  N   UNL     1       1.762  11.142  18.103  0.00  0.00    +0.000 N 
ATOM     11  C   UNL     1       0.728  10.270  18.247  0.00  0.00    +0.000 C 
ATOM     12  O   UNL     1       0.623   9.310  17.488  0.00  0.00    +0.000 OA
ATOM     13  N   UNL     1      -0.230  10.614  19.175  0.00  0.00    +0.000 N 
ATOM     14  H   UNL     1       2.371  10.944  17.318  0.00  0.00    +0.000 HD
ENDROOT
BRANCH   1  15
ATOM     15  C   UNL     1      -1.165  12.139  20.917  0.00  0.00    +0.000 A 
ATOM     16  C   UNL     1      -1.873  13.102  20.168  0.00  0.00    +0.000 A 
ATOM     17  C   UNL     1      -3.039  13.688  20.667  0.00  0.00    +0.000 A 
ATOM     18  C   UNL     1      -3.508  13.333  21.921  0.00  0.00    +0.000 A 
ATOM     19  F   UNL     1      -4.627  13.895  22.396  0.00  0.00    +0.000 F 
ATOM     20  C   UNL     1      -2.832  12.399  22.693  0.00  0.00    +0.000 A 
ATOM     21  C   UNL     1      -1.672  11.804  22.196  0.00  0.00    +0.000 A 
ENDBRANCH   1  15
BRANCH   1  22
ATOM     22  C   UNL     1       0.772  10.517  21.509  0.00  0.00    +0.000 C 
BRANCH  22  24
ATOM     23  C   UNL     1       1.368   8.087  21.144  0.00  0.00    +0.000 C 
ATOM     24  C   UNL     1       0.296   9.059  21.624  0.00  0.00    +0.000 C 
ENDBRANCH  22  24
ENDBRANCH   1  22
BRANCH  13  25
ATOM     25  C   UNL     1      -1.554   9.985  18.975  0.00  0.00    +0.000 C 
BRANCH  25  26
ATOM     26  C   UNL     1      -2.434  10.463  17.821  0.00  0.00    +0.000 C 
ATOM     27  F   UNL     1      -2.587   9.540  16.851  0.00  0.00    +0.000 F 
ATOM     28  F   UNL     1      -3.671  10.770  18.283  0.00  0.00    +0.000 F 
ATOM     29  F   UNL     1      -1.938  11.585  17.253  0.00  0.00    +0.000 F 
ENDBRANCH  25  26
ENDBRANCH  13  25
TORSDOF 5
ENDMDL
MODEL 9
REMARK VINA RESULT:      -6.4      6.731     10.151
REMARK  Name = 
REMARK  6 active torsions:
REMARK  status: ('A' for Active; 'I' for Inactive)
REMARK    1  A    between atoms: C_1  and  C_2
REMARK    2  A    between atoms: C_2  and  C_3
REMARK    3  A    between atoms: C_3  and  C_4
REMARK    4  A    between atoms: C_4  and  C_5
REMARK    5  A    between atoms: N_23  and  C_24
REMARK    6  A    between atoms: C_24  and  C_25
REMARK                            x       y       z     vdW  Elec       q    Type
REMARK                         _______ _______ _______ _____ _____    ______ ____
ROOT
ATOM      1  C   UNL     1      -1.561  11.861  19.377  0.00  0.00    +0.000 C 
ATOM      2  C   UNL     1      -1.942  12.717  20.598  0.00  0.00    +0.000 A 
ATOM      3  C   UNL     1      -3.251  13.198  20.708  0.00  0.00    +0.000 A 
ATOM      4  C   UNL     1      -3.668  13.941  21.816  0.00  0.00    +0.000 A 
ATOM      5  C   UNL     1      -2.760  14.234  22.832  0.00  0.00    +0.000 A 
ATOM      6  C   UNL     1      -1.439  13.829  22.695  0.00  0.00    +0.000 A 
ATOM      7  F   UNL     1      -0.554  14.152  23.651  0.00  0.00    +0.000 F 
ATOM      8  C   UNL     1      -1.028  13.096  21.586  0.00  0.00    +0.000 A 
ATOM      9  F   UNL     1       0.268  12.773  21.473  0.00  0.00    +0.000 F 
ATOM     10  N   UNL     1      -4.151  12.963  19.673  0.00  0.00    +0.000 N 
ATOM     11  C   UNL     1      -3.966  12.050  18.682  0.00  0.00    +0.000 C 
ATOM     12  O   UNL     1      -4.856  11.846  17.860  0.00  0.00    +0.000 OA
ATOM     13  N   UNL     1      -2.812  11.302  18.754  0.00  0.00    +0.000 N 
ATOM     14  H   UNL     1      -5.067  13.393  19.682  0.00  0.00    +0.000 HD
ENDROOT
BRANCH   1  15
ATOM     15  C   UNL     1      -0.655  10.674  19.845  0.00  0.00    +0.000 A 
ATOM     16  C   UNL     1       0.520  10.286  19.169  0.00  0.00    +0.000 A 
ATOM     17  C   UNL     1       1.313   9.239  19.645  0.00  0.00    +0.000 A 
ATOM     18  C   UNL     1       0.941   8.558  20.791  0.00  0.00    +0.000 A 
ATOM     19  F   UNL     1       1.704   7.556  21.247  0.00  0.00    +0.000 F 
ATOM     20  C   UNL     1      -0.216   8.901  21.478  0.00  0.00    +0.000 A 
ATOM     21  C   UNL     1      -1.008   9.952  21.011  0.00  0.00    +0.000 A 
ENDBRANCH   1  15
BRANCH   1  22
ATOM     22  C   UNL     1      -0.797  12.803  18.368  0.00  0.00    +0.000 C 
BRANCH  22  24
ATOM     23  C   UNL     1       1.100  14.423  18.784  0.00  0.00    +0.000 C 
ATOM     24  C   UNL     1      -0.409  14.213  18.845  0.00  0.00    +0.000 C 
ENDBRANCH  22  24
ENDBRANCH   1  22
BRANCH  13  25
ATOM     25  C   UNL     1      -2.851  10.013  18.026  0.00  0.00    +0.000 C 
BRANCH  25  26
ATOM     26  C   UNL     1      -2.334   9.960  16.589  0.00  0.00    +0.000 C 
ATOM     27  F   UNL     1      -3.148   9.283  15.756  0.00  0.00    +0.000 F 
ATOM     28  F   UNL     1      -2.212  11.218  16.099  0.00  0.00    +0.000 F 
ATOM     29  F   UNL     1      -1.108   9.394  16.525  0.00  0.00    +0.000 F 
ENDBRANCH  25  26
ENDBRANCH  13  25
TORSDOF 5
ENDMDL
