MODEL 1
REMARK VINA RESULT:      -7.8      0.000      0.000
REMARK  Name = 
REMARK  7 active torsions:
REMARK  status: ('A' for Active; 'I' for Inactive)
REMARK    1  A    between atoms: C_1  and  C_2
REMARK    2  A    between atoms: C_2  and  C_3
REMARK    3  A    between atoms: C_8  and  N_9
REMARK    4  A    between atoms: C_10  and  C_12
REMARK    5  A    between atoms: C_12  and  N_13
REMARK    6  A    between atoms: N_16  and  C_17
REMARK    7  A    between atoms: C_17  and  N_18
REMARK                            x       y       z     vdW  Elec       q    Type
REMARK                         _______ _______ _______ _____ _____    ______ ____
ROOT
ATOM      1  N   UNL     1       0.112   8.877  20.870  0.00  0.00    +0.000 NA
ATOM      2  C   UNL     1      -0.657   8.856  22.138  0.00  0.00    +0.000 C 
ATOM      3  C   UNL     1      -0.317  10.002  23.123  0.00  0.00    +0.000 C 
ATOM      4  N   UNL     1      -0.400  11.357  22.542  0.00  0.00    +0.000 NA
ATOM      5  C   UNL     1       0.396  11.388  21.295  0.00  0.00    +0.000 C 
ATOM      6  C   UNL     1       0.054  10.248  20.301  0.00  0.00    +0.000 C 
ENDROOT
BRANCH   1   7
ATOM      7  C   UNL     1       1.507   8.448  21.123  0.00  0.00    +0.000 C 
BRANCH   7   9
ATOM      8  N   UNL     1       2.487   6.333  20.376  0.00  0.00    +0.000 N 
ATOM      9  C   UNL     1       2.052   7.590  19.979  0.00  0.00    +0.000 C 
ATOM     10  O   UNL     1       2.090   8.050  18.840  0.00  0.00    +0.000 OA
ATOM     11  H   UNL     1       2.495   6.163  21.376  0.00  0.00    +0.000 HD
BRANCH   8  17
ATOM     12  C   UNL     1       2.238   4.084  19.424  0.00  0.00    +0.000 A 
ATOM     13  C   UNL     1       2.751   3.062  18.594  0.00  0.00    +0.000 A 
ATOM     14  C   UNL     1       3.920   3.241  17.859  0.00  0.00    +0.000 A 
ATOM     15  C   UNL     1       4.590   4.450  17.931  0.00  0.00    +0.000 A 
ATOM     16  C   UNL     1       4.104   5.469  18.752  0.00  0.00    +0.000 A 
ATOM     17  C   UNL     1       2.946   5.300  19.525  0.00  0.00    +0.000 A 
BRANCH  12  19
ATOM     18  C   UNL     1       1.312   2.824  21.391  0.00  0.00    +0.000 C 
ATOM     19  C   UNL     1       0.998   3.748  20.222  0.00  0.00    +0.000 C 
ENDBRANCH  12  19
ENDBRANCH   8  17
ENDBRANCH   7   9
ENDBRANCH   1   7
BRANCH   4  20
ATOM     20  C   UNL     1      -1.777  11.791  22.269  0.00  0.00    +0.000 C 
BRANCH  20  21
ATOM     21  N   UNL     1      -2.111  12.939  23.066  0.00  0.00    +0.000 N 
ATOM     22  C   UNL     1      -3.128  12.962  23.965  0.00  0.00    +0.000 C 
ATOM     23  O   UNL     1      -3.860  12.046  24.297  0.00  0.00    +0.000 OA
ATOM     24  N   UNL     1      -3.226  14.235  24.478  0.00  0.00    +0.000 N 
ATOM     25  C   UNL     1      -2.161  15.095  24.009  0.00  0.00    +0.000 C 
ATOM     26  C   UNL     1      -2.685  16.399  23.414  0.00  0.00    +0.000 C 
ATOM     27  C   UNL     1      -3.229  17.333  24.492  0.00  0.00    +0.000 C 
ATOM     28  C   UNL     1      -2.205  17.579  25.598  0.00  0.00    +0.000 C 
ATOM     29  C   UNL     1      -1.672  16.278  26.195  0.00  0.00    +0.000 C 
ATOM     30  C   UNL     1      -1.131  15.338  25.117  0.00  0.00    +0.000 C 
ATOM     31  C   UNL     1      -1.565  14.186  22.919  0.00  0.00    +0.000 C 
ATOM     32  O   UNL     1      -0.729  14.537  22.099  0.00  0.00    +0.000 OA
ATOM     33  H   UNL     1      -3.879  14.443  25.223  0.00  0.00    +0.000 HD
ENDBRANCH  20  21
ENDBRANCH   4  20
TORSDOF 6
ENDMDL
MODEL 2
REMARK VINA RESULT:      -7.7      1.950      2.876
REMARK  Name = 
REMARK  7 active torsions:
REMARK  status: ('A' for Active; 'I' for Inactive)
REMARK    1  A    between atoms: C_1  and  C_2
REMARK    2  A    between atoms: C_2  and  C_3
REMARK    3  A    between atoms: C_8  and  N_9
REMARK    4  A    between atoms: C_10  and  C_12
REMARK    5  A    between atoms: C_12  and  N_13
REMARK    6  A    between atoms: N_16  and  C_17
REMARK    7  A    between atoms: C_17  and  N_18
REMARK                            x       y       z     vdW  Elec       q    Type
REMARK                         _______ _______ _______ _____ _____    ______ ____
ROOT
ATOM      1  N   UNL     1       2.140   9.013  18.827  0.00  0.00    +0.000 NA
ATOM      2  C   UNL     1       1.570  10.295  18.346  0.00  0.00    +0.000 C 
ATOM      3  C   UNL     1       0.051  10.463  18.593  0.00  0.00    +0.000 C 
ATOM      4  N   UNL     1      -0.372  10.254  19.992  0.00  0.00    +0.000 NA
ATOM      5  C   UNL     1       0.168   8.959  20.462  0.00  0.00    +0.000 C 
ATOM      6  C   UNL     1       1.691   8.788  20.225  0.00  0.00    +0.000 C 
ENDROOT
BRANCH   1   7
ATOM      7  C   UNL     1       1.720   7.910  17.933  0.00  0.00    +0.000 C 
BRANCH   7   9
ATOM      8  N   UNL     1       1.845   5.470  18.088  0.00  0.00    +0.000 N 
ATOM      9  C   UNL     1       2.568   6.654  18.147  0.00  0.00    +0.000 C 
ATOM     10  O   UNL     1       3.771   6.765  18.370  0.00  0.00    +0.000 OA
ATOM     11  H   UNL     1       0.839   5.570  18.016  0.00  0.00    +0.000 HD
BRANCH   8  17
ATOM     12  C   UNL     1       1.977   3.273  19.174  0.00  0.00    +0.000 A 
ATOM     13  C   UNL     1       2.563   1.988  19.230  0.00  0.00    +0.000 A 
ATOM     14  C   UNL     1       3.503   1.576  18.289  0.00  0.00    +0.000 A 
ATOM     15  C   UNL     1       3.864   2.438  17.268  0.00  0.00    +0.000 A 
ATOM     16  C   UNL     1       3.303   3.714  17.200  0.00  0.00    +0.000 A 
ATOM     17  C   UNL     1       2.378   4.162  18.155  0.00  0.00    +0.000 A 
BRANCH  12  19
ATOM     18  C   UNL     1       1.378   2.922  21.589  0.00  0.00    +0.000 C 
ATOM     19  C   UNL     1       1.019   3.628  20.289  0.00  0.00    +0.000 C 
ENDBRANCH  12  19
ENDBRANCH   8  17
ENDBRANCH   7   9
ENDBRANCH   1   7
BRANCH   4  20
ATOM     20  C   UNL     1       0.052  11.332  20.897  0.00  0.00    +0.000 C 
BRANCH  20  21
ATOM     21  N   UNL     1      -1.056  11.791  21.688  0.00  0.00    +0.000 N 
ATOM     22  C   UNL     1      -1.372  11.284  22.907  0.00  0.00    +0.000 C 
ATOM     23  O   UNL     1      -0.770  10.443  23.552  0.00  0.00    +0.000 OA
ATOM     24  N   UNL     1      -2.533  11.883  23.339  0.00  0.00    +0.000 N 
ATOM     25  C   UNL     1      -2.971  12.931  22.442  0.00  0.00    +0.000 C 
ATOM     26  C   UNL     1      -4.428  12.762  22.017  0.00  0.00    +0.000 C 
ATOM     27  C   UNL     1      -5.389  13.069  23.162  0.00  0.00    +0.000 C 
ATOM     28  C   UNL     1      -5.126  14.446  23.769  0.00  0.00    +0.000 C 
ATOM     29  C   UNL     1      -3.670  14.624  24.192  0.00  0.00    +0.000 C 
ATOM     30  C   UNL     1      -2.703  14.312  23.050  0.00  0.00    +0.000 C 
ATOM     31  C   UNL     1      -2.014  12.672  21.265  0.00  0.00    +0.000 C 
ATOM     32  O   UNL     1      -2.103  13.200  20.166  0.00  0.00    +0.000 OA
ATOM     33  H   UNL     1      -2.899  11.695  24.263  0.00  0.00    +0.000 HD
ENDBRANCH  20  21
ENDBRANCH   4  20
TORSDOF 6
ENDMDL
MODEL 3
REMARK VINA RESULT:      -7.5      1.804      2.456
REMARK  Name = 
REMARK  7 active torsions:
REMARK  status: ('A' for Active; 'I' for Inactive)
REMARK    1  A    between atoms: C_1  and  C_2
REMARK    2  A    between atoms: C_2  and  C_3
REMARK    3  A    between atoms: C_8  and  N_9
REMARK    4  A    between atoms: C_10  and  C_12
REMARK    5  A    between atoms: C_12  and  N_13
REMARK    6  A    between atoms: N_16  and  C_17
REMARK    7  A    between atoms: C_17  and  N_18
REMARK                            x       y       z     vdW  Elec       q    Type
REMARK                         _______ _______ _______ _____ _____    ______ ____
ROOT
ATOM      1  N   UNL     1       0.113   9.034  20.809  0.00  0.00    +0.000 NA
ATOM      2  C   UNL     1      -0.557   8.840  22.117  0.00  0.00    +0.000 C 
ATOM      3  C   UNL     1      -0.158   9.863  23.209  0.00  0.00    +0.000 C 
ATOM      4  N   UNL     1      -0.303  11.276  22.810  0.00  0.00    +0.000 NA
ATOM      5  C   UNL     1       0.395  11.479  21.521  0.00  0.00    +0.000 C 
ATOM      6  C   UNL     1      -0.007  10.464  20.421  0.00  0.00    +0.000 C 
ENDROOT
BRANCH   1   7
ATOM      7  C   UNL     1       1.529   8.609  20.902  0.00  0.00    +0.000 C 
BRANCH   7   9
ATOM      8  N   UNL     1       2.480   6.556  19.968  0.00  0.00    +0.000 N 
ATOM      9  C   UNL     1       1.962   7.809  19.671  0.00  0.00    +0.000 C 
ATOM     10  O   UNL     1       1.852   8.309  18.554  0.00  0.00    +0.000 OA
ATOM     11  H   UNL     1       2.611   6.354  20.952  0.00  0.00    +0.000 HD
BRANCH   8  17
ATOM     12  C   UNL     1       2.149   4.362  18.918  0.00  0.00    +0.000 A 
ATOM     13  C   UNL     1       2.593   3.386  17.999  0.00  0.00    +0.000 A 
ATOM     14  C   UNL     1       3.705   3.602  17.189  0.00  0.00    +0.000 A 
ATOM     15  C   UNL     1       4.385   4.804  17.276  0.00  0.00    +0.000 A 
ATOM     16  C   UNL     1       3.967   5.778  18.184  0.00  0.00    +0.000 A 
ATOM     17  C   UNL     1       2.869   5.570  19.031  0.00  0.00    +0.000 A 
BRANCH  12  19
ATOM     18  C   UNL     1       1.387   3.096  20.950  0.00  0.00    +0.000 C 
ATOM     19  C   UNL     1       0.970   3.986  19.787  0.00  0.00    +0.000 C 
ENDBRANCH  12  19
ENDBRANCH   8  17
ENDBRANCH   7   9
ENDBRANCH   1   7
BRANCH   4  20
ATOM     20  C   UNL     1      -1.702  11.710  22.696  0.00  0.00    +0.000 C 
BRANCH  20  21
ATOM     21  N   UNL     1      -1.774  13.075  22.254  0.00  0.00    +0.000 N 
ATOM     22  C   UNL     1      -1.410  14.135  23.019  0.00  0.00    +0.000 C 
ATOM     23  O   UNL     1      -0.916  14.125  24.134  0.00  0.00    +0.000 OA
ATOM     24  N   UNL     1      -1.692  15.289  22.326  0.00  0.00    +0.000 N 
ATOM     25  C   UNL     1      -2.156  15.018  20.982  0.00  0.00    +0.000 C 
ATOM     26  C   UNL     1      -3.471  15.724  20.667  0.00  0.00    +0.000 C 
ATOM     27  C   UNL     1      -3.279  17.230  20.507  0.00  0.00    +0.000 C 
ATOM     28  C   UNL     1      -2.194  17.557  19.483  0.00  0.00    +0.000 C 
ATOM     29  C   UNL     1      -0.875  16.850  19.790  0.00  0.00    +0.000 C 
ATOM     30  C   UNL     1      -1.065  15.341  19.956  0.00  0.00    +0.000 C 
ATOM     31  C   UNL     1      -2.353  13.495  21.087  0.00  0.00    +0.000 C 
ATOM     32  O   UNL     1      -2.907  12.805  20.243  0.00  0.00    +0.000 OA
ATOM     33  H   UNL     1      -1.426  16.193  22.696  0.00  0.00    +0.000 HD
ENDBRANCH  20  21
ENDBRANCH   4  20
TORSDOF 6
ENDMDL
MODEL 4
REMARK VINA RESULT:      -7.4      2.473      2.922
REMARK  Name = 
REMARK  7 active torsions:
REMARK  status: ('A' for Active; 'I' for Inactive)
REMARK    1  A    between atoms: C_1  and  C_2
REMARK    2  A    between atoms: C_2  and  C_3
REMARK    3  A    between atoms: C_8  and  N_9
REMARK    4  A    between atoms: C_10  and  C_12
REMARK    5  A    between atoms: C_12  and  N_13
REMARK    6  A    between atoms: N_16  and  C_17
REMARK    7  A    between atoms: C_17  and  N_18
REMARK                            x       y       z     vdW  Elec       q    Type
REMARK                         _______ _______ _______ _____ _____    ______ ____
ROOT
ATOM      1  N   UNL     1       0.654  10.082  18.629  0.00  0.00    +0.000 NA
ATOM      2  C   UNL     1      -0.722  10.106  19.182  0.00  0.00    +0.000 C 
ATOM      3  C   UNL     1      -0.840  10.711  20.602  0.00  0.00    +0.000 C 
ATOM      4  N   UNL     1      -0.250  12.056  20.749  0.00  0.00    +0.000 NA
ATOM      5  C   UNL     1       1.134  12.026  20.228  0.00  0.00    +0.000 C 
ATOM      6  C   UNL     1       1.259  11.429  18.803  0.00  0.00    +0.000 C 
ENDROOT
BRANCH   1   7
ATOM      7  C   UNL     1       1.450   9.033  19.306  0.00  0.00    +0.000 C 
BRANCH   7   9
ATOM      8  N   UNL     1       2.735   7.009  18.810  0.00  0.00    +0.000 N 
ATOM      9  C   UNL     1       2.281   8.222  18.309  0.00  0.00    +0.000 C 
ATOM     10  O   UNL     1       2.505   8.681  17.192  0.00  0.00    +0.000 OA
ATOM     11  H   UNL     1       2.559   6.844  19.795  0.00  0.00    +0.000 HD
BRANCH   8  17
ATOM     12  C   UNL     1       2.830   4.787  17.773  0.00  0.00    +0.000 A 
ATOM     13  C   UNL     1       3.581   3.808  17.085  0.00  0.00    +0.000 A 
ATOM     14  C   UNL     1       4.895   4.044  16.691  0.00  0.00    +0.000 A 
ATOM     15  C   UNL     1       5.478   5.268  16.969  0.00  0.00    +0.000 A 
ATOM     16  C   UNL     1       4.755   6.246  17.655  0.00  0.00    +0.000 A 
ATOM     17  C   UNL     1       3.440   6.019  18.088  0.00  0.00    +0.000 A 
BRANCH  12  19
ATOM     18  C   UNL     1       1.444   3.657  19.538  0.00  0.00    +0.000 C 
ATOM     19  C   UNL     1       1.435   4.389  18.204  0.00  0.00    +0.000 C 
ENDBRANCH  12  19
ENDBRANCH   8  17
ENDBRANCH   7   9
ENDBRANCH   1   7
BRANCH   4  20
ATOM     20  C   UNL     1      -1.019  13.108  20.068  0.00  0.00    +0.000 C 
BRANCH  20  21
ATOM     21  N   UNL     1      -2.312  13.262  20.676  0.00  0.00    +0.000 N 
ATOM     22  C   UNL     1      -3.458  12.768  20.144  0.00  0.00    +0.000 C 
ATOM     23  O   UNL     1      -3.590  12.080  19.146  0.00  0.00    +0.000 OA
ATOM     24  N   UNL     1      -4.513  13.173  20.929  0.00  0.00    +0.000 N 
ATOM     25  C   UNL     1      -4.069  13.872  22.117  0.00  0.00    +0.000 C 
ATOM     26  C   UNL     1      -4.756  15.225  22.286  0.00  0.00    +0.000 C 
ATOM     27  C   UNL     1      -6.221  15.069  22.686  0.00  0.00    +0.000 C 
ATOM     28  C   UNL     1      -6.378  14.188  23.924  0.00  0.00    +0.000 C 
ATOM     29  C   UNL     1      -5.691  12.834  23.764  0.00  0.00    +0.000 C 
ATOM     30  C   UNL     1      -4.224  12.986  23.357  0.00  0.00    +0.000 C 
ATOM     31  C   UNL     1      -2.581  14.043  21.768  0.00  0.00    +0.000 C 
ATOM     32  O   UNL     1      -1.793  14.739  22.393  0.00  0.00    +0.000 OA
ATOM     33  H   UNL     1      -5.452  12.847  20.743  0.00  0.00    +0.000 HD
ENDBRANCH  20  21
ENDBRANCH   4  20
TORSDOF 6
ENDMDL
MODEL 5
REMARK VINA RESULT:      -7.4      3.003      4.120
REMARK  Name = 
REMARK  7 active torsions:
REMARK  status: ('A' for Active; 'I' for Inactive)
REMARK    1  A    between atoms: C_1  and  C_2
REMARK    2  A    between atoms: C_2  and  C_3
REMARK    3  A    between atoms: C_8  and  N_9
REMARK    4  A    between atoms: C_10  and  C_12
REMARK    5  A    between atoms: C_12  and  N_13
REMARK    6  A    between atoms: N_16  and  C_17
REMARK    7  A    between atoms: C_17  and  N_18
REMARK                            x       y       z     vdW  Elec       q    Type
REMARK                         _______ _______ _______ _____ _____    ______ ____
ROOT
ATOM      1  N   UNL     1       0.596   9.120  20.111  0.00  0.00    +0.000 NA
ATOM      2  C   UNL     1      -0.397   9.334  21.192  0.00  0.00    +0.000 C 
ATOM      3  C   UNL     1       0.025  10.368  22.265  0.00  0.00    +0.000 C 
ATOM      4  N   UNL     1       0.429  11.682  21.728  0.00  0.00    +0.000 NA
ATOM      5  C   UNL     1       1.445  11.471  20.673  0.00  0.00    +0.000 C 
ATOM      6  C   UNL     1       1.025  10.444  19.590  0.00  0.00    +0.000 C 
ENDROOT
BRANCH   1   7
ATOM      7  C   UNL     1       1.742   8.338  20.629  0.00  0.00    +0.000 C 
BRANCH   7   9
ATOM      8  N   UNL     1       2.203   5.942  20.436  0.00  0.00    +0.000 N 
ATOM      9  C   UNL     1       2.054   7.133  19.739  0.00  0.00    +0.000 C 
ATOM     10  O   UNL     1       2.172   7.289  18.527  0.00  0.00    +0.000 OA
ATOM     11  H   UNL     1       2.193   6.017  21.447  0.00  0.00    +0.000 HD
BRANCH   8  17
ATOM     12  C   UNL     1       3.667   4.274  19.388  0.00  0.00    +0.000 A 
ATOM     13  C   UNL     1       3.813   3.001  18.792  0.00  0.00    +0.000 A 
ATOM     14  C   UNL     1       2.742   2.117  18.695  0.00  0.00    +0.000 A 
ATOM     15  C   UNL     1       1.508   2.486  19.203  0.00  0.00    +0.000 A 
ATOM     16  C   UNL     1       1.342   3.742  19.788  0.00  0.00    +0.000 A 
ATOM     17  C   UNL     1       2.399   4.661  19.869  0.00  0.00    +0.000 A 
BRANCH  12  19
ATOM     18  C   UNL     1       5.220   5.651  17.972  0.00  0.00    +0.000 C 
ATOM     19  C   UNL     1       4.886   5.169  19.377  0.00  0.00    +0.000 C 
ENDBRANCH  12  19
ENDBRANCH   8  17
ENDBRANCH   7   9
ENDBRANCH   1   7
BRANCH   4  20
ATOM     20  C   UNL     1      -0.694  12.464  21.193  0.00  0.00    +0.000 C 
BRANCH  20  21
ATOM     21  N   UNL     1      -0.234  13.726  20.683  0.00  0.00    +0.000 N 
ATOM     22  C   UNL     1       0.151  14.762  21.470  0.00  0.00    +0.000 C 
ATOM     23  O   UNL     1       0.241  14.791  22.686  0.00  0.00    +0.000 OA
ATOM     24  N   UNL     1       0.441  15.838  20.662  0.00  0.00    +0.000 N 
ATOM     25  C   UNL     1       0.372  15.497  19.257  0.00  0.00    +0.000 C 
ATOM     26  C   UNL     1      -0.520  16.454  18.470  0.00  0.00    +0.000 C 
ATOM     27  C   UNL     1       0.129  17.826  18.308  0.00  0.00    +0.000 C 
ATOM     28  C   UNL     1       1.529  17.722  17.706  0.00  0.00    +0.000 C 
ATOM     29  C   UNL     1       2.426  16.764  18.486  0.00  0.00    +0.000 C 
ATOM     30  C   UNL     1       1.777  15.389  18.656  0.00  0.00    +0.000 C 
ATOM     31  C   UNL     1      -0.269  14.102  19.367  0.00  0.00    +0.000 C 
ATOM     32  O   UNL     1      -0.697  13.456  18.422  0.00  0.00    +0.000 OA
ATOM     33  H   UNL     1       0.819  16.691  21.053  0.00  0.00    +0.000 HD
ENDBRANCH  20  21
ENDBRANCH   4  20
TORSDOF 6
ENDMDL
MODEL 6
REMARK VINA RESULT:      -7.3      2.229      2.874
REMARK  Name = 
REMARK  7 active torsions:
REMARK  status: ('A' for Active; 'I' for Inactive)
REMARK    1  A    between atoms: C_1  and  C_2
REMARK    2  A    between atoms: C_2  and  C_3
REMARK    3  A    between atoms: C_8  and  N_9
REMARK    4  A    between atoms: C_10  and  C_12
REMARK    5  A    between atoms: C_12  and  N_13
REMARK    6  A    between atoms: N_16  and  C_17
REMARK    7  A    between atoms: C_17  and  N_18
REMARK                            x       y       z     vdW  Elec       q    Type
REMARK                         _______ _______ _______ _____ _____    ______ ____
ROOT
ATOM      1  N   UNL     1       0.650  10.257  18.859  0.00  0.00    +0.000 NA
ATOM      2  C   UNL     1      -0.713  10.322  19.440  0.00  0.00    +0.000 C 
ATOM      3  C   UNL     1      -0.769  10.803  20.911  0.00  0.00    +0.000 C 
ATOM      4  N   UNL     1      -0.085  12.087  21.165  0.00  0.00    +0.000 NA
ATOM      5  C   UNL     1       1.286  12.011  20.616  0.00  0.00    +0.000 C 
ATOM      6  C   UNL     1       1.349  11.538  19.140  0.00  0.00    +0.000 C 
ENDROOT
BRANCH   1   7
ATOM      7  C   UNL     1       1.382   9.100  19.424  0.00  0.00    +0.000 C 
BRANCH   7   9
ATOM      8  N   UNL     1       2.704   7.140  18.787  0.00  0.00    +0.000 N 
ATOM      9  C   UNL     1       2.145   8.330  18.343  0.00  0.00    +0.000 C 
ATOM     10  O   UNL     1       2.232   8.800  17.211  0.00  0.00    +0.000 OA
ATOM     11  H   UNL     1       2.637   6.965  19.783  0.00  0.00    +0.000 HD
BRANCH   8  17
ATOM     12  C   UNL     1       2.868   4.876  17.852  0.00  0.00    +0.000 A 
ATOM     13  C   UNL     1       3.592   3.940  17.080  0.00  0.00    +0.000 A 
ATOM     14  C   UNL     1       4.776   4.288  16.436  0.00  0.00    +0.000 A 
ATOM     15  C   UNL     1       5.251   5.584  16.543  0.00  0.00    +0.000 A 
ATOM     16  C   UNL     1       4.555   6.521  17.308  0.00  0.00    +0.000 A 
ATOM     17  C   UNL     1       3.377   6.184  17.991  0.00  0.00    +0.000 A 
BRANCH  12  19
ATOM     18  C   UNL     1       1.472   2.857  18.387  0.00  0.00    +0.000 C 
ATOM     19  C   UNL     1       1.632   4.361  18.556  0.00  0.00    +0.000 C 
ENDBRANCH  12  19
ENDBRANCH   8  17
ENDBRANCH   7   9
ENDBRANCH   1   7
BRANCH   4  20
ATOM     20  C   UNL     1      -0.790  13.245  20.597  0.00  0.00    +0.000 C 
BRANCH  20  21
ATOM     21  N   UNL     1      -1.888  13.631  21.439  0.00  0.00    +0.000 N 
ATOM     22  C   UNL     1      -1.740  14.095  22.705  0.00  0.00    +0.000 C 
ATOM     23  O   UNL     1      -0.704  14.326  23.306  0.00  0.00    +0.000 OA
ATOM     24  N   UNL     1      -2.989  14.279  23.250  0.00  0.00    +0.000 N 
ATOM     25  C   UNL     1      -4.043  14.050  22.285  0.00  0.00    +0.000 C 
ATOM     26  C   UNL     1      -5.092  13.064  22.793  0.00  0.00    +0.000 C 
ATOM     27  C   UNL     1      -5.960  13.677  23.889  0.00  0.00    +0.000 C 
ATOM     28  C   UNL     1      -6.584  14.998  23.444  0.00  0.00    +0.000 C 
ATOM     29  C   UNL     1      -5.542  15.988  22.931  0.00  0.00    +0.000 C 
ATOM     30  C   UNL     1      -4.666  15.376  21.837  0.00  0.00    +0.000 C 
ATOM     31  C   UNL     1      -3.211  13.440  21.144  0.00  0.00    +0.000 C 
ATOM     32  O   UNL     1      -3.680  12.910  20.146  0.00  0.00    +0.000 OA
ATOM     33  H   UNL     1      -3.098  14.692  24.168  0.00  0.00    +0.000 HD
ENDBRANCH  20  21
ENDBRANCH   4  20
TORSDOF 6
ENDMDL
MODEL 7
REMARK VINA RESULT:      -7.3      0.601      1.666
REMARK  Name = 
REMARK  7 active torsions:
REMARK  status: ('A' for Active; 'I' for Inactive)
REMARK    1  A    between atoms: C_1  and  C_2
REMARK    2  A    between atoms: C_2  and  C_3
REMARK    3  A    between atoms: C_8  and  N_9
REMARK    4  A    between atoms: C_10  and  C_12
REMARK    5  A    between atoms: C_12  and  N_13
REMARK    6  A    between atoms: N_16  and  C_17
REMARK    7  A    between atoms: C_17  and  N_18
REMARK                            x       y       z     vdW  Elec       q    Type
REMARK                         _______ _______ _______ _____ _____    ______ ____
ROOT
ATOM      1  N   UNL     1       0.041   8.705  20.924  0.00  0.00    +0.000 NA
ATOM      2  C   UNL     1      -0.626   8.863  22.239  0.00  0.00    +0.000 C 
ATOM      3  C   UNL     1      -0.203  10.122  23.035  0.00  0.00    +0.000 C 
ATOM      4  N   UNL     1      -0.323  11.390  22.289  0.00  0.00    +0.000 NA
ATOM      5  C   UNL     1       0.372  11.245  20.991  0.00  0.00    +0.000 C 
ATOM      6  C   UNL     1      -0.054   9.991  20.185  0.00  0.00    +0.000 C 
ENDROOT
BRANCH   1   7
ATOM      7  C   UNL     1       1.449   8.291  21.122  0.00  0.00    +0.000 C 
BRANCH   7   9
ATOM      8  N   UNL     1       1.850   5.917  20.679  0.00  0.00    +0.000 N 
ATOM      9  C   UNL     1       1.861   7.194  20.137  0.00  0.00    +0.000 C 
ATOM     10  O   UNL     1       2.182   7.499  18.990  0.00  0.00    +0.000 OA
ATOM     11  H   UNL     1       1.677   5.862  21.677  0.00  0.00    +0.000 HD
BRANCH   8  17
ATOM     12  C   UNL     1       3.372   4.422  19.465  0.00  0.00    +0.000 A 
ATOM     13  C   UNL     1       3.562   3.225  18.739  0.00  0.00    +0.000 A 
ATOM     14  C   UNL     1       2.523   2.318  18.546  0.00  0.00    +0.000 A 
ATOM     15  C   UNL     1       1.278   2.587  19.087  0.00  0.00    +0.000 A 
ATOM     16  C   UNL     1       1.068   3.768  19.801  0.00  0.00    +0.000 A 
ATOM     17  C   UNL     1       2.091   4.711  19.981  0.00  0.00    +0.000 A 
BRANCH  12  19
ATOM     18  C   UNL     1       5.312   5.436  18.230  0.00  0.00    +0.000 C 
ATOM     19  C   UNL     1       4.558   5.356  19.551  0.00  0.00    +0.000 C 
ENDBRANCH  12  19
ENDBRANCH   8  17
ENDBRANCH   7   9
ENDBRANCH   1   7
BRANCH   4  20
ATOM     20  C   UNL     1      -1.715  11.808  22.069  0.00  0.00    +0.000 C 
BRANCH  20  21
ATOM     21  N   UNL     1      -2.046  12.925  22.910  0.00  0.00    +0.000 N 
ATOM     22  C   UNL     1      -3.047  12.907  23.826  0.00  0.00    +0.000 C 
ATOM     23  O   UNL     1      -3.765  11.973  24.139  0.00  0.00    +0.000 OA
ATOM     24  N   UNL     1      -3.148  14.161  24.384  0.00  0.00    +0.000 N 
ATOM     25  C   UNL     1      -2.099  15.046  23.926  0.00  0.00    +0.000 C 
ATOM     26  C   UNL     1      -2.646  16.365  23.384  0.00  0.00    +0.000 C 
ATOM     27  C   UNL     1      -3.180  17.256  24.503  0.00  0.00    +0.000 C 
ATOM     28  C   UNL     1      -2.139  17.475  25.598  0.00  0.00    +0.000 C 
ATOM     29  C   UNL     1      -1.585  16.160  26.142  0.00  0.00    +0.000 C 
ATOM     30  C   UNL     1      -1.053  15.262  25.024  0.00  0.00    +0.000 C 
ATOM     31  C   UNL     1      -1.514  14.181  22.796  0.00  0.00    +0.000 C 
ATOM     32  O   UNL     1      -0.695  14.568  21.974  0.00  0.00    +0.000 OA
ATOM     33  H   UNL     1      -3.790  14.337  25.145  0.00  0.00    +0.000 HD
ENDBRANCH  20  21
ENDBRANCH   4  20
TORSDOF 6
ENDMDL
MODEL 8
REMARK VINA RESULT:      -7.3      3.088      3.938
REMARK  Name = 
REMARK  7 active torsions:
REMARK  status: ('A' for Active; 'I' for Inactive)
REMARK    1  A    between atoms: C_1  and  C_2
REMARK    2  A    between atoms: C_2  and  C_3
REMARK    3  A    between atoms: C_8  and  N_9
REMARK    4  A    between atoms: C_10  and  C_12
REMARK    5  A    between atoms: C_12  and  N_13
REMARK    6  A    between atoms: N_16  and  C_17
REMARK    7  A    between atoms: C_17  and  N_18
REMARK                            x       y       z     vdW  Elec       q    Type
REMARK                         _______ _______ _______ _____ _____    ______ ____
ROOT
ATOM      1  N   UNL     1       0.499   9.320  19.802  0.00  0.00    +0.000 NA
ATOM      2  C   UNL     1      -0.428   9.458  20.951  0.00  0.00    +0.000 C 
ATOM      3  C   UNL     1       0.083  10.371  22.092  0.00  0.00    +0.000 C 
ATOM      4  N   UNL     1       0.501  11.719  21.660  0.00  0.00    +0.000 NA
ATOM      5  C   UNL     1       1.453  11.583  20.536  0.00  0.00    +0.000 C 
ATOM      6  C   UNL     1       0.944  10.676  19.385  0.00  0.00    +0.000 C 
ENDROOT
BRANCH   1   7
ATOM      7  C   UNL     1       1.644   8.461  20.180  0.00  0.00    +0.000 C 
BRANCH   7   9
ATOM      8  N   UNL     1       2.983   6.610  19.299  0.00  0.00    +0.000 N 
ATOM      9  C   UNL     1       2.223   7.725  18.970  0.00  0.00    +0.000 C 
ATOM     10  O   UNL     1       2.011   8.155  17.839  0.00  0.00    +0.000 OA
ATOM     11  H   UNL     1       3.155   6.470  20.288  0.00  0.00    +0.000 HD
BRANCH   8  17
ATOM     12  C   UNL     1       2.835   4.558  17.962  0.00  0.00    +0.000 A 
ATOM     13  C   UNL     1       3.458   3.643  17.083  0.00  0.00    +0.000 A 
ATOM     14  C   UNL     1       4.752   3.851  16.615  0.00  0.00    +0.000 A 
ATOM     15  C   UNL     1       5.442   4.985  17.007  0.00  0.00    +0.000 A 
ATOM     16  C   UNL     1       4.847   5.897  17.880  0.00  0.00    +0.000 A 
ATOM     17  C   UNL     1       3.556   5.692  18.389  0.00  0.00    +0.000 A 
BRANCH  12  19
ATOM     18  C   UNL     1       1.482   2.966  19.359  0.00  0.00    +0.000 C 
ATOM     19  C   UNL     1       1.452   4.189  18.452  0.00  0.00    +0.000 C 
ENDBRANCH  12  19
ENDBRANCH   8  17
ENDBRANCH   7   9
ENDBRANCH   1   7
BRANCH   4  20
ATOM     20  C   UNL     1      -0.622  12.580  21.265  0.00  0.00    +0.000 C 
BRANCH  20  21
ATOM     21  N   UNL     1      -0.142  13.817  20.714  0.00  0.00    +0.000 N 
ATOM     22  C   UNL     1       0.320  14.847  21.466  0.00  0.00    +0.000 C 
ATOM     23  O   UNL     1       0.472  14.888  22.676  0.00  0.00    +0.000 OA
ATOM     24  N   UNL     1       0.609  15.901  20.631  0.00  0.00    +0.000 N 
ATOM     25  C   UNL     1       0.457  15.546  19.236  0.00  0.00    +0.000 C 
ATOM     26  C   UNL     1      -0.437  16.526  18.480  0.00  0.00    +0.000 C 
ATOM     27  C   UNL     1       0.254  17.871  18.266  0.00  0.00    +0.000 C 
ATOM     28  C   UNL     1       1.617  17.707  17.597  0.00  0.00    +0.000 C 
ATOM     29  C   UNL     1       2.515  16.724  18.345  0.00  0.00    +0.000 C 
ATOM     30  C   UNL     1       1.825  15.378  18.566  0.00  0.00    +0.000 C 
ATOM     31  C   UNL     1      -0.228  14.178  19.397  0.00  0.00    +0.000 C 
ATOM     32  O   UNL     1      -0.727  13.536  18.483  0.00  0.00    +0.000 OA
ATOM     33  H   UNL     1       1.037  16.744  20.990  0.00  0.00    +0.000 HD
ENDBRANCH  20  21
ENDBRANCH   4  20
TORSDOF 6
ENDMDL
MODEL 9
REMARK VINA RESULT:      -7.3      1.358     11.159
REMARK  Name = 
REMARK  7 active torsions:
REMARK  status: ('A' for Active; 'I' for Inactive)
REMARK    1  A    between atoms: C_1  and  C_2
REMARK    2  A    between atoms: C_2  and  C_3
REMARK    3  A    between atoms: C_8  and  N_9
REMARK    4  A    between atoms: C_10  and  C_12
REMARK    5  A    between atoms: C_12  and  N_13
REMARK    6  A    between atoms: N_16  and  C_17
REMARK    7  A    between atoms: C_17  and  N_18
REMARK                            x       y       z     vdW  Elec       q    Type
REMARK                         _______ _______ _______ _____ _____    ______ ____
ROOT
ATOM      1  N   UNL     1      -0.132  11.139  22.408  0.00  0.00    +0.000 NA
ATOM      2  C   UNL     1      -0.109   9.731  22.873  0.00  0.00    +0.000 C 
ATOM      3  C   UNL     1      -0.416   8.681  21.777  0.00  0.00    +0.000 C 
ATOM      4  N   UNL     1       0.420   8.792  20.566  0.00  0.00    +0.000 NA
ATOM      5  C   UNL     1       0.370  10.189  20.082  0.00  0.00    +0.000 C 
ATOM      6  C   UNL     1       0.686  11.246  21.172  0.00  0.00    +0.000 C 
ENDROOT
BRANCH   1   7
ATOM      7  C   UNL     1      -1.531  11.569  22.177  0.00  0.00    +0.000 C 
BRANCH   7   9
ATOM      8  N   UNL     1      -2.283  13.305  23.730  0.00  0.00    +0.000 N 
ATOM      9  C   UNL     1      -1.724  13.055  22.484  0.00  0.00    +0.000 C 
ATOM     10  O   UNL     1      -1.411  13.894  21.643  0.00  0.00    +0.000 OA
ATOM     11  H   UNL     1      -2.594  12.490  24.246  0.00  0.00    +0.000 HD
BRANCH   8  17
ATOM     12  C   UNL     1      -3.773  15.156  24.347  0.00  0.00    +0.000 A 
ATOM     13  C   UNL     1      -3.928  16.445  24.903  0.00  0.00    +0.000 A 
ATOM     14  C   UNL     1      -2.847  17.140  25.440  0.00  0.00    +0.000 A 
ATOM     15  C   UNL     1      -1.594  16.552  25.441  0.00  0.00    +0.000 A 
ATOM     16  C   UNL     1      -1.419  15.282  24.888  0.00  0.00    +0.000 A 
ATOM     17  C   UNL     1      -2.487  14.577  24.314  0.00  0.00    +0.000 A 
BRANCH  12  19
ATOM     18  C   UNL     1      -5.842  15.553  22.978  0.00  0.00    +0.000 C 
ATOM     19  C   UNL     1      -5.007  14.531  23.736  0.00  0.00    +0.000 C 
ENDBRANCH  12  19
ENDBRANCH   8  17
ENDBRANCH   7   9
ENDBRANCH   1   7
BRANCH   4  20
ATOM     20  C   UNL     1       1.816   8.386  20.782  0.00  0.00    +0.000 C 
BRANCH  20  21
ATOM     21  N   UNL     1       2.186   7.343  19.866  0.00  0.00    +0.000 N 
ATOM     22  C   UNL     1       2.505   7.561  18.565  0.00  0.00    +0.000 C 
ATOM     23  O   UNL     1       2.601   8.628  17.982  0.00  0.00    +0.000 OA
ATOM     24  N   UNL     1       2.716   6.344  17.958  0.00  0.00    +0.000 N 
ATOM     25  C   UNL     1       2.660   5.249  18.903  0.00  0.00    +0.000 C 
ATOM     26  C   UNL     1       1.700   4.148  18.460  0.00  0.00    +0.000 C 
ATOM     27  C   UNL     1       2.253   3.358  17.277  0.00  0.00    +0.000 C 
ATOM     28  C   UNL     1       3.652   2.817  17.562  0.00  0.00    +0.000 C 
ATOM     29  C   UNL     1       4.618   3.912  18.009  0.00  0.00    +0.000 C 
ATOM     30  C   UNL     1       4.065   4.709  19.191  0.00  0.00    +0.000 C 
ATOM     31  C   UNL     1       2.117   6.001  20.130  0.00  0.00    +0.000 C 
ATOM     32  O   UNL     1       1.727   5.467  21.159  0.00  0.00    +0.000 OA
ATOM     33  H   UNL     1       3.037   6.293  17.001  0.00  0.00    +0.000 HD
ENDBRANCH  20  21
ENDBRANCH   4  20
TORSDOF 6
ENDMDL
