MODEL 1
REMARK VINA RESULT:      -7.6      0.000      0.000
REMARK  Name = 
REMARK  5 active torsions:
REMARK  status: ('A' for Active; 'I' for Inactive)
REMARK    1  A    between atoms: C_1  and  O_2
REMARK    2  A    between atoms: O_2  and  C_3
REMARK    3  A    between atoms: C_7  and  C_8
REMARK    4  A    between atoms: C_8  and  N_9
REMARK    5  A    between atoms: C_18  and  C_20
REMARK                            x       y       z     vdW  Elec       q    Type
REMARK                         _______ _______ _______ _____ _____    ______ ____
ROOT
ATOM      1  N   UNL     1       1.903   7.766  18.096  0.00  0.00    +0.000 NA
ATOM      2  C   UNL     1       3.140   7.976  17.338  0.00  0.00    +0.000 C 
ATOM      3  C   UNL     1       4.349   7.167  17.837  0.00  0.00    +0.000 C 
ATOM      4  C   UNL     1       4.071   5.665  18.124  0.00  0.00    +0.000 C 
ATOM      5  C   UNL     1       2.643   5.439  18.665  0.00  0.00    +0.000 C 
ATOM      6  C   UNL     1       1.567   6.338  18.065  0.00  0.00    +0.000 C 
ATOM      7  C   UNL     1       5.077   5.117  19.191  0.00  0.00    +0.000 C 
ATOM      8  C   UNL     1       6.093   4.259  18.457  0.00  0.00    +0.000 C 
ATOM      9  N   UNL     1       5.843   4.520  17.063  0.00  0.00    +0.000 N 
ATOM     10  C   UNL     1       6.908   4.627  16.190  0.00  0.00    +0.000 C 
ATOM     11  O   UNL     1       8.057   4.366  16.563  0.00  0.00    +0.000 OA
ATOM     12  C   UNL     1       4.424   4.821  16.874  0.00  0.00    +0.000 C 
ENDROOT
BRANCH  10  13
ATOM     13  C   UNL     1       6.619   5.027  14.730  0.00  0.00    +0.000 C 
ATOM     14  C   UNL     1       6.014   3.891  13.900  0.00  0.00    +0.000 C 
ATOM     15  C   UNL     1       6.855   3.819  12.645  0.00  0.00    +0.000 C 
ATOM     16  C   UNL     1       7.636   5.107  12.652  0.00  0.00    +0.000 C 
ATOM     17  O   UNL     1       7.787   5.464  14.024  0.00  0.00    +0.000 OA
ENDBRANCH  10  13
BRANCH   1  18
ATOM     18  C   UNL     1       1.928   8.327  19.464  0.00  0.00    +0.000 C 
BRANCH  18  23
ATOM     19  C   UNL     1      -0.077  11.035  21.314  0.00  0.00    +0.000 A 
ATOM     20  C   UNL     1      -0.865  11.536  20.275  0.00  0.00    +0.000 A 
ATOM     21  C   UNL     1      -0.749  11.034  18.981  0.00  0.00    +0.000 A 
ATOM     22  C   UNL     1       0.163  10.017  18.708  0.00  0.00    +0.000 A 
ATOM     23  C   UNL     1       0.995   9.504  19.718  0.00  0.00    +0.000 A 
ATOM     24  C   UNL     1       0.851  10.029  21.032  0.00  0.00    +0.000 A 
BRANCH  19  26
ATOM     25  C   UNL     1      -1.657  11.470  23.104  0.00  0.00    +0.000 C 
ATOM     26  O   UNL     1      -0.369  11.596  22.524  0.00  0.00    +0.000 OA
ENDBRANCH  19  26
ENDBRANCH  18  23
ENDBRANCH   1  18
TORSDOF 4
ENDMDL
MODEL 2
REMARK VINA RESULT:      -7.5      1.011      1.709
REMARK  Name = 
REMARK  5 active torsions:
REMARK  status: ('A' for Active; 'I' for Inactive)
REMARK    1  A    between atoms: C_1  and  O_2
REMARK    2  A    between atoms: O_2  and  C_3
REMARK    3  A    between atoms: C_7  and  C_8
REMARK    4  A    between atoms: C_8  and  N_9
REMARK    5  A    between atoms: C_18  and  C_20
REMARK                            x       y       z     vdW  Elec       q    Type
REMARK                         _______ _______ _______ _____ _____    ______ ____
ROOT
ATOM      1  N   UNL     1       1.901   7.764  18.134  0.00  0.00    +0.000 NA
ATOM      2  C   UNL     1       3.134   7.978  17.370  0.00  0.00    +0.000 C 
ATOM      3  C   UNL     1       4.348   7.175  17.866  0.00  0.00    +0.000 C 
ATOM      4  C   UNL     1       4.078   5.672  18.159  0.00  0.00    +0.000 C 
ATOM      5  C   UNL     1       2.654   5.442  18.706  0.00  0.00    +0.000 C 
ATOM      6  C   UNL     1       1.571   6.335  18.109  0.00  0.00    +0.000 C 
ATOM      7  C   UNL     1       5.091   5.132  19.222  0.00  0.00    +0.000 C 
ATOM      8  C   UNL     1       6.107   4.276  18.486  0.00  0.00    +0.000 C 
ATOM      9  N   UNL     1       5.851   4.533  17.093  0.00  0.00    +0.000 N 
ATOM     10  C   UNL     1       6.911   4.642  16.214  0.00  0.00    +0.000 C 
ATOM     11  O   UNL     1       8.062   4.387  16.583  0.00  0.00    +0.000 OA
ATOM     12  C   UNL     1       4.429   4.827  16.909  0.00  0.00    +0.000 C 
ENDROOT
BRANCH  10  13
ATOM     13  C   UNL     1       6.614   5.036  14.754  0.00  0.00    +0.000 C 
ATOM     14  C   UNL     1       5.987   3.903  13.937  0.00  0.00    +0.000 C 
ATOM     15  C   UNL     1       6.816   3.813  12.675  0.00  0.00    +0.000 C 
ATOM     16  C   UNL     1       7.613   5.091  12.667  0.00  0.00    +0.000 C 
ATOM     17  O   UNL     1       7.780   5.455  14.036  0.00  0.00    +0.000 OA
ENDBRANCH  10  13
BRANCH   1  18
ATOM     18  C   UNL     1       1.930   8.330  19.501  0.00  0.00    +0.000 C 
BRANCH  18  23
ATOM     19  C   UNL     1      -0.696  11.093  19.012  0.00  0.00    +0.000 A 
ATOM     20  C   UNL     1      -0.960  11.445  20.337  0.00  0.00    +0.000 A 
ATOM     21  C   UNL     1      -0.324  10.794  21.391  0.00  0.00    +0.000 A 
ATOM     22  C   UNL     1       0.591   9.776  21.131  0.00  0.00    +0.000 A 
ATOM     23  C   UNL     1       0.864   9.372  19.813  0.00  0.00    +0.000 A 
ATOM     24  C   UNL     1       0.206  10.058  18.755  0.00  0.00    +0.000 A 
BRANCH  19  26
ATOM     25  C   UNL     1      -2.590  11.465  17.539  0.00  0.00    +0.000 C 
ATOM     26  O   UNL     1      -1.358  11.876  18.109  0.00  0.00    +0.000 OA
ENDBRANCH  19  26
ENDBRANCH  18  23
ENDBRANCH   1  18
TORSDOF 4
ENDMDL
MODEL 3
REMARK VINA RESULT:      -7.1      1.067      1.651
REMARK  Name = 
REMARK  5 active torsions:
REMARK  status: ('A' for Active; 'I' for Inactive)
REMARK    1  A    between atoms: C_1  and  O_2
REMARK    2  A    between atoms: O_2  and  C_3
REMARK    3  A    between atoms: C_7  and  C_8
REMARK    4  A    between atoms: C_8  and  N_9
REMARK    5  A    between atoms: C_18  and  C_20
REMARK                            x       y       z     vdW  Elec       q    Type
REMARK                         _______ _______ _______ _____ _____    ______ ____
ROOT
ATOM      1  N   UNL     1       1.951   7.593  18.357  0.00  0.00    +0.000 NA
ATOM      2  C   UNL     1       3.174   7.842  17.588  0.00  0.00    +0.000 C 
ATOM      3  C   UNL     1       4.390   7.005  18.022  0.00  0.00    +0.000 C 
ATOM      4  C   UNL     1       4.113   5.490  18.236  0.00  0.00    +0.000 C 
ATOM      5  C   UNL     1       2.695   5.239  18.790  0.00  0.00    +0.000 C 
ATOM      6  C   UNL     1       1.610   6.170  18.258  0.00  0.00    +0.000 C 
ATOM      7  C   UNL     1       5.137   4.886  19.253  0.00  0.00    +0.000 C 
ATOM      8  C   UNL     1       6.137   4.066  18.457  0.00  0.00    +0.000 C 
ATOM      9  N   UNL     1       5.863   4.400  17.084  0.00  0.00    +0.000 N 
ATOM     10  C   UNL     1       6.911   4.551  16.197  0.00  0.00    +0.000 C 
ATOM     11  O   UNL     1       8.066   4.269  16.535  0.00  0.00    +0.000 OA
ATOM     12  C   UNL     1       4.441   4.713  16.936  0.00  0.00    +0.000 C 
ENDROOT
BRANCH  10  13
ATOM     13  C   UNL     1       6.597   5.027  14.766  0.00  0.00    +0.000 C 
ATOM     14  C   UNL     1       5.955   3.942  13.895  0.00  0.00    +0.000 C 
ATOM     15  C   UNL     1       6.767   3.920  12.619  0.00  0.00    +0.000 C 
ATOM     16  C   UNL     1       7.569   5.195  12.672  0.00  0.00    +0.000 C 
ATOM     17  O   UNL     1       7.755   5.481  14.056  0.00  0.00    +0.000 OA
ENDBRANCH  10  13
BRANCH   1  18
ATOM     18  C   UNL     1       2.003   8.083  19.752  0.00  0.00    +0.000 C 
BRANCH  18  23
ATOM     19  C   UNL     1       0.251  11.501  19.622  0.00  0.00    +0.000 A 
ATOM     20  C   UNL     1      -0.516  11.451  20.789  0.00  0.00    +0.000 A 
ATOM     21  C   UNL     1      -0.498  10.325  21.608  0.00  0.00    +0.000 A 
ATOM     22  C   UNL     1       0.292   9.229  21.271  0.00  0.00    +0.000 A 
ATOM     23  C   UNL     1       1.058   9.229  20.092  0.00  0.00    +0.000 A 
ATOM     24  C   UNL     1       1.027  10.393  19.276  0.00  0.00    +0.000 A 
BRANCH  19  26
ATOM     25  C   UNL     1       1.304  13.316  18.402  0.00  0.00    +0.000 C 
ATOM     26  O   UNL     1       0.162  12.702  18.977  0.00  0.00    +0.000 OA
ENDBRANCH  19  26
ENDBRANCH  18  23
ENDBRANCH   1  18
TORSDOF 4
ENDMDL
MODEL 4
REMARK VINA RESULT:      -6.8      2.538      8.933
REMARK  Name = 
REMARK  5 active torsions:
REMARK  status: ('A' for Active; 'I' for Inactive)
REMARK    1  A    between atoms: C_1  and  O_2
REMARK    2  A    between atoms: O_2  and  C_3
REMARK    3  A    between atoms: C_7  and  C_8
REMARK    4  A    between atoms: C_8  and  N_9
REMARK    5  A    between atoms: C_18  and  C_20
REMARK                            x       y       z     vdW  Elec       q    Type
REMARK                         _______ _______ _______ _____ _____    ______ ____
ROOT
ATOM      1  N   UNL     1       6.793   5.397  16.454  0.00  0.00    +0.000 NA
ATOM      2  C   UNL     1       5.471   6.028  16.440  0.00  0.00    +0.000 C 
ATOM      3  C   UNL     1       4.394   5.290  17.254  0.00  0.00    +0.000 C 
ATOM      4  C   UNL     1       4.828   4.841  18.677  0.00  0.00    +0.000 C 
ATOM      5  C   UNL     1       6.319   4.445  18.724  0.00  0.00    +0.000 C 
ATOM      6  C   UNL     1       7.246   5.278  17.845  0.00  0.00    +0.000 C 
ATOM      7  C   UNL     1       3.990   3.602  19.139  0.00  0.00    +0.000 C 
ATOM      8  C   UNL     1       2.980   4.094  20.161  0.00  0.00    +0.000 C 
ATOM      9  N   UNL     1       3.058   5.530  20.081  0.00  0.00    +0.000 N 
ATOM     10  C   UNL     1       1.903   6.281  20.173  0.00  0.00    +0.000 C 
ATOM     11  O   UNL     1       0.826   5.746  20.459  0.00  0.00    +0.000 OA
ATOM     12  C   UNL     1       4.419   5.920  19.711  0.00  0.00    +0.000 C 
ENDROOT
BRANCH  10  13
ATOM     13  C   UNL     1       2.002   7.804  19.963  0.00  0.00    +0.000 C 
ATOM     14  C   UNL     1       1.114   8.606  20.921  0.00  0.00    +0.000 C 
ATOM     15  C   UNL     1       0.335   9.559  20.042  0.00  0.00    +0.000 C 
ATOM     16  C   UNL     1       1.057   9.514  18.720  0.00  0.00    +0.000 C 
ATOM     17  O   UNL     1       1.641   8.215  18.639  0.00  0.00    +0.000 OA
ENDBRANCH  10  13
BRANCH   1  18
ATOM     18  C   UNL     1       6.864   4.121  15.709  0.00  0.00    +0.000 C 
BRANCH  18  23
ATOM     19  C   UNL     1       5.695   3.430  12.113  0.00  0.00    +0.000 A 
ATOM     20  C   UNL     1       6.582   4.230  11.389  0.00  0.00    +0.000 A 
ATOM     21  C   UNL     1       7.538   5.007  12.037  0.00  0.00    +0.000 A 
ATOM     22  C   UNL     1       7.621   4.995  13.427  0.00  0.00    +0.000 A 
ATOM     23  C   UNL     1       6.730   4.225  14.195  0.00  0.00    +0.000 A 
ATOM     24  C   UNL     1       5.767   3.435  13.508  0.00  0.00    +0.000 A 
BRANCH  19  26
ATOM     25  C   UNL     1       3.603   3.176  10.910  0.00  0.00    +0.000 C 
ATOM     26  O   UNL     1       4.871   2.689  11.316  0.00  0.00    +0.000 OA
ENDBRANCH  19  26
ENDBRANCH  18  23
ENDBRANCH   1  18
TORSDOF 4
ENDMDL
MODEL 5
REMARK VINA RESULT:      -6.7      2.766      8.698
REMARK  Name = 
REMARK  5 active torsions:
REMARK  status: ('A' for Active; 'I' for Inactive)
REMARK    1  A    between atoms: C_1  and  O_2
REMARK    2  A    between atoms: O_2  and  C_3
REMARK    3  A    between atoms: C_7  and  C_8
REMARK    4  A    between atoms: C_8  and  N_9
REMARK    5  A    between atoms: C_18  and  C_20
REMARK                            x       y       z     vdW  Elec       q    Type
REMARK                         _______ _______ _______ _____ _____    ______ ____
ROOT
ATOM      1  N   UNL     1       6.757   5.955  16.439  0.00  0.00    +0.000 NA
ATOM      2  C   UNL     1       5.294   5.964  16.355  0.00  0.00    +0.000 C 
ATOM      3  C   UNL     1       4.593   4.871  17.179  0.00  0.00    +0.000 C 
ATOM      4  C   UNL     1       5.107   4.704  18.637  0.00  0.00    +0.000 C 
ATOM      5  C   UNL     1       6.622   4.979  18.745  0.00  0.00    +0.000 C 
ATOM      6  C   UNL     1       7.151   6.092  17.846  0.00  0.00    +0.000 C 
ATOM      7  C   UNL     1       4.850   3.245  19.143  0.00  0.00    +0.000 C 
ATOM      8  C   UNL     1       3.680   3.301  20.109  0.00  0.00    +0.000 C 
ATOM      9  N   UNL     1       3.148   4.630  19.953  0.00  0.00    +0.000 N 
ATOM     10  C   UNL     1       1.781   4.823  19.973  0.00  0.00    +0.000 C 
ATOM     11  O   UNL     1       1.018   3.894  20.259  0.00  0.00    +0.000 OA
ATOM     12  C   UNL     1       4.232   5.546  19.598  0.00  0.00    +0.000 C 
ENDROOT
BRANCH  10  13
ATOM     13  C   UNL     1       1.236   6.236  19.682  0.00  0.00    +0.000 C 
ATOM     14  C   UNL     1       1.712   6.803  18.341  0.00  0.00    +0.000 C 
ATOM     15  C   UNL     1       2.251   8.181  18.657  0.00  0.00    +0.000 C 
ATOM     16  C   UNL     1       1.737   8.466  20.045  0.00  0.00    +0.000 C 
ATOM     17  O   UNL     1       1.602   7.197  20.680  0.00  0.00    +0.000 OA
ENDBRANCH  10  13
BRANCH   1  18
ATOM     18  C   UNL     1       7.395   4.801  15.767  0.00  0.00    +0.000 C 
BRANCH  18  23
ATOM     19  C   UNL     1       6.011   3.515  12.421  0.00  0.00    +0.000 A 
ATOM     20  C   UNL     1       6.770   4.260  11.516  0.00  0.00    +0.000 A 
ATOM     21  C   UNL     1       7.707   5.189  11.962  0.00  0.00    +0.000 A 
ATOM     22  C   UNL     1       7.899   5.385  13.328  0.00  0.00    +0.000 A 
ATOM     23  C   UNL     1       7.136   4.675  14.272  0.00  0.00    +0.000 A 
ATOM     24  C   UNL     1       6.191   3.728  13.790  0.00  0.00    +0.000 A 
BRANCH  19  26
ATOM     25  C   UNL     1       4.035   3.023  11.100  0.00  0.00    +0.000 C 
ATOM     26  O   UNL     1       5.191   2.610  11.810  0.00  0.00    +0.000 OA
ENDBRANCH  19  26
ENDBRANCH  18  23
ENDBRANCH   1  18
TORSDOF 4
ENDMDL
MODEL 6
REMARK VINA RESULT:      -6.7      3.040      9.041
REMARK  Name = 
REMARK  5 active torsions:
REMARK  status: ('A' for Active; 'I' for Inactive)
REMARK    1  A    between atoms: C_1  and  O_2
REMARK    2  A    between atoms: O_2  and  C_3
REMARK    3  A    between atoms: C_7  and  C_8
REMARK    4  A    between atoms: C_8  and  N_9
REMARK    5  A    between atoms: C_18  and  C_20
REMARK                            x       y       z     vdW  Elec       q    Type
REMARK                         _______ _______ _______ _____ _____    ______ ____
ROOT
ATOM      1  N   UNL     1       2.463   7.676  18.915  0.00  0.00    +0.000 NA
ATOM      2  C   UNL     1       2.642   8.938  18.192  0.00  0.00    +0.000 C 
ATOM      3  C   UNL     1       1.369   9.791  18.055  0.00  0.00    +0.000 C 
ATOM      4  C   UNL     1       0.538   9.960  19.358  0.00  0.00    +0.000 C 
ATOM      5  C   UNL     1       0.598   8.698  20.244  0.00  0.00    +0.000 C 
ATOM      6  C   UNL     1       1.938   7.967  20.253  0.00  0.00    +0.000 C 
ATOM      7  C   UNL     1      -0.964  10.232  19.017  0.00  0.00    +0.000 C 
ATOM      8  C   UNL     1      -1.227  11.706  19.269  0.00  0.00    +0.000 C 
ATOM      9  N   UNL     1       0.081  12.274  19.474  0.00  0.00    +0.000 N 
ATOM     10  C   UNL     1       0.371  13.520  18.955  0.00  0.00    +0.000 C 
ATOM     11  O   UNL     1      -0.516  14.208  18.438  0.00  0.00    +0.000 OA
ATOM     12  C   UNL     1       0.956  11.268  20.076  0.00  0.00    +0.000 C 
ENDROOT
BRANCH  10  13
ATOM     13  C   UNL     1       1.812  14.049  19.084  0.00  0.00    +0.000 C 
ATOM     14  C   UNL     1       1.882  15.556  19.352  0.00  0.00    +0.000 C 
ATOM     15  C   UNL     1       2.856  16.100  18.331  0.00  0.00    +0.000 C 
ATOM     16  C   UNL     1       3.548  14.875  17.793  0.00  0.00    +0.000 C 
ATOM     17  O   UNL     1       2.607  13.810  17.916  0.00  0.00    +0.000 OA
ENDBRANCH  10  13
BRANCH   1  18
ATOM     18  C   UNL     1       1.663   6.668  18.184  0.00  0.00    +0.000 C 
BRANCH  18  23
ATOM     19  C   UNL     1       4.253   4.008  17.191  0.00  0.00    +0.000 A 
ATOM     20  C   UNL     1       3.520   2.836  17.395  0.00  0.00    +0.000 A 
ATOM     21  C   UNL     1       2.212   2.883  17.870  0.00  0.00    +0.000 A 
ATOM     22  C   UNL     1       1.614   4.111  18.147  0.00  0.00    +0.000 A 
ATOM     23  C   UNL     1       2.326   5.312  17.981  0.00  0.00    +0.000 A 
ATOM     24  C   UNL     1       3.658   5.236  17.488  0.00  0.00    +0.000 A 
BRANCH  19  26
ATOM     25  C   UNL     1       6.584   4.636  16.946  0.00  0.00    +0.000 C 
ATOM     26  O   UNL     1       5.491   3.778  16.663  0.00  0.00    +0.000 OA
ENDBRANCH  19  26
ENDBRANCH  18  23
ENDBRANCH   1  18
TORSDOF 4
ENDMDL
MODEL 7
REMARK VINA RESULT:      -6.7      3.767      8.703
REMARK  Name = 
REMARK  5 active torsions:
REMARK  status: ('A' for Active; 'I' for Inactive)
REMARK    1  A    between atoms: C_1  and  O_2
REMARK    2  A    between atoms: O_2  and  C_3
REMARK    3  A    between atoms: C_7  and  C_8
REMARK    4  A    between atoms: C_8  and  N_9
REMARK    5  A    between atoms: C_18  and  C_20
REMARK                            x       y       z     vdW  Elec       q    Type
REMARK                         _______ _______ _______ _____ _____    ______ ____
ROOT
ATOM      1  N   UNL     1       2.548   7.665  18.829  0.00  0.00    +0.000 NA
ATOM      2  C   UNL     1       2.743   8.949  18.149  0.00  0.00    +0.000 C 
ATOM      3  C   UNL     1       1.468   9.794  17.988  0.00  0.00    +0.000 C 
ATOM      4  C   UNL     1       0.586   9.919  19.262  0.00  0.00    +0.000 C 
ATOM      5  C   UNL     1       0.625   8.633  20.115  0.00  0.00    +0.000 C 
ATOM      6  C   UNL     1       1.971   7.915  20.155  0.00  0.00    +0.000 C 
ATOM      7  C   UNL     1      -0.905  10.187  18.872  0.00  0.00    +0.000 C 
ATOM      8  C   UNL     1      -1.191  11.652  19.155  0.00  0.00    +0.000 C 
ATOM      9  N   UNL     1       0.102  12.225  19.425  0.00  0.00    +0.000 N 
ATOM     10  C   UNL     1       0.399  13.488  18.952  0.00  0.00    +0.000 C 
ATOM     11  O   UNL     1      -0.474  14.182  18.421  0.00  0.00    +0.000 OA
ATOM     12  C   UNL     1       0.964  11.210  20.032  0.00  0.00    +0.000 C 
ENDROOT
BRANCH  10  13
ATOM     13  C   UNL     1       1.830  14.026  19.150  0.00  0.00    +0.000 C 
ATOM     14  C   UNL     1       1.941  15.539  18.940  0.00  0.00    +0.000 C 
ATOM     15  C   UNL     1       3.095  15.726  17.980  0.00  0.00    +0.000 C 
ATOM     16  C   UNL     1       3.793  14.391  17.979  0.00  0.00    +0.000 C 
ATOM     17  O   UNL     1       2.785  13.424  18.268  0.00  0.00    +0.000 OA
ENDBRANCH  10  13
BRANCH   1  18
ATOM     18  C   UNL     1       1.786   6.671  18.041  0.00  0.00    +0.000 C 
BRANCH  18  23
ATOM     19  C   UNL     1       2.157   3.084  19.371  0.00  0.00    +0.000 A 
ATOM     20  C   UNL     1       3.208   2.616  18.579  0.00  0.00    +0.000 A 
ATOM     21  C   UNL     1       3.787   3.426  17.605  0.00  0.00    +0.000 A 
ATOM     22  C   UNL     1       3.321   4.725  17.411  0.00  0.00    +0.000 A 
ATOM     23  C   UNL     1       2.248   5.225  18.169  0.00  0.00    +0.000 A 
ATOM     24  C   UNL     1       1.679   4.380  19.161  0.00  0.00    +0.000 A 
BRANCH  19  26
ATOM     25  C   UNL     1       1.506   2.576  21.653  0.00  0.00    +0.000 C 
ATOM     26  O   UNL     1       1.756   2.182  20.314  0.00  0.00    +0.000 OA
ENDBRANCH  19  26
ENDBRANCH  18  23
ENDBRANCH   1  18
TORSDOF 4
ENDMDL
MODEL 8
REMARK VINA RESULT:      -6.6      0.972      1.172
REMARK  Name = 
REMARK  5 active torsions:
REMARK  status: ('A' for Active; 'I' for Inactive)
REMARK    1  A    between atoms: C_1  and  O_2
REMARK    2  A    between atoms: O_2  and  C_3
REMARK    3  A    between atoms: C_7  and  C_8
REMARK    4  A    between atoms: C_8  and  N_9
REMARK    5  A    between atoms: C_18  and  C_20
REMARK                            x       y       z     vdW  Elec       q    Type
REMARK                         _______ _______ _______ _____ _____    ______ ____
ROOT
ATOM      1  N   UNL     1       1.866   8.012  18.076  0.00  0.00    +0.000 NA
ATOM      2  C   UNL     1       3.128   8.172  17.349  0.00  0.00    +0.000 C 
ATOM      3  C   UNL     1       4.294   7.324  17.885  0.00  0.00    +0.000 C 
ATOM      4  C   UNL     1       3.955   5.835  18.177  0.00  0.00    +0.000 C 
ATOM      5  C   UNL     1       2.507   5.665  18.682  0.00  0.00    +0.000 C 
ATOM      6  C   UNL     1       1.479   6.597  18.048  0.00  0.00    +0.000 C 
ATOM      7  C   UNL     1       4.913   5.261  19.273  0.00  0.00    +0.000 C 
ATOM      8  C   UNL     1       5.916   4.361  18.573  0.00  0.00    +0.000 C 
ATOM      9  N   UNL     1       5.711   4.619  17.171  0.00  0.00    +0.000 N 
ATOM     10  C   UNL     1       6.801   4.680  16.324  0.00  0.00    +0.000 C 
ATOM     11  O   UNL     1       7.930   4.381  16.729  0.00  0.00    +0.000 OA
ATOM     12  C   UNL     1       4.309   4.968  16.943  0.00  0.00    +0.000 C 
ENDROOT
BRANCH  10  13
ATOM     13  C   UNL     1       6.564   5.077  14.854  0.00  0.00    +0.000 C 
ATOM     14  C   UNL     1       5.913   3.965  14.025  0.00  0.00    +0.000 C 
ATOM     15  C   UNL     1       6.774   3.832  12.788  0.00  0.00    +0.000 C 
ATOM     16  C   UNL     1       7.625   5.076  12.797  0.00  0.00    +0.000 C 
ATOM     17  O   UNL     1       7.767   5.441  14.168  0.00  0.00    +0.000 OA
ENDBRANCH  10  13
BRANCH   1  18
ATOM     18  C   UNL     1       1.876   8.584  19.441  0.00  0.00    +0.000 C 
BRANCH  18  23
ATOM     19  C   UNL     1       0.685  12.025  20.671  0.00  0.00    +0.000 A 
ATOM     20  C   UNL     1      -0.648  12.009  20.254  0.00  0.00    +0.000 A 
ATOM     21  C   UNL     1      -1.168  10.918  19.563  0.00  0.00    +0.000 A 
ATOM     22  C   UNL     1      -0.357   9.821  19.278  0.00  0.00    +0.000 A 
ATOM     23  C   UNL     1       0.997   9.810  19.655  0.00  0.00    +0.000 A 
ATOM     24  C   UNL     1       1.502  10.933  20.367  0.00  0.00    +0.000 A 
BRANCH  19  26
ATOM     25  C   UNL     1       2.266  13.775  21.244  0.00  0.00    +0.000 C 
ATOM     26  O   UNL     1       1.006  13.142  21.390  0.00  0.00    +0.000 OA
ENDBRANCH  19  26
ENDBRANCH  18  23
ENDBRANCH   1  18
TORSDOF 4
ENDMDL
MODEL 9
REMARK VINA RESULT:      -6.5      3.737      8.841
REMARK  Name = 
REMARK  5 active torsions:
REMARK  status: ('A' for Active; 'I' for Inactive)
REMARK    1  A    between atoms: C_1  and  O_2
REMARK    2  A    between atoms: O_2  and  C_3
REMARK    3  A    between atoms: C_7  and  C_8
REMARK    4  A    between atoms: C_8  and  N_9
REMARK    5  A    between atoms: C_18  and  C_20
REMARK                            x       y       z     vdW  Elec       q    Type
REMARK                         _______ _______ _______ _____ _____    ______ ____
ROOT
ATOM      1  N   UNL     1       2.609   7.608  18.818  0.00  0.00    +0.000 NA
ATOM      2  C   UNL     1       2.808   8.893  18.140  0.00  0.00    +0.000 C 
ATOM      3  C   UNL     1       1.526   9.718  17.934  0.00  0.00    +0.000 C 
ATOM      4  C   UNL     1       0.601   9.834  19.179  0.00  0.00    +0.000 C 
ATOM      5  C   UNL     1       0.631   8.551  20.036  0.00  0.00    +0.000 C 
ATOM      6  C   UNL     1       1.985   7.852  20.122  0.00  0.00    +0.000 C 
ATOM      7  C   UNL     1      -0.880  10.079  18.738  0.00  0.00    +0.000 C 
ATOM      8  C   UNL     1      -1.197  11.539  19.007  0.00  0.00    +0.000 C 
ATOM      9  N   UNL     1       0.078  12.132  19.317  0.00  0.00    +0.000 N 
ATOM     10  C   UNL     1       0.372  13.398  18.850  0.00  0.00    +0.000 C 
ATOM     11  O   UNL     1      -0.493  14.079  18.289  0.00  0.00    +0.000 OA
ATOM     12  C   UNL     1       0.934  11.132  19.956  0.00  0.00    +0.000 C 
ENDROOT
BRANCH  10  13
ATOM     13  C   UNL     1       1.787  13.958  19.094  0.00  0.00    +0.000 C 
ATOM     14  C   UNL     1       1.832  15.488  19.141  0.00  0.00    +0.000 C 
ATOM     15  C   UNL     1       2.942  15.886  18.193  0.00  0.00    +0.000 C 
ATOM     16  C   UNL     1       3.690  14.602  17.944  0.00  0.00    +0.000 C 
ATOM     17  O   UNL     1       2.732  13.556  18.095  0.00  0.00    +0.000 OA
ENDBRANCH  10  13
BRANCH   1  18
ATOM     18  C   UNL     1       1.889   6.601  18.008  0.00  0.00    +0.000 C 
BRANCH  18  23
ATOM     19  C   UNL     1       3.736   3.456  19.219  0.00  0.00    +0.000 A 
ATOM     20  C   UNL     1       2.856   2.455  18.803  0.00  0.00    +0.000 A 
ATOM     21  C   UNL     1       1.663   2.773  18.157  0.00  0.00    +0.000 A 
ATOM     22  C   UNL     1       1.334   4.105  17.918  0.00  0.00    +0.000 A 
ATOM     23  C   UNL     1       2.180   5.144  18.345  0.00  0.00    +0.000 A 
ATOM     24  C   UNL     1       3.395   4.792  18.995  0.00  0.00    +0.000 A 
BRANCH  19  26
ATOM     25  C   UNL     1       4.884   1.744  20.501  0.00  0.00    +0.000 C 
ATOM     26  O   UNL     1       4.882   2.961  19.774  0.00  0.00    +0.000 OA
ENDBRANCH  19  26
ENDBRANCH  18  23
ENDBRANCH   1  18
TORSDOF 4
ENDMDL
