MODEL 1
REMARK VINA RESULT:      -7.1      0.000      0.000
REMARK  Name = 
REMARK  7 active torsions:
REMARK  status: ('A' for Active; 'I' for Inactive)
REMARK    1  A    between atoms: C_1  and  N_2
REMARK    2  A    between atoms: C_3  and  C_5
REMARK    3  A    between atoms: C_5  and  C_6
REMARK    4  A    between atoms: N_9  and  C_10
REMARK    5  A    between atoms: C_17  and  C_18
REMARK    6  A    between atoms: C_18  and  S_19
REMARK    7  A    between atoms: S_19  and  C_20
REMARK                            x       y       z     vdW  Elec       q    Type
REMARK                         _______ _______ _______ _____ _____    ______ ____
ROOT
ATOM      1  C   UNL     1       6.457   6.577  17.967  0.00  0.00    +0.000 C 
ATOM      2  C   UNL     1       6.047   5.413  18.848  0.00  0.00    +0.000 C 
ATOM      3  O   UNL     1       6.606   5.038  19.864  0.00  0.00    +0.000 OA
ATOM      4  N   UNL     1       4.842   4.932  18.338  0.00  0.00    +0.000 N 
ATOM      5  C   UNL     1       4.578   5.472  17.022  0.00  0.00    +0.000 C 
ATOM      6  C   UNL     1       5.898   6.132  16.599  0.00  0.00    +0.000 C 
ENDROOT
BRANCH   4   7
ATOM      7  C   UNL     1       3.792   4.470  19.259  0.00  0.00    +0.000 C 
ATOM      8  C   UNL     1       2.396   4.984  18.830  0.00  0.00    +0.000 C 
ATOM      9  C   UNL     1       1.635   4.081  17.859  0.00  0.00    +0.000 C 
ATOM     10  C   UNL     1       1.651   2.621  18.287  0.00  0.00    +0.000 C 
ATOM     11  C   UNL     1       3.073   2.121  18.498  0.00  0.00    +0.000 C 
ATOM     12  C   UNL     1       3.810   2.962  19.537  0.00  0.00    +0.000 C 
ENDBRANCH   4   7
BRANCH   1  13
ATOM     13  C   UNL     1       7.916   6.992  18.014  0.00  0.00    +0.000 C 
BRANCH  13  16
ATOM     14  C   UNL     1       9.242  10.302  19.273  0.00  0.00    +0.000 C 
ATOM     15  N   UNL     1       8.977   8.906  19.047  0.00  0.00    +0.000 N 
ATOM     16  C   UNL     1       8.111   8.502  18.051  0.00  0.00    +0.000 C 
ATOM     17  O   UNL     1       7.557   9.255  17.262  0.00  0.00    +0.000 OA
ATOM     18  H   UNL     1       8.951   8.332  19.888  0.00  0.00    +0.000 HD
ENDBRANCH  13  16
ENDBRANCH   1  13
BRANCH   6  19
ATOM     19  C   UNL     1       6.838   5.192  15.819  0.00  0.00    +0.000 C 
BRANCH  19  20
ATOM     20  S   UNL     1       5.951   3.743  15.150  0.00  0.00    +0.000 S 
ATOM     21  C   UNL     1       6.359   3.946  13.396  0.00  0.00    +0.000 C 
ENDBRANCH  19  20
ENDBRANCH   6  19
TORSDOF 5
ENDMDL
MODEL 2
REMARK VINA RESULT:      -6.9      1.308      1.390
REMARK  Name = 
REMARK  7 active torsions:
REMARK  status: ('A' for Active; 'I' for Inactive)
REMARK    1  A    between atoms: C_1  and  N_2
REMARK    2  A    between atoms: C_3  and  C_5
REMARK    3  A    between atoms: C_5  and  C_6
REMARK    4  A    between atoms: N_9  and  C_10
REMARK    5  A    between atoms: C_17  and  C_18
REMARK    6  A    between atoms: C_18  and  S_19
REMARK    7  A    between atoms: S_19  and  C_20
REMARK                            x       y       z     vdW  Elec       q    Type
REMARK                         _______ _______ _______ _____ _____    ______ ____
ROOT
ATOM      1  C   UNL     1       5.926   5.664  17.295  0.00  0.00    +0.000 C 
ATOM      2  C   UNL     1       5.629   4.700  18.427  0.00  0.00    +0.000 C 
ATOM      3  O   UNL     1       6.326   4.491  19.405  0.00  0.00    +0.000 OA
ATOM      4  N   UNL     1       4.353   4.190  18.194  0.00  0.00    +0.000 N 
ATOM      5  C   UNL     1       3.906   4.494  16.851  0.00  0.00    +0.000 C 
ATOM      6  C   UNL     1       5.161   5.004  16.128  0.00  0.00    +0.000 C 
ENDROOT
BRANCH   4   7
ATOM      7  C   UNL     1       3.443   3.953  19.325  0.00  0.00    +0.000 C 
ATOM      8  C   UNL     1       2.082   4.660  19.115  0.00  0.00    +0.000 C 
ATOM      9  C   UNL     1       1.024   3.839  18.377  0.00  0.00    +0.000 C 
ATOM     10  C   UNL     1       0.907   2.420  18.914  0.00  0.00    +0.000 C 
ATOM     11  C   UNL     1       2.253   1.711  18.904  0.00  0.00    +0.000 C 
ATOM     12  C   UNL     1       3.292   2.478  19.719  0.00  0.00    +0.000 C 
ENDBRANCH   4   7
BRANCH   1  13
ATOM     13  C   UNL     1       7.383   6.013  17.055  0.00  0.00    +0.000 C 
BRANCH  13  16
ATOM     14  C   UNL     1       8.213   9.570  18.034  0.00  0.00    +0.000 C 
ATOM     15  N   UNL     1       7.742   8.385  17.366  0.00  0.00    +0.000 N 
ATOM     16  C   UNL     1       7.886   7.141  17.945  0.00  0.00    +0.000 C 
ATOM     17  O   UNL     1       8.353   6.941  19.058  0.00  0.00    +0.000 OA
ATOM     18  H   UNL     1       7.845   8.394  16.352  0.00  0.00    +0.000 HD
ENDBRANCH  13  16
ENDBRANCH   1  13
BRANCH   6  19
ATOM     19  C   UNL     1       5.956   3.896  15.412  0.00  0.00    +0.000 C 
BRANCH  19  20
ATOM     20  S   UNL     1       6.749   4.504  13.883  0.00  0.00    +0.000 S 
ATOM     21  C   UNL     1       5.924   3.423  12.686  0.00  0.00    +0.000 C 
ENDBRANCH  19  20
ENDBRANCH   6  19
TORSDOF 5
ENDMDL
MODEL 3
REMARK VINA RESULT:      -6.9      3.408      4.725
REMARK  Name = 
REMARK  7 active torsions:
REMARK  status: ('A' for Active; 'I' for Inactive)
REMARK    1  A    between atoms: C_1  and  N_2
REMARK    2  A    between atoms: C_3  and  C_5
REMARK    3  A    between atoms: C_5  and  C_6
REMARK    4  A    between atoms: N_9  and  C_10
REMARK    5  A    between atoms: C_17  and  C_18
REMARK    6  A    between atoms: C_18  and  S_19
REMARK    7  A    between atoms: S_19  and  C_20
REMARK                            x       y       z     vdW  Elec       q    Type
REMARK                         _______ _______ _______ _____ _____    ______ ____
ROOT
ATOM      1  C   UNL     1       5.069   5.362  17.160  0.00  0.00    +0.000 C 
ATOM      2  C   UNL     1       3.991   4.296  17.128  0.00  0.00    +0.000 C 
ATOM      3  O   UNL     1       3.708   3.576  16.186  0.00  0.00    +0.000 OA
ATOM      4  N   UNL     1       3.468   4.218  18.418  0.00  0.00    +0.000 N 
ATOM      5  C   UNL     1       3.888   5.346  19.221  0.00  0.00    +0.000 C 
ATOM      6  C   UNL     1       4.503   6.333  18.218  0.00  0.00    +0.000 C 
ENDROOT
BRANCH   4   7
ATOM      7  C   UNL     1       3.095   2.910  18.977  0.00  0.00    +0.000 C 
ATOM      8  C   UNL     1       3.589   2.755  20.436  0.00  0.00    +0.000 C 
ATOM      9  C   UNL     1       2.620   3.244  21.512  0.00  0.00    +0.000 C 
ATOM     10  C   UNL     1       1.198   2.750  21.285  0.00  0.00    +0.000 C 
ATOM     11  C   UNL     1       0.700   3.115  19.894  0.00  0.00    +0.000 C 
ATOM     12  C   UNL     1       1.613   2.548  18.810  0.00  0.00    +0.000 C 
ENDBRANCH   4   7
BRANCH   1  13
ATOM     13  C   UNL     1       5.483   5.959  15.827  0.00  0.00    +0.000 C 
BRANCH  13  16
ATOM     14  C   UNL     1       6.295   3.510  13.063  0.00  0.00    +0.000 C 
ATOM     15  N   UNL     1       5.660   4.464  13.933  0.00  0.00    +0.000 N 
ATOM     16  C   UNL     1       6.346   5.024  14.991  0.00  0.00    +0.000 C 
ATOM     17  O   UNL     1       7.525   4.817  15.244  0.00  0.00    +0.000 OA
ATOM     18  H   UNL     1       4.673   4.290  14.115  0.00  0.00    +0.000 HD
ENDBRANCH  13  16
ENDBRANCH   1  13
BRANCH   6  19
ATOM     19  C   UNL     1       3.494   7.350  17.652  0.00  0.00    +0.000 C 
BRANCH  19  20
ATOM     20  S   UNL     1       2.211   7.791  18.875  0.00  0.00    +0.000 S 
ATOM     21  C   UNL     1       1.583   9.301  18.094  0.00  0.00    +0.000 C 
ENDBRANCH  19  20
ENDBRANCH   6  19
TORSDOF 5
ENDMDL
MODEL 4
REMARK VINA RESULT:      -6.7      2.526      3.530
REMARK  Name = 
REMARK  7 active torsions:
REMARK  status: ('A' for Active; 'I' for Inactive)
REMARK    1  A    between atoms: C_1  and  N_2
REMARK    2  A    between atoms: C_3  and  C_5
REMARK    3  A    between atoms: C_5  and  C_6
REMARK    4  A    between atoms: N_9  and  C_10
REMARK    5  A    between atoms: C_17  and  C_18
REMARK    6  A    between atoms: C_18  and  S_19
REMARK    7  A    between atoms: S_19  and  C_20
REMARK                            x       y       z     vdW  Elec       q    Type
REMARK                         _______ _______ _______ _____ _____    ______ ____
ROOT
ATOM      1  C   UNL     1       5.354   5.488  18.112  0.00  0.00    +0.000 C 
ATOM      2  C   UNL     1       4.476   4.384  17.556  0.00  0.00    +0.000 C 
ATOM      3  O   UNL     1       4.754   3.623  16.645  0.00  0.00    +0.000 OA
ATOM      4  N   UNL     1       3.342   4.330  18.365  0.00  0.00    +0.000 N 
ATOM      5  C   UNL     1       3.248   5.498  19.213  0.00  0.00    +0.000 C 
ATOM      6  C   UNL     1       4.295   6.472  18.652  0.00  0.00    +0.000 C 
ENDROOT
BRANCH   4   7
ATOM      7  C   UNL     1       2.743   3.028  18.696  0.00  0.00    +0.000 C 
ATOM      8  C   UNL     1       3.451   2.370  19.906  0.00  0.00    +0.000 C 
ATOM      9  C   UNL     1       2.881   2.734  21.277  0.00  0.00    +0.000 C 
ATOM     10  C   UNL     1       1.363   2.637  21.322  0.00  0.00    +0.000 C 
ATOM     11  C   UNL     1       0.721   3.472  20.224  0.00  0.00    +0.000 C 
ATOM     12  C   UNL     1       1.216   3.050  18.842  0.00  0.00    +0.000 C 
ENDBRANCH   4   7
BRANCH   1  13
ATOM     13  C   UNL     1       6.413   6.055  17.185  0.00  0.00    +0.000 C 
BRANCH  13  16
ATOM     14  C   UNL     1       8.334   9.228  17.920  0.00  0.00    +0.000 C 
ATOM     15  N   UNL     1       7.413   8.246  17.410  0.00  0.00    +0.000 N 
ATOM     16  C   UNL     1       7.415   6.955  17.895  0.00  0.00    +0.000 C 
ATOM     17  O   UNL     1       8.127   6.554  18.806  0.00  0.00    +0.000 OA
ATOM     18  H   UNL     1       7.211   8.324  16.414  0.00  0.00    +0.000 HD
ENDBRANCH  13  16
ENDBRANCH   1  13
BRANCH   6  19
ATOM     19  C   UNL     1       3.737   7.433  17.585  0.00  0.00    +0.000 C 
BRANCH  19  20
ATOM     20  S   UNL     1       1.997   7.881  17.913  0.00  0.00    +0.000 S 
ATOM     21  C   UNL     1       2.163   9.685  17.910  0.00  0.00    +0.000 C 
ENDBRANCH  19  20
ENDBRANCH   6  19
TORSDOF 5
ENDMDL
MODEL 5
REMARK VINA RESULT:      -6.7      3.021      4.704
REMARK  Name = 
REMARK  7 active torsions:
REMARK  status: ('A' for Active; 'I' for Inactive)
REMARK    1  A    between atoms: C_1  and  N_2
REMARK    2  A    between atoms: C_3  and  C_5
REMARK    3  A    between atoms: C_5  and  C_6
REMARK    4  A    between atoms: N_9  and  C_10
REMARK    5  A    between atoms: C_17  and  C_18
REMARK    6  A    between atoms: C_18  and  S_19
REMARK    7  A    between atoms: S_19  and  C_20
REMARK                            x       y       z     vdW  Elec       q    Type
REMARK                         _______ _______ _______ _____ _____    ______ ____
ROOT
ATOM      1  C   UNL     1       4.972   3.907  16.550  0.00  0.00    +0.000 C 
ATOM      2  C   UNL     1       3.636   3.544  17.169  0.00  0.00    +0.000 C 
ATOM      3  O   UNL     1       2.585   3.367  16.579  0.00  0.00    +0.000 OA
ATOM      4  N   UNL     1       3.870   3.334  18.528  0.00  0.00    +0.000 N 
ATOM      5  C   UNL     1       5.174   3.825  18.916  0.00  0.00    +0.000 C 
ATOM      6  C   UNL     1       5.652   4.656  17.716  0.00  0.00    +0.000 C 
ENDROOT
BRANCH   4   7
ATOM      7  C   UNL     1       3.158   2.257  19.234  0.00  0.00    +0.000 C 
ATOM      8  C   UNL     1       3.488   2.256  20.746  0.00  0.00    +0.000 C 
ATOM      9  C   UNL     1       2.581   3.126  21.616  0.00  0.00    +0.000 C 
ATOM     10  C   UNL     1       1.105   2.923  21.305  0.00  0.00    +0.000 C 
ATOM     11  C   UNL     1       0.815   3.138  19.827  0.00  0.00    +0.000 C 
ATOM     12  C   UNL     1       1.651   2.204  18.954  0.00  0.00    +0.000 C 
ENDBRANCH   4   7
BRANCH   1  13
ATOM     13  C   UNL     1       4.936   4.611  15.206  0.00  0.00    +0.000 C 
BRANCH  13  16
ATOM     14  C   UNL     1       6.925   3.427  12.217  0.00  0.00    +0.000 C 
ATOM     15  N   UNL     1       5.878   3.794  13.133  0.00  0.00    +0.000 N 
ATOM     16  C   UNL     1       6.174   4.354  14.359  0.00  0.00    +0.000 C 
ATOM     17  O   UNL     1       7.302   4.634  14.743  0.00  0.00    +0.000 OA
ATOM     18  H   UNL     1       5.072   3.170  13.137  0.00  0.00    +0.000 HD
ENDBRANCH  13  16
ENDBRANCH   1  13
BRANCH   6  19
ATOM     19  C   UNL     1       5.270   6.146  17.805  0.00  0.00    +0.000 C 
BRANCH  19  20
ATOM     20  S   UNL     1       6.694   7.237  17.457  0.00  0.00    +0.000 S 
ATOM     21  C   UNL     1       7.901   6.496  18.587  0.00  0.00    +0.000 C 
ENDBRANCH  19  20
ENDBRANCH   6  19
TORSDOF 5
ENDMDL
MODEL 6
REMARK VINA RESULT:      -6.6      3.050      4.473
REMARK  Name = 
REMARK  7 active torsions:
REMARK  status: ('A' for Active; 'I' for Inactive)
REMARK    1  A    between atoms: C_1  and  N_2
REMARK    2  A    between atoms: C_3  and  C_5
REMARK    3  A    between atoms: C_5  and  C_6
REMARK    4  A    between atoms: N_9  and  C_10
REMARK    5  A    between atoms: C_17  and  C_18
REMARK    6  A    between atoms: C_18  and  S_19
REMARK    7  A    between atoms: S_19  and  C_20
REMARK                            x       y       z     vdW  Elec       q    Type
REMARK                         _______ _______ _______ _____ _____    ______ ____
ROOT
ATOM      1  C   UNL     1       4.871   5.868  17.886  0.00  0.00    +0.000 C 
ATOM      2  C   UNL     1       4.001   4.744  17.359  0.00  0.00    +0.000 C 
ATOM      3  O   UNL     1       4.216   4.058  16.375  0.00  0.00    +0.000 OA
ATOM      4  N   UNL     1       2.971   4.569  18.284  0.00  0.00    +0.000 N 
ATOM      5  C   UNL     1       2.909   5.677  19.212  0.00  0.00    +0.000 C 
ATOM      6  C   UNL     1       3.826   6.748  18.605  0.00  0.00    +0.000 C 
ENDROOT
BRANCH   4   7
ATOM      7  C   UNL     1       2.491   3.214  18.593  0.00  0.00    +0.000 C 
ATOM      8  C   UNL     1       3.424   2.498  19.599  0.00  0.00    +0.000 C 
ATOM      9  C   UNL     1       3.088   2.715  21.075  0.00  0.00    +0.000 C 
ATOM     10  C   UNL     1       1.606   2.533  21.369  0.00  0.00    +0.000 C 
ATOM     11  C   UNL     1       0.751   3.421  20.477  0.00  0.00    +0.000 C 
ATOM     12  C   UNL     1       1.013   3.142  18.998  0.00  0.00    +0.000 C 
ENDBRANCH   4   7
BRANCH   1  13
ATOM     13  C   UNL     1       5.782   6.557  16.887  0.00  0.00    +0.000 C 
BRANCH  13  16
ATOM     14  C   UNL     1       7.093   4.640  13.903  0.00  0.00    +0.000 C 
ATOM     15  N   UNL     1       6.387   5.540  14.777  0.00  0.00    +0.000 N 
ATOM     16  C   UNL     1       6.679   5.591  16.125  0.00  0.00    +0.000 C 
ATOM     17  O   UNL     1       7.565   4.948  16.671  0.00  0.00    +0.000 OA
ATOM     18  H   UNL     1       5.403   5.674  14.552  0.00  0.00    +0.000 HD
ENDBRANCH  13  16
ENDBRANCH   1  13
BRANCH   6  19
ATOM     19  C   UNL     1       3.095   7.732  17.672  0.00  0.00    +0.000 C 
BRANCH  19  20
ATOM     20  S   UNL     1       1.728   8.593  18.524  0.00  0.00    +0.000 S 
ATOM     21  C   UNL     1       2.048  10.279  17.943  0.00  0.00    +0.000 C 
ENDBRANCH  19  20
ENDBRANCH   6  19
TORSDOF 5
ENDMDL
MODEL 7
REMARK VINA RESULT:      -6.6      2.882      4.157
REMARK  Name = 
REMARK  7 active torsions:
REMARK  status: ('A' for Active; 'I' for Inactive)
REMARK    1  A    between atoms: C_1  and  N_2
REMARK    2  A    between atoms: C_3  and  C_5
REMARK    3  A    between atoms: C_5  and  C_6
REMARK    4  A    between atoms: N_9  and  C_10
REMARK    5  A    between atoms: C_17  and  C_18
REMARK    6  A    between atoms: C_18  and  S_19
REMARK    7  A    between atoms: S_19  and  C_20
REMARK                            x       y       z     vdW  Elec       q    Type
REMARK                         _______ _______ _______ _____ _____    ______ ____
ROOT
ATOM      1  C   UNL     1       4.286   6.064  18.011  0.00  0.00    +0.000 C 
ATOM      2  C   UNL     1       3.633   4.804  17.476  0.00  0.00    +0.000 C 
ATOM      3  O   UNL     1       4.055   4.089  16.583  0.00  0.00    +0.000 OA
ATOM      4  N   UNL     1       2.523   4.557  18.283  0.00  0.00    +0.000 N 
ATOM      5  C   UNL     1       2.207   5.705  19.105  0.00  0.00    +0.000 C 
ATOM      6  C   UNL     1       3.058   6.845  18.526  0.00  0.00    +0.000 C 
ENDROOT
BRANCH   4   7
ATOM      7  C   UNL     1       2.174   3.173  18.641  0.00  0.00    +0.000 C 
ATOM      8  C   UNL     1       3.338   2.469  19.380  0.00  0.00    +0.000 C 
ATOM      9  C   UNL     1       3.342   2.629  20.901  0.00  0.00    +0.000 C 
ATOM     10  C   UNL     1       1.974   2.374  21.517  0.00  0.00    +0.000 C 
ATOM     11  C   UNL     1       0.906   3.249  20.878  0.00  0.00    +0.000 C 
ATOM     12  C   UNL     1       0.832   3.025  19.369  0.00  0.00    +0.000 C 
ENDBRANCH   4   7
BRANCH   1  13
ATOM     13  C   UNL     1       5.228   6.799  17.075  0.00  0.00    +0.000 C 
BRANCH  13  16
ATOM     14  C   UNL     1       8.199   5.746  19.163  0.00  0.00    +0.000 C 
ATOM     15  N   UNL     1       6.878   5.966  18.635  0.00  0.00    +0.000 N 
ATOM     16  C   UNL     1       6.696   6.608  17.427  0.00  0.00    +0.000 C 
ATOM     17  O   UNL     1       7.601   6.983  16.695  0.00  0.00    +0.000 OA
ATOM     18  H   UNL     1       6.164   6.169  19.333  0.00  0.00    +0.000 HD
ENDBRANCH  13  16
ENDBRANCH   1  13
BRANCH   6  19
ATOM     19  C   UNL     1       2.339   7.662  17.436  0.00  0.00    +0.000 C 
BRANCH  19  20
ATOM     20  S   UNL     1       2.003   9.374  17.977  0.00  0.00    +0.000 S 
ATOM     21  C   UNL     1       1.286   9.022  19.604  0.00  0.00    +0.000 C 
ENDBRANCH  19  20
ENDBRANCH   6  19
TORSDOF 5
ENDMDL
MODEL 8
REMARK VINA RESULT:      -6.6      3.491      5.966
REMARK  Name = 
REMARK  7 active torsions:
REMARK  status: ('A' for Active; 'I' for Inactive)
REMARK    1  A    between atoms: C_1  and  N_2
REMARK    2  A    between atoms: C_3  and  C_5
REMARK    3  A    between atoms: C_5  and  C_6
REMARK    4  A    between atoms: N_9  and  C_10
REMARK    5  A    between atoms: C_17  and  C_18
REMARK    6  A    between atoms: C_18  and  S_19
REMARK    7  A    between atoms: S_19  and  C_20
REMARK                            x       y       z     vdW  Elec       q    Type
REMARK                         _______ _______ _______ _____ _____    ______ ____
ROOT
ATOM      1  C   UNL     1       2.727   6.479  19.854  0.00  0.00    +0.000 C 
ATOM      2  C   UNL     1       3.139   6.910  18.461  0.00  0.00    +0.000 C 
ATOM      3  O   UNL     1       2.716   7.872  17.842  0.00  0.00    +0.000 OA
ATOM      4  N   UNL     1       4.179   6.067  18.073  0.00  0.00    +0.000 N 
ATOM      5  C   UNL     1       4.283   4.925  18.955  0.00  0.00    +0.000 C 
ATOM      6  C   UNL     1       2.997   4.960  19.793  0.00  0.00    +0.000 C 
ENDROOT
BRANCH   4   7
ATOM      7  C   UNL     1       5.307   6.607  17.297  0.00  0.00    +0.000 C 
ATOM      8  C   UNL     1       6.663   6.078  17.825  0.00  0.00    +0.000 C 
ATOM      9  C   UNL     1       7.145   4.769  17.199  0.00  0.00    +0.000 C 
ATOM     10  C   UNL     1       7.031   4.771  15.682  0.00  0.00    +0.000 C 
ATOM     11  C   UNL     1       5.615   5.103  15.232  0.00  0.00    +0.000 C 
ATOM     12  C   UNL     1       5.161   6.455  15.777  0.00  0.00    +0.000 C 
ENDBRANCH   4   7
BRANCH   1  13
ATOM     13  C   UNL     1       1.354   6.916  20.331  0.00  0.00    +0.000 C 
BRANCH  13  16
ATOM     14  C   UNL     1       0.899  10.667  20.183  0.00  0.00    +0.000 C 
ATOM     15  N   UNL     1       0.932   9.258  19.893  0.00  0.00    +0.000 N 
ATOM     16  C   UNL     1       1.326   8.347  20.851  0.00  0.00    +0.000 C 
ATOM     17  O   UNL     1       1.614   8.631  22.006  0.00  0.00    +0.000 OA
ATOM     18  H   UNL     1       1.216   9.021  18.943  0.00  0.00    +0.000 HD
ENDBRANCH  13  16
ENDBRANCH   1  13
BRANCH   6  19
ATOM     19  C   UNL     1       1.839   4.147  19.183  0.00  0.00    +0.000 C 
BRANCH  19  20
ATOM     20  S   UNL     1       1.010   3.100  20.429  0.00  0.00    +0.000 S 
ATOM     21  C   UNL     1       2.277   3.143  21.723  0.00  0.00    +0.000 C 
ENDBRANCH  19  20
ENDBRANCH   6  19
TORSDOF 5
ENDMDL
MODEL 9
REMARK VINA RESULT:      -6.5      2.618      4.200
REMARK  Name = 
REMARK  7 active torsions:
REMARK  status: ('A' for Active; 'I' for Inactive)
REMARK    1  A    between atoms: C_1  and  N_2
REMARK    2  A    between atoms: C_3  and  C_5
REMARK    3  A    between atoms: C_5  and  C_6
REMARK    4  A    between atoms: N_9  and  C_10
REMARK    5  A    between atoms: C_17  and  C_18
REMARK    6  A    between atoms: C_18  and  S_19
REMARK    7  A    between atoms: S_19  and  C_20
REMARK                            x       y       z     vdW  Elec       q    Type
REMARK                         _______ _______ _______ _____ _____    ______ ____
ROOT
ATOM      1  C   UNL     1       4.758   5.228  17.225  0.00  0.00    +0.000 C 
ATOM      2  C   UNL     1       3.494   5.787  17.847  0.00  0.00    +0.000 C 
ATOM      3  O   UNL     1       2.831   6.722  17.431  0.00  0.00    +0.000 OA
ATOM      4  N   UNL     1       3.172   4.952  18.917  0.00  0.00    +0.000 N 
ATOM      5  C   UNL     1       4.275   4.076  19.246  0.00  0.00    +0.000 C 
ATOM      6  C   UNL     1       5.469   4.639  18.463  0.00  0.00    +0.000 C 
ENDROOT
BRANCH   4   7
ATOM      7  C   UNL     1       1.763   4.636  19.197  0.00  0.00    +0.000 C 
ATOM      8  C   UNL     1       1.336   3.308  18.526  0.00  0.00    +0.000 C 
ATOM      9  C   UNL     1       1.557   2.049  19.364  0.00  0.00    +0.000 C 
ATOM     10  C   UNL     1       1.062   2.205  20.794  0.00  0.00    +0.000 C 
ATOM     11  C   UNL     1       1.679   3.423  21.465  0.00  0.00    +0.000 C 
ATOM     12  C   UNL     1       1.382   4.700  20.682  0.00  0.00    +0.000 C 
ENDBRANCH   4   7
BRANCH   1  13
ATOM     13  C   UNL     1       5.566   6.167  16.348  0.00  0.00    +0.000 C 
BRANCH  13  16
ATOM     14  C   UNL     1       6.192   3.790  13.475  0.00  0.00    +0.000 C 
ATOM     15  N   UNL     1       5.597   4.600  14.505  0.00  0.00    +0.000 N 
ATOM     16  C   UNL     1       6.369   5.446  15.275  0.00  0.00    +0.000 C 
ATOM     17  O   UNL     1       7.570   5.625  15.123  0.00  0.00    +0.000 OA
ATOM     18  H   UNL     1       4.825   4.162  15.004  0.00  0.00    +0.000 HD
ENDBRANCH  13  16
ENDBRANCH   1  13
BRANCH   6  19
ATOM     19  C   UNL     1       6.297   5.671  19.253  0.00  0.00    +0.000 C 
BRANCH  19  20
ATOM     20  S   UNL     1       8.050   5.676  18.740  0.00  0.00    +0.000 S 
ATOM     21  C   UNL     1       8.237   7.443  18.388  0.00  0.00    +0.000 C 
ENDBRANCH  19  20
ENDBRANCH   6  19
TORSDOF 5
ENDMDL
