MODEL 1
REMARK VINA RESULT:      -8.4      0.000      0.000
REMARK  Name = 
REMARK  3 active torsions:
REMARK  status: ('A' for Active; 'I' for Inactive)
REMARK    1  A    between atoms: C_2  and  C_17
REMARK    2  A    between atoms: N_21  and  S_22
REMARK    3  A    between atoms: S_22  and  C_25
REMARK                            x       y       z     vdW  Elec       q    Type
REMARK                         _______ _______ _______ _____ _____    ______ ____
ROOT
ATOM      1  O   UNL     1       2.919   6.272  19.898  0.00  0.00    +0.000 OA
ATOM      2  C   UNL     1       3.330   6.687  18.809  0.00  0.00    +0.000 C 
ATOM      3  N   UNL     1       2.628   7.578  18.017  0.00  0.00    +0.000 N 
ATOM      4  C   UNL     1       1.604   8.376  18.495  0.00  0.00    +0.000 A 
ATOM      5  N   UNL     1       0.686   8.974  17.753  0.00  0.00    +0.000 NA
ATOM      6  C   UNL     1      -0.095   9.797  18.570  0.00  0.00    +0.000 A 
ATOM      7  C   UNL     1       0.334   9.884  19.880  0.00  0.00    +0.000 A 
ATOM      8  S   UNL     1       1.568   8.763  20.165  0.00  0.00    +0.000 S 
ATOM      9  C   UNL     1      -0.194  10.737  20.970  0.00  0.00    +0.000 C 
ATOM     10  S   UNL     1      -0.820  12.303  20.293  0.00  0.00    +0.000 S 
ATOM     11  C   UNL     1      -1.781  11.602  18.947  0.00  0.00    +0.000 A 
ATOM     12  C   UNL     1      -3.055  12.140  18.733  0.00  0.00    +0.000 A 
ATOM     13  C   UNL     1      -3.898  11.572  17.784  0.00  0.00    +0.000 A 
ATOM     14  C   UNL     1      -3.447  10.505  17.005  0.00  0.00    +0.000 A 
ATOM     15  C   UNL     1      -2.159   9.983  17.186  0.00  0.00    +0.000 A 
ATOM     16  C   UNL     1      -1.322  10.499  18.183  0.00  0.00    +0.000 A 
ATOM     17  H   UNL     1       2.906   7.761  17.063  0.00  0.00    +0.000 HD
ENDROOT
BRANCH   2  18
ATOM     18  C   UNL     1       4.556   6.023  18.198  0.00  0.00    +0.000 C 
ATOM     19  C   UNL     1       4.738   6.495  16.751  0.00  0.00    +0.000 C 
ATOM     20  C   UNL     1       5.872   5.646  16.221  0.00  0.00    +0.000 C 
ATOM     21  C   UNL     1       5.874   4.386  17.081  0.00  0.00    +0.000 C 
ATOM     22  N   UNL     1       4.776   4.549  18.095  0.00  0.00    +0.000 NA
BRANCH  22  23
ATOM     23  S   UNL     1       3.420   3.563  17.777  0.00  0.00    +0.000 S 
ATOM     24  O   UNL     1       2.440   4.344  17.067  0.00  0.00    +0.000 OA
ATOM     25  O   UNL     1       3.898   2.295  17.263  0.00  0.00    +0.000 OA
BRANCH  23  26
ATOM     26  C   UNL     1       2.656   3.173  19.339  0.00  0.00    +0.000 A 
ATOM     27  C   UNL     1       1.343   3.186  19.769  0.00  0.00    +0.000 A 
ATOM     28  C   UNL     1       1.217   2.831  21.145  0.00  0.00    +0.000 A 
ATOM     29  C   UNL     1       2.438   2.542  21.713  0.00  0.00    +0.000 A 
ATOM     30  S   UNL     1       3.719   2.680  20.589  0.00  0.00    +0.000 S 
ENDBRANCH  23  26
ENDBRANCH  22  23
ENDBRANCH   2  18
TORSDOF 3
ENDMDL
MODEL 2
REMARK VINA RESULT:      -8.0      2.888      8.699
REMARK  Name = 
REMARK  3 active torsions:
REMARK  status: ('A' for Active; 'I' for Inactive)
REMARK    1  A    between atoms: C_2  and  C_17
REMARK    2  A    between atoms: N_21  and  S_22
REMARK    3  A    between atoms: S_22  and  C_25
REMARK                            x       y       z     vdW  Elec       q    Type
REMARK                         _______ _______ _______ _____ _____    ______ ____
ROOT
ATOM      1  O   UNL     1       0.963  10.385  17.557  0.00  0.00    +0.000 OA
ATOM      2  C   UNL     1       1.169  10.655  18.746  0.00  0.00    +0.000 C 
ATOM      3  N   UNL     1       1.440   9.701  19.710  0.00  0.00    +0.000 N 
ATOM      4  C   UNL     1       1.873   8.421  19.412  0.00  0.00    +0.000 A 
ATOM      5  N   UNL     1       1.818   7.382  20.229  0.00  0.00    +0.000 NA
ATOM      6  C   UNL     1       2.467   6.297  19.631  0.00  0.00    +0.000 A 
ATOM      7  C   UNL     1       3.093   6.587  18.435  0.00  0.00    +0.000 A 
ATOM      8  S   UNL     1       2.682   8.147  17.926  0.00  0.00    +0.000 S 
ATOM      9  C   UNL     1       3.947   5.709  17.602  0.00  0.00    +0.000 C 
ATOM     10  S   UNL     1       4.870   4.551  18.656  0.00  0.00    +0.000 S 
ATOM     11  C   UNL     1       3.489   4.018  19.674  0.00  0.00    +0.000 A 
ATOM     12  C   UNL     1       3.396   2.648  19.945  0.00  0.00    +0.000 A 
ATOM     13  C   UNL     1       2.293   2.149  20.629  0.00  0.00    +0.000 A 
ATOM     14  C   UNL     1       1.312   3.025  21.097  0.00  0.00    +0.000 A 
ATOM     15  C   UNL     1       1.415   4.404  20.863  0.00  0.00    +0.000 A 
ATOM     16  C   UNL     1       2.484   4.914  20.118  0.00  0.00    +0.000 A 
ATOM     17  H   UNL     1       1.430   9.933  20.694  0.00  0.00    +0.000 HD
ENDROOT
BRANCH   2  18
ATOM     18  C   UNL     1       0.893  12.073  19.223  0.00  0.00    +0.000 C 
ATOM     19  C   UNL     1       1.379  12.241  20.668  0.00  0.00    +0.000 C 
ATOM     20  C   UNL     1       0.900  13.620  21.065  0.00  0.00    +0.000 C 
ATOM     21  C   UNL     1      -0.290  13.916  20.158  0.00  0.00    +0.000 C 
ATOM     22  N   UNL     1      -0.449  12.729  19.248  0.00  0.00    +0.000 NA
BRANCH  22  23
ATOM     23  S   UNL     1      -1.799  11.762  19.639  0.00  0.00    +0.000 S 
ATOM     24  O   UNL     1      -1.330  10.467  20.064  0.00  0.00    +0.000 OA
ATOM     25  O   UNL     1      -2.694  12.551  20.461  0.00  0.00    +0.000 OA
BRANCH  23  26
ATOM     26  C   UNL     1      -2.701  11.455  18.134  0.00  0.00    +0.000 A 
ATOM     27  C   UNL     1      -2.303  11.103  16.858  0.00  0.00    +0.000 A 
ATOM     28  C   UNL     1      -3.400  11.010  15.951  0.00  0.00    +0.000 A 
ATOM     29  C   UNL     1      -4.601  11.279  16.570  0.00  0.00    +0.000 A 
ATOM     30  S   UNL     1      -4.403  11.620  18.235  0.00  0.00    +0.000 S 
ENDBRANCH  23  26
ENDBRANCH  22  23
ENDBRANCH   2  18
TORSDOF 3
ENDMDL
MODEL 3
REMARK VINA RESULT:      -8.0      3.560      9.330
REMARK  Name = 
REMARK  3 active torsions:
REMARK  status: ('A' for Active; 'I' for Inactive)
REMARK    1  A    between atoms: C_2  and  C_17
REMARK    2  A    between atoms: N_21  and  S_22
REMARK    3  A    between atoms: S_22  and  C_25
REMARK                            x       y       z     vdW  Elec       q    Type
REMARK                         _______ _______ _______ _____ _____    ______ ____
ROOT
ATOM      1  O   UNL     1       1.328  10.051  22.039  0.00  0.00    +0.000 OA
ATOM      2  C   UNL     1       0.741  10.397  21.008  0.00  0.00    +0.000 C 
ATOM      3  N   UNL     1       0.997   9.850  19.763  0.00  0.00    +0.000 N 
ATOM      4  C   UNL     1       1.640   8.638  19.584  0.00  0.00    +0.000 A 
ATOM      5  N   UNL     1       2.212   8.231  18.462  0.00  0.00    +0.000 NA
ATOM      6  C   UNL     1       2.636   6.907  18.621  0.00  0.00    +0.000 A 
ATOM      7  C   UNL     1       2.263   6.322  19.815  0.00  0.00    +0.000 A 
ATOM      8  S   UNL     1       1.589   7.480  20.847  0.00  0.00    +0.000 S 
ATOM      9  C   UNL     1       2.454   4.920  20.255  0.00  0.00    +0.000 C 
ATOM     10  S   UNL     1       2.377   3.799  18.827  0.00  0.00    +0.000 S 
ATOM     11  C   UNL     1       3.480   4.723  17.752  0.00  0.00    +0.000 A 
ATOM     12  C   UNL     1       4.425   3.985  17.031  0.00  0.00    +0.000 A 
ATOM     13  C   UNL     1       5.384   4.642  16.268  0.00  0.00    +0.000 A 
ATOM     14  C   UNL     1       5.362   6.034  16.173  0.00  0.00    +0.000 A 
ATOM     15  C   UNL     1       4.396   6.781  16.862  0.00  0.00    +0.000 A 
ATOM     16  C   UNL     1       3.466   6.140  17.688  0.00  0.00    +0.000 A 
ATOM     17  H   UNL     1       0.630  10.271  18.921  0.00  0.00    +0.000 HD
ENDROOT
BRANCH   2  18
ATOM     18  C   UNL     1      -0.145  11.633  21.061  0.00  0.00    +0.000 C 
ATOM     19  C   UNL     1      -1.028  11.695  19.809  0.00  0.00    +0.000 C 
ATOM     20  C   UNL     1      -1.723  13.035  19.908  0.00  0.00    +0.000 C 
ATOM     21  C   UNL     1      -0.820  13.899  20.783  0.00  0.00    +0.000 C 
ATOM     22  N   UNL     1       0.344  13.038  21.190  0.00  0.00    +0.000 NA
BRANCH  22  23
ATOM     23  S   UNL     1       1.794  13.453  20.390  0.00  0.00    +0.000 S 
ATOM     24  O   UNL     1       2.881  13.359  21.331  0.00  0.00    +0.000 OA
ATOM     25  O   UNL     1       1.824  12.750  19.123  0.00  0.00    +0.000 OA
BRANCH  23  26
ATOM     26  C   UNL     1       1.702  15.180  19.961  0.00  0.00    +0.000 A 
ATOM     27  C   UNL     1       1.371  15.839  18.792  0.00  0.00    +0.000 A 
ATOM     28  C   UNL     1       1.483  17.255  18.916  0.00  0.00    +0.000 A 
ATOM     29  C   UNL     1       1.879  17.630  20.181  0.00  0.00    +0.000 A 
ATOM     30  S   UNL     1       2.094  16.283  21.212  0.00  0.00    +0.000 S 
ENDBRANCH  23  26
ENDBRANCH  22  23
ENDBRANCH   2  18
TORSDOF 3
ENDMDL
MODEL 4
REMARK VINA RESULT:      -7.9      3.020      9.292
REMARK  Name = 
REMARK  3 active torsions:
REMARK  status: ('A' for Active; 'I' for Inactive)
REMARK    1  A    between atoms: C_2  and  C_17
REMARK    2  A    between atoms: N_21  and  S_22
REMARK    3  A    between atoms: S_22  and  C_25
REMARK                            x       y       z     vdW  Elec       q    Type
REMARK                         _______ _______ _______ _____ _____    ______ ____
ROOT
ATOM      1  O   UNL     1       0.973   9.235  21.204  0.00  0.00    +0.000 OA
ATOM      2  C   UNL     1       0.634   9.567  20.062  0.00  0.00    +0.000 C 
ATOM      3  N   UNL     1       1.294   9.151  18.919  0.00  0.00    +0.000 N 
ATOM      4  C   UNL     1       2.142   8.059  18.886  0.00  0.00    +0.000 A 
ATOM      5  N   UNL     1       3.048   7.818  17.952  0.00  0.00    +0.000 NA
ATOM      6  C   UNL     1       3.616   6.561  18.181  0.00  0.00    +0.000 A 
ATOM      7  C   UNL     1       3.036   5.845  19.210  0.00  0.00    +0.000 A 
ATOM      8  S   UNL     1       1.940   6.819  20.052  0.00  0.00    +0.000 S 
ATOM      9  C   UNL     1       3.320   4.458  19.643  0.00  0.00    +0.000 C 
ATOM     10  S   UNL     1       3.801   3.441  18.216  0.00  0.00    +0.000 S 
ATOM     11  C   UNL     1       4.991   4.586  17.511  0.00  0.00    +0.000 A 
ATOM     12  C   UNL     1       6.197   4.043  17.054  0.00  0.00    +0.000 A 
ATOM     13  C   UNL     1       7.210   4.882  16.602  0.00  0.00    +0.000 A 
ATOM     14  C   UNL     1       6.996   6.261  16.546  0.00  0.00    +0.000 A 
ATOM     15  C   UNL     1       5.778   6.812  16.967  0.00  0.00    +0.000 A 
ATOM     16  C   UNL     1       4.774   5.987  17.488  0.00  0.00    +0.000 A 
ATOM     17  H   UNL     1       1.103   9.575  18.022  0.00  0.00    +0.000 HD
ENDROOT
BRANCH   2  18
ATOM     18  C   UNL     1      -0.415  10.658  19.907  0.00  0.00    +0.000 C 
ATOM     19  C   UNL     1      -0.861  10.748  18.443  0.00  0.00    +0.000 C 
ATOM     20  C   UNL     1      -1.764  11.961  18.402  0.00  0.00    +0.000 C 
ATOM     21  C   UNL     1      -1.336  12.829  19.581  0.00  0.00    +0.000 C 
ATOM     22  N   UNL     1      -0.231  12.091  20.286  0.00  0.00    +0.000 NA
BRANCH  22  23
ATOM     23  S   UNL     1       1.306  12.788  20.034  0.00  0.00    +0.000 S 
ATOM     24  O   UNL     1       2.092  12.613  21.229  0.00  0.00    +0.000 OA
ATOM     25  O   UNL     1       1.788  12.355  18.738  0.00  0.00    +0.000 OA
BRANCH  23  26
ATOM     26  C   UNL     1       1.083  14.549  19.882  0.00  0.00    +0.000 A 
ATOM     27  C   UNL     1       1.082  15.404  18.796  0.00  0.00    +0.000 A 
ATOM     28  C   UNL     1       0.903  16.767  19.176  0.00  0.00    +0.000 A 
ATOM     29  C   UNL     1       0.759  16.905  20.538  0.00  0.00    +0.000 A 
ATOM     30  S   UNL     1       0.817  15.399  21.346  0.00  0.00    +0.000 S 
ENDBRANCH  23  26
ENDBRANCH  22  23
ENDBRANCH   2  18
TORSDOF 3
ENDMDL
MODEL 5
REMARK VINA RESULT:      -7.8      3.086      8.590
REMARK  Name = 
REMARK  3 active torsions:
REMARK  status: ('A' for Active; 'I' for Inactive)
REMARK    1  A    between atoms: C_2  and  C_17
REMARK    2  A    between atoms: N_21  and  S_22
REMARK    3  A    between atoms: S_22  and  C_25
REMARK                            x       y       z     vdW  Elec       q    Type
REMARK                         _______ _______ _______ _____ _____    ______ ____
ROOT
ATOM      1  O   UNL     1       1.543  10.935  21.200  0.00  0.00    +0.000 OA
ATOM      2  C   UNL     1       1.123  11.179  20.063  0.00  0.00    +0.000 C 
ATOM      3  N   UNL     1       1.393  10.385  18.963  0.00  0.00    +0.000 N 
ATOM      4  C   UNL     1       1.827   9.075  19.059  0.00  0.00    +0.000 A 
ATOM      5  N   UNL     1       2.420   8.389  18.095  0.00  0.00    +0.000 NA
ATOM      6  C   UNL     1       2.589   7.066  18.515  0.00  0.00    +0.000 A 
ATOM      7  C   UNL     1       2.011   6.769  19.733  0.00  0.00    +0.000 A 
ATOM      8  S   UNL     1       1.458   8.184  20.476  0.00  0.00    +0.000 S 
ATOM      9  C   UNL     1       1.912   5.456  20.413  0.00  0.00    +0.000 C 
ATOM     10  S   UNL     1       1.773   4.124  19.185  0.00  0.00    +0.000 S 
ATOM     11  C   UNL     1       3.115   4.656  18.116  0.00  0.00    +0.000 A 
ATOM     12  C   UNL     1       3.978   3.662  17.643  0.00  0.00    +0.000 A 
ATOM     13  C   UNL     1       5.104   4.014  16.906  0.00  0.00    +0.000 A 
ATOM     14  C   UNL     1       5.335   5.353  16.587  0.00  0.00    +0.000 A 
ATOM     15  C   UNL     1       4.455   6.353  17.025  0.00  0.00    +0.000 A 
ATOM     16  C   UNL     1       3.355   6.023  17.825  0.00  0.00    +0.000 A 
ATOM     17  H   UNL     1       1.185  10.701  18.025  0.00  0.00    +0.000 HD
ENDROOT
BRANCH   2  18
ATOM     18  C   UNL     1       0.466  12.528  19.808  0.00  0.00    +0.000 C 
ATOM     19  C   UNL     1       0.227  13.250  21.139  0.00  0.00    +0.000 C 
ATOM     20  C   UNL     1      -0.568  14.480  20.759  0.00  0.00    +0.000 C 
ATOM     21  C   UNL     1      -1.256  14.130  19.444  0.00  0.00    +0.000 C 
ATOM     22  N   UNL     1      -0.823  12.736  19.083  0.00  0.00    +0.000 NA
BRANCH  22  23
ATOM     23  S   UNL     1      -2.054  11.575  19.302  0.00  0.00    +0.000 S 
ATOM     24  O   UNL     1      -1.494  10.430  19.974  0.00  0.00    +0.000 OA
ATOM     25  O   UNL     1      -3.227  12.256  19.814  0.00  0.00    +0.000 OA
BRANCH  23  26
ATOM     26  C   UNL     1      -2.530  10.979  17.692  0.00  0.00    +0.000 A 
ATOM     27  C   UNL     1      -1.904  10.155  16.775  0.00  0.00    +0.000 A 
ATOM     28  C   UNL     1      -2.667   9.992  15.581  0.00  0.00    +0.000 A 
ATOM     29  C   UNL     1      -3.856  10.685  15.633  0.00  0.00    +0.000 A 
ATOM     30  S   UNL     1      -4.056  11.506  17.120  0.00  0.00    +0.000 S 
ENDBRANCH  23  26
ENDBRANCH  22  23
ENDBRANCH   2  18
TORSDOF 3
ENDMDL
MODEL 6
REMARK VINA RESULT:      -7.6      1.338      1.426
REMARK  Name = 
REMARK  3 active torsions:
REMARK  status: ('A' for Active; 'I' for Inactive)
REMARK    1  A    between atoms: C_2  and  C_17
REMARK    2  A    between atoms: N_21  and  S_22
REMARK    3  A    between atoms: S_22  and  C_25
REMARK                            x       y       z     vdW  Elec       q    Type
REMARK                         _______ _______ _______ _____ _____    ______ ____
ROOT
ATOM      1  O   UNL     1       3.402   5.665  19.986  0.00  0.00    +0.000 OA
ATOM      2  C   UNL     1       4.022   6.312  19.135  0.00  0.00    +0.000 C 
ATOM      3  N   UNL     1       3.458   7.335  18.393  0.00  0.00    +0.000 N 
ATOM      4  C   UNL     1       2.295   7.988  18.759  0.00  0.00    +0.000 A 
ATOM      5  N   UNL     1       1.532   8.708  17.954  0.00  0.00    +0.000 NA
ATOM      6  C   UNL     1       0.524   9.320  18.706  0.00  0.00    +0.000 A 
ATOM      7  C   UNL     1       0.631   9.135  20.071  0.00  0.00    +0.000 A 
ATOM      8  S   UNL     1       1.845   8.009  20.413  0.00  0.00    +0.000 S 
ATOM      9  C   UNL     1      -0.197   9.723  21.149  0.00  0.00    +0.000 C 
ATOM     10  S   UNL     1      -0.764  11.382  20.670  0.00  0.00    +0.000 S 
ATOM     11  C   UNL     1      -1.332  10.962  19.019  0.00  0.00    +0.000 A 
ATOM     12  C   UNL     1      -2.558  11.503  18.616  0.00  0.00    +0.000 A 
ATOM     13  C   UNL     1      -3.114  11.130  17.397  0.00  0.00    +0.000 A 
ATOM     14  C   UNL     1      -2.418  10.265  16.552  0.00  0.00    +0.000 A 
ATOM     15  C   UNL     1      -1.171   9.746  16.930  0.00  0.00    +0.000 A 
ATOM     16  C   UNL     1      -0.629  10.058  18.183  0.00  0.00    +0.000 A 
ATOM     17  H   UNL     1       3.935   7.723  17.590  0.00  0.00    +0.000 HD
ENDROOT
BRANCH   2  18
ATOM     18  C   UNL     1       5.401   5.823  18.718  0.00  0.00    +0.000 C 
ATOM     19  C   UNL     1       6.080   6.872  17.830  0.00  0.00    +0.000 C 
ATOM     20  C   UNL     1       7.350   6.198  17.359  0.00  0.00    +0.000 C 
ATOM     21  C   UNL     1       7.074   4.701  17.449  0.00  0.00    +0.000 C 
ATOM     22  N   UNL     1       5.680   4.547  17.993  0.00  0.00    +0.000 NA
BRANCH  22  23
ATOM     23  S   UNL     1       4.555   4.038  16.816  0.00  0.00    +0.000 S 
ATOM     24  O   UNL     1       4.035   5.201  16.143  0.00  0.00    +0.000 OA
ATOM     25  O   UNL     1       5.141   2.935  16.081  0.00  0.00    +0.000 OA
BRANCH  23  26
ATOM     26  C   UNL     1       3.157   3.336  17.670  0.00  0.00    +0.000 A 
ATOM     27  C   UNL     1       1.806   3.626  17.653  0.00  0.00    +0.000 A 
ATOM     28  C   UNL     1       1.063   2.808  18.555  0.00  0.00    +0.000 A 
ATOM     29  C   UNL     1       1.870   1.911  19.218  0.00  0.00    +0.000 A 
ATOM     30  S   UNL     1       3.507   2.043  18.738  0.00  0.00    +0.000 S 
ENDBRANCH  23  26
ENDBRANCH  22  23
ENDBRANCH   2  18
TORSDOF 3
ENDMDL
MODEL 7
REMARK VINA RESULT:      -7.6      3.724      9.533
REMARK  Name = 
REMARK  3 active torsions:
REMARK  status: ('A' for Active; 'I' for Inactive)
REMARK    1  A    between atoms: C_2  and  C_17
REMARK    2  A    between atoms: N_21  and  S_22
REMARK    3  A    between atoms: S_22  and  C_25
REMARK                            x       y       z     vdW  Elec       q    Type
REMARK                         _______ _______ _______ _____ _____    ______ ____
ROOT
ATOM      1  O   UNL     1      -0.230  10.218  18.452  0.00  0.00    +0.000 OA
ATOM      2  C   UNL     1       0.072  10.399  19.637  0.00  0.00    +0.000 C 
ATOM      3  N   UNL     1       0.732   9.459  20.408  0.00  0.00    +0.000 N 
ATOM      4  C   UNL     1       1.443   8.400  19.872  0.00  0.00    +0.000 A 
ATOM      5  N   UNL     1       1.793   7.303  20.524  0.00  0.00    +0.000 NA
ATOM      6  C   UNL     1       2.612   6.525  19.699  0.00  0.00    +0.000 A 
ATOM      7  C   UNL     1       2.948   7.116  18.497  0.00  0.00    +0.000 A 
ATOM      8  S   UNL     1       2.062   8.540  18.281  0.00  0.00    +0.000 S 
ATOM      9  C   UNL     1       3.871   6.620  17.450  0.00  0.00    +0.000 C 
ATOM     10  S   UNL     1       5.219   5.663  18.205  0.00  0.00    +0.000 S 
ATOM     11  C   UNL     1       4.203   4.645  19.280  0.00  0.00    +0.000 A 
ATOM     12  C   UNL     1       4.522   3.284  19.349  0.00  0.00    +0.000 A 
ATOM     13  C   UNL     1       3.710   2.416  20.070  0.00  0.00    +0.000 A 
ATOM     14  C   UNL     1       2.613   2.914  20.774  0.00  0.00    +0.000 A 
ATOM     15  C   UNL     1       2.305   4.282  20.741  0.00  0.00    +0.000 A 
ATOM     16  C   UNL     1       3.073   5.159  19.966  0.00  0.00    +0.000 A 
ATOM     17  H   UNL     1       0.809   9.566  21.410  0.00  0.00    +0.000 HD
ENDROOT
BRANCH   2  18
ATOM     18  C   UNL     1      -0.499  11.615  20.351  0.00  0.00    +0.000 C 
ATOM     19  C   UNL     1      -1.933  11.874  19.875  0.00  0.00    +0.000 C 
ATOM     20  C   UNL     1      -2.313  13.184  20.529  0.00  0.00    +0.000 C 
ATOM     21  C   UNL     1      -0.994  13.899  20.806  0.00  0.00    +0.000 C 
ATOM     22  N   UNL     1       0.104  12.982  20.342  0.00  0.00    +0.000 NA
BRANCH  22  23
ATOM     23  S   UNL     1       0.853  13.511  18.903  0.00  0.00    +0.000 S 
ATOM     24  O   UNL     1       2.125  12.848  18.776  0.00  0.00    +0.000 OA
ATOM     25  O   UNL     1      -0.133  13.469  17.842  0.00  0.00    +0.000 OA
BRANCH  23  26
ATOM     26  C   UNL     1       1.249  15.237  19.100  0.00  0.00    +0.000 A 
ATOM     27  C   UNL     1       0.692  16.391  18.584  0.00  0.00    +0.000 A 
ATOM     28  C   UNL     1       1.390  17.564  18.998  0.00  0.00    +0.000 A 
ATOM     29  C   UNL     1       2.446  17.266  19.830  0.00  0.00    +0.000 A 
ATOM     30  S   UNL     1       2.579  15.586  20.122  0.00  0.00    +0.000 S 
ENDBRANCH  23  26
ENDBRANCH  22  23
ENDBRANCH   2  18
TORSDOF 3
ENDMDL
MODEL 8
REMARK VINA RESULT:      -7.6      5.597      7.228
REMARK  Name = 
REMARK  3 active torsions:
REMARK  status: ('A' for Active; 'I' for Inactive)
REMARK    1  A    between atoms: C_2  and  C_17
REMARK    2  A    between atoms: N_21  and  S_22
REMARK    3  A    between atoms: S_22  and  C_25
REMARK                            x       y       z     vdW  Elec       q    Type
REMARK                         _______ _______ _______ _____ _____    ______ ____
ROOT
ATOM      1  O   UNL     1       7.698   6.759  19.144  0.00  0.00    +0.000 OA
ATOM      2  C   UNL     1       7.524   6.813  17.922  0.00  0.00    +0.000 C 
ATOM      3  N   UNL     1       7.497   7.997  17.206  0.00  0.00    +0.000 N 
ATOM      4  C   UNL     1       8.018   9.186  17.685  0.00  0.00    +0.000 A 
ATOM      5  N   UNL     1       7.729  10.392  17.224  0.00  0.00    +0.000 NA
ATOM      6  C   UNL     1       8.546  11.331  17.862  0.00  0.00    +0.000 A 
ATOM      7  C   UNL     1       9.506  10.791  18.694  0.00  0.00    +0.000 A 
ATOM      8  S   UNL     1       9.251   9.129  18.875  0.00  0.00    +0.000 S 
ATOM      9  C   UNL     1      10.587  11.486  19.430  0.00  0.00    +0.000 C 
ATOM     10  S   UNL     1      11.156  12.933  18.489  0.00  0.00    +0.000 S 
ATOM     11  C   UNL     1       9.536  13.611  18.112  0.00  0.00    +0.000 A 
ATOM     12  C   UNL     1       9.382  14.995  18.251  0.00  0.00    +0.000 A 
ATOM     13  C   UNL     1       8.129  15.574  18.087  0.00  0.00    +0.000 A 
ATOM     14  C   UNL     1       7.039  14.781  17.723  0.00  0.00    +0.000 A 
ATOM     15  C   UNL     1       7.191  13.398  17.545  0.00  0.00    +0.000 A 
ATOM     16  C   UNL     1       8.431  12.790  17.772  0.00  0.00    +0.000 A 
ATOM     17  H   UNL     1       7.181   8.021  16.247  0.00  0.00    +0.000 HD
ENDROOT
BRANCH   2  18
ATOM     18  C   UNL     1       7.095   5.546  17.196  0.00  0.00    +0.000 C 
ATOM     19  C   UNL     1       6.700   5.882  15.752  0.00  0.00    +0.000 C 
ATOM     20  C   UNL     1       6.145   4.584  15.206  0.00  0.00    +0.000 C 
ATOM     21  C   UNL     1       5.678   3.795  16.425  0.00  0.00    +0.000 C 
ATOM     22  N   UNL     1       5.999   4.631  17.634  0.00  0.00    +0.000 NA
BRANCH  22  23
ATOM     23  S   UNL     1       4.617   5.330  18.349  0.00  0.00    +0.000 S 
ATOM     24  O   UNL     1       4.917   5.640  19.724  0.00  0.00    +0.000 OA
ATOM     25  O   UNL     1       4.101   6.335  17.441  0.00  0.00    +0.000 OA
BRANCH  23  26
ATOM     26  C   UNL     1       3.352   4.078  18.424  0.00  0.00    +0.000 A 
ATOM     27  C   UNL     1       2.117   3.955  17.816  0.00  0.00    +0.000 A 
ATOM     28  C   UNL     1       1.425   2.775  18.222  0.00  0.00    +0.000 A 
ATOM     29  C   UNL     1       2.163   2.030  19.114  0.00  0.00    +0.000 A 
ATOM     30  S   UNL     1       3.685   2.740  19.440  0.00  0.00    +0.000 S 
ENDBRANCH  23  26
ENDBRANCH  22  23
ENDBRANCH   2  18
TORSDOF 3
ENDMDL
MODEL 9
REMARK VINA RESULT:      -7.5      3.756      9.411
REMARK  Name = 
REMARK  3 active torsions:
REMARK  status: ('A' for Active; 'I' for Inactive)
REMARK    1  A    between atoms: C_2  and  C_17
REMARK    2  A    between atoms: N_21  and  S_22
REMARK    3  A    between atoms: S_22  and  C_25
REMARK                            x       y       z     vdW  Elec       q    Type
REMARK                         _______ _______ _______ _____ _____    ______ ____
ROOT
ATOM      1  O   UNL     1      -0.280  10.581  18.509  0.00  0.00    +0.000 OA
ATOM      2  C   UNL     1       0.066  10.778  19.680  0.00  0.00    +0.000 C 
ATOM      3  N   UNL     1       0.694   9.825  20.462  0.00  0.00    +0.000 N 
ATOM      4  C   UNL     1       1.329   8.712  19.940  0.00  0.00    +0.000 A 
ATOM      5  N   UNL     1       1.636   7.616  20.614  0.00  0.00    +0.000 NA
ATOM      6  C   UNL     1       2.386   6.770  19.792  0.00  0.00    +0.000 A 
ATOM      7  C   UNL     1       2.721   7.306  18.564  0.00  0.00    +0.000 A 
ATOM      8  S   UNL     1       1.910   8.772  18.328  0.00  0.00    +0.000 S 
ATOM      9  C   UNL     1       3.584   6.729  17.509  0.00  0.00    +0.000 C 
ATOM     10  S   UNL     1       4.898   5.719  18.256  0.00  0.00    +0.000 S 
ATOM     11  C   UNL     1       3.857   4.791  19.388  0.00  0.00    +0.000 A 
ATOM     12  C   UNL     1       4.102   3.417  19.490  0.00  0.00    +0.000 A 
ATOM     13  C   UNL     1       3.263   2.618  20.258  0.00  0.00    +0.000 A 
ATOM     14  C   UNL     1       2.215   3.197  20.975  0.00  0.00    +0.000 A 
ATOM     15  C   UNL     1       1.984   4.579  20.909  0.00  0.00    +0.000 A 
ATOM     16  C   UNL     1       2.777   5.388  20.088  0.00  0.00    +0.000 A 
ATOM     17  H   UNL     1       0.805   9.956  21.458  0.00  0.00    +0.000 HD
ENDROOT
BRANCH   2  18
ATOM     18  C   UNL     1      -0.416  12.045  20.372  0.00  0.00    +0.000 C 
ATOM     19  C   UNL     1      -1.176  12.927  19.375  0.00  0.00    +0.000 C 
ATOM     20  C   UNL     1      -1.448  14.205  20.138  0.00  0.00    +0.000 C 
ATOM     21  C   UNL     1      -0.376  14.269  21.221  0.00  0.00    +0.000 C 
ATOM     22  N   UNL     1       0.460  13.026  21.081  0.00  0.00    +0.000 NA
BRANCH  22  23
ATOM     23  S   UNL     1       2.006  13.330  20.426  0.00  0.00    +0.000 S 
ATOM     24  O   UNL     1       2.973  13.292  21.493  0.00  0.00    +0.000 OA
ATOM     25  O   UNL     1       2.157  12.518  19.236  0.00  0.00    +0.000 OA
BRANCH  23  26
ATOM     26  C   UNL     1       2.026  15.014  19.844  0.00  0.00    +0.000 A 
ATOM     27  C   UNL     1       1.607  15.604  18.667  0.00  0.00    +0.000 A 
ATOM     28  C   UNL     1       1.873  17.005  18.636  0.00  0.00    +0.000 A 
ATOM     29  C   UNL     1       2.471  17.440  19.798  0.00  0.00    +0.000 A 
ATOM     30  S   UNL     1       2.690  16.169  20.922  0.00  0.00    +0.000 S 
ENDBRANCH  23  26
ENDBRANCH  22  23
ENDBRANCH   2  18
TORSDOF 3
ENDMDL
