MODEL 1
REMARK VINA RESULT:      -7.0      0.000      0.000
REMARK  Name = 
REMARK  10 active torsions:
REMARK  status: ('A' for Active; 'I' for Inactive)
REMARK    1  A    between atoms: C_1  and  N_2
REMARK    2  A    between atoms: C_3  and  C_5
REMARK    3  A    between atoms: C_11  and  C_12
REMARK    4  A    between atoms: C_15  and  C_16
REMARK    5  A    between atoms: C_16  and  O_17
REMARK    6  A    between atoms: O_17  and  C_18
REMARK    7  A    between atoms: C_23  and  N_24
REMARK    8  A    between atoms: N_24  and  C_25
REMARK    9  A    between atoms: C_25  and  C_26
REMARK   10  A    between atoms: C_25  and  C_27
REMARK                            x       y       z     vdW  Elec       q    Type
REMARK                         _______ _______ _______ _____ _____    ______ ____
ROOT
ATOM      1  C   UNL     1      -4.201  13.558  21.313  0.00  0.00    +0.000 A 
ATOM      2  N   UNL     1      -3.920  13.746  22.626  0.00  0.00    +0.000 NA
ATOM      3  N   UNL     1      -2.858  13.101  23.181  0.00  0.00    +0.000 NA
ATOM      4  C   UNL     1      -2.060  12.329  22.432  0.00  0.00    +0.000 A 
ATOM      5  C   UNL     1      -0.999  11.661  23.044  0.00  0.00    +0.000 A 
ATOM      6  C   UNL     1      -0.123  10.833  22.327  0.00  0.00    +0.000 A 
ATOM      7  C   UNL     1      -0.242  10.707  20.945  0.00  0.00    +0.000 A 
ATOM      8  C   UNL     1      -1.282  11.440  20.351  0.00  0.00    +0.000 A 
ATOM      9  C   UNL     1      -2.267  12.174  21.048  0.00  0.00    +0.000 A 
ATOM     10  C   UNL     1      -3.430  12.749  20.451  0.00  0.00    +0.000 A 
ENDROOT
BRANCH   7  11
ATOM     11  C   UNL     1       0.623   9.836  20.118  0.00  0.00    +0.000 A 
ATOM     12  C   UNL     1       0.864  10.087  18.757  0.00  0.00    +0.000 A 
ATOM     13  C   UNL     1       1.638   9.219  17.987  0.00  0.00    +0.000 A 
ATOM     14  C   UNL     1       2.189   8.097  18.591  0.00  0.00    +0.000 A 
ATOM     15  N   UNL     1       1.970   7.803  19.896  0.00  0.00    +0.000 NA
ATOM     16  C   UNL     1       1.206   8.668  20.613  0.00  0.00    +0.000 A 
BRANCH  14  17
ATOM     17  C   UNL     1       3.045   7.144  17.788  0.00  0.00    +0.000 C 
BRANCH  17  18
ATOM     18  O   UNL     1       3.016   5.839  18.376  0.00  0.00    +0.000 OA
ATOM     19  C   UNL     1       4.321   5.283  18.458  0.00  0.00    +0.000 C 
ENDBRANCH  17  18
ENDBRANCH  14  17
ENDBRANCH   7  11
BRANCH   1  22
ATOM     20  C   UNL     1      -7.916  14.255  20.896  0.00  0.00    +0.000 C 
ATOM     21  N   UNL     1      -6.649  13.717  21.320  0.00  0.00    +0.000 N 
ATOM     22  C   UNL     1      -5.462  14.244  20.853  0.00  0.00    +0.000 C 
ATOM     23  O   UNL     1      -5.423  15.203  20.089  0.00  0.00    +0.000 OA
ATOM     24  H   UNL     1      -6.614  12.871  21.885  0.00  0.00    +0.000 HD
ENDBRANCH   1  22
BRANCH  10  25
ATOM     25  N   UNL     1      -3.799  12.605  19.090  0.00  0.00    +0.000 N 
ATOM     26  H   UNL     1      -3.842  13.537  18.646  0.00  0.00    +0.000 HD
BRANCH  25  27
ATOM     27  C   UNL     1      -4.834  11.720  18.533  0.00  0.00    +0.000 C 
ATOM     28  C   UNL     1      -6.001  12.520  17.949  0.00  0.00    +0.000 C 
BRANCH  27  29
ATOM     29  C   UNL     1      -4.210  10.772  17.470  0.00  0.00    +0.000 C 
ATOM     30  C   UNL     1      -2.711  10.541  17.751  0.00  0.00    +0.000 C 
ATOM     31  C   UNL     1      -2.074   9.689  16.664  0.00  0.00    +0.000 C 
ATOM     32  O   UNL     1      -2.258  10.285  15.384  0.00  0.00    +0.000 OA
ATOM     33  C   UNL     1      -3.638  10.413  15.046  0.00  0.00    +0.000 C 
ATOM     34  C   UNL     1      -4.351  11.324  16.038  0.00  0.00    +0.000 C 
ENDBRANCH  27  29
ENDBRANCH  25  27
ENDBRANCH  10  25
TORSDOF 7
ENDMDL
MODEL 2
REMARK VINA RESULT:      -7.0      1.094      1.433
REMARK  Name = 
REMARK  10 active torsions:
REMARK  status: ('A' for Active; 'I' for Inactive)
REMARK    1  A    between atoms: C_1  and  N_2
REMARK    2  A    between atoms: C_3  and  C_5
REMARK    3  A    between atoms: C_11  and  C_12
REMARK    4  A    between atoms: C_15  and  C_16
REMARK    5  A    between atoms: C_16  and  O_17
REMARK    6  A    between atoms: O_17  and  C_18
REMARK    7  A    between atoms: C_23  and  N_24
REMARK    8  A    between atoms: N_24  and  C_25
REMARK    9  A    between atoms: C_25  and  C_26
REMARK   10  A    between atoms: C_25  and  C_27
REMARK                            x       y       z     vdW  Elec       q    Type
REMARK                         _______ _______ _______ _____ _____    ______ ____
ROOT
ATOM      1  C   UNL     1      -3.695  13.515  21.455  0.00  0.00    +0.000 A 
ATOM      2  N   UNL     1      -3.481  13.548  22.794  0.00  0.00    +0.000 NA
ATOM      3  N   UNL     1      -2.535  12.734  23.339  0.00  0.00    +0.000 NA
ATOM      4  C   UNL     1      -1.782  11.946  22.562  0.00  0.00    +0.000 A 
ATOM      5  C   UNL     1      -0.845  11.105  23.161  0.00  0.00    +0.000 A 
ATOM      6  C   UNL     1      -0.022  10.249  22.415  0.00  0.00    +0.000 A 
ATOM      7  C   UNL     1      -0.065  10.265  21.023  0.00  0.00    +0.000 A 
ATOM      8  C   UNL     1      -0.976  11.166  20.449  0.00  0.00    +0.000 A 
ATOM      9  C   UNL     1      -1.915  11.944  21.161  0.00  0.00    +0.000 A 
ATOM     10  C   UNL     1      -2.966  12.704  20.561  0.00  0.00    +0.000 A 
ENDROOT
BRANCH   7  11
ATOM     11  C   UNL     1       0.749   9.377  20.161  0.00  0.00    +0.000 A 
ATOM     12  C   UNL     1       0.917   9.609  18.786  0.00  0.00    +0.000 A 
ATOM     13  C   UNL     1       1.643   8.726  17.987  0.00  0.00    +0.000 A 
ATOM     14  C   UNL     1       2.219   7.608  18.575  0.00  0.00    +0.000 A 
ATOM     15  N   UNL     1       2.068   7.332  19.894  0.00  0.00    +0.000 NA
ATOM     16  C   UNL     1       1.350   8.211  20.640  0.00  0.00    +0.000 A 
BRANCH  14  17
ATOM     17  C   UNL     1       3.024   6.639  17.740  0.00  0.00    +0.000 C 
BRANCH  17  18
ATOM     18  O   UNL     1       4.424   6.878  17.918  0.00  0.00    +0.000 OA
ATOM     19  C   UNL     1       5.122   6.796  16.684  0.00  0.00    +0.000 C 
ENDBRANCH  17  18
ENDBRANCH  14  17
ENDBRANCH   7  11
BRANCH   1  22
ATOM     20  C   UNL     1      -5.517  16.549  20.062  0.00  0.00    +0.000 C 
ATOM     21  N   UNL     1      -4.502  15.614  20.472  0.00  0.00    +0.000 N 
ATOM     22  C   UNL     1      -4.840  14.384  20.999  0.00  0.00    +0.000 C 
ATOM     23  O   UNL     1      -6.005  14.015  21.115  0.00  0.00    +0.000 OA
ATOM     24  H   UNL     1      -3.522  15.891  20.480  0.00  0.00    +0.000 HD
ENDBRANCH   1  22
BRANCH  10  25
ATOM     25  N   UNL     1      -3.260  12.728  19.175  0.00  0.00    +0.000 N 
ATOM     26  H   UNL     1      -3.497  13.694  18.892  0.00  0.00    +0.000 HD
BRANCH  25  27
ATOM     27  C   UNL     1      -4.060  11.757  18.412  0.00  0.00    +0.000 C 
ATOM     28  C   UNL     1      -5.407  12.349  17.989  0.00  0.00    +0.000 C 
BRANCH  27  29
ATOM     29  C   UNL     1      -3.253  11.248  17.185  0.00  0.00    +0.000 C 
ATOM     30  C   UNL     1      -4.161  11.117  15.945  0.00  0.00    +0.000 C 
ATOM     31  C   UNL     1      -3.400  10.534  14.765  0.00  0.00    +0.000 C 
ATOM     32  O   UNL     1      -2.833   9.273  15.106  0.00  0.00    +0.000 OA
ATOM     33  C   UNL     1      -1.902   9.377  16.182  0.00  0.00    +0.000 C 
ATOM     34  C   UNL     1      -2.594   9.879  17.443  0.00  0.00    +0.000 C 
ENDBRANCH  27  29
ENDBRANCH  25  27
ENDBRANCH  10  25
TORSDOF 7
ENDMDL
MODEL 3
REMARK VINA RESULT:      -7.0      3.939      5.127
REMARK  Name = 
REMARK  10 active torsions:
REMARK  status: ('A' for Active; 'I' for Inactive)
REMARK    1  A    between atoms: C_1  and  N_2
REMARK    2  A    between atoms: C_3  and  C_5
REMARK    3  A    between atoms: C_11  and  C_12
REMARK    4  A    between atoms: C_15  and  C_16
REMARK    5  A    between atoms: C_16  and  O_17
REMARK    6  A    between atoms: O_17  and  C_18
REMARK    7  A    between atoms: C_23  and  N_24
REMARK    8  A    between atoms: N_24  and  C_25
REMARK    9  A    between atoms: C_25  and  C_26
REMARK   10  A    between atoms: C_25  and  C_27
REMARK                            x       y       z     vdW  Elec       q    Type
REMARK                         _______ _______ _______ _____ _____    ______ ____
ROOT
ATOM      1  C   UNL     1      -0.641  13.360  21.877  0.00  0.00    +0.000 A 
ATOM      2  N   UNL     1      -1.232  12.862  22.992  0.00  0.00    +0.000 NA
ATOM      3  N   UNL     1      -1.156  11.528  23.249  0.00  0.00    +0.000 NA
ATOM      4  C   UNL     1      -0.461  10.715  22.444  0.00  0.00    +0.000 A 
ATOM      5  C   UNL     1      -0.432   9.349  22.725  0.00  0.00    +0.000 A 
ATOM      6  C   UNL     1       0.271   8.435  21.926  0.00  0.00    +0.000 A 
ATOM      7  C   UNL     1       1.037   8.880  20.852  0.00  0.00    +0.000 A 
ATOM      8  C   UNL     1       1.036  10.267  20.631  0.00  0.00    +0.000 A 
ATOM      9  C   UNL     1       0.237  11.204  21.323  0.00  0.00    +0.000 A 
ATOM     10  C   UNL     1       0.095  12.579  20.961  0.00  0.00    +0.000 A 
ENDROOT
BRANCH   7  11
ATOM     11  C   UNL     1       1.787   7.982  19.944  0.00  0.00    +0.000 A 
ATOM     12  C   UNL     1       2.182   8.372  18.654  0.00  0.00    +0.000 A 
ATOM     13  C   UNL     1       2.839   7.487  17.800  0.00  0.00    +0.000 A 
ATOM     14  C   UNL     1       3.118   6.203  18.248  0.00  0.00    +0.000 A 
ATOM     15  N   UNL     1       2.740   5.776  19.478  0.00  0.00    +0.000 NA
ATOM     16  C   UNL     1       2.096   6.663  20.281  0.00  0.00    +0.000 A 
BRANCH  14  17
ATOM     17  C   UNL     1       3.842   5.225  17.353  0.00  0.00    +0.000 C 
BRANCH  17  18
ATOM     18  O   UNL     1       4.720   5.925  16.465  0.00  0.00    +0.000 OA
ATOM     19  C   UNL     1       6.075   5.792  16.871  0.00  0.00    +0.000 C 
ENDBRANCH  17  18
ENDBRANCH  14  17
ENDBRANCH   7  11
BRANCH   1  22
ATOM     20  C   UNL     1      -2.458  16.539  20.851  0.00  0.00    +0.000 C 
ATOM     21  N   UNL     1      -2.133  15.170  21.157  0.00  0.00    +0.000 N 
ATOM     22  C   UNL     1      -0.892  14.829  21.657  0.00  0.00    +0.000 C 
ATOM     23  O   UNL     1      -0.025  15.666  21.892  0.00  0.00    +0.000 OA
ATOM     24  H   UNL     1      -2.775  14.421  20.907  0.00  0.00    +0.000 HD
ENDBRANCH   1  22
BRANCH  10  25
ATOM     25  N   UNL     1       0.676  13.181  19.817  0.00  0.00    +0.000 N 
ATOM     26  H   UNL     1       0.139  12.908  18.977  0.00  0.00    +0.000 HD
BRANCH  25  27
ATOM     27  C   UNL     1       2.108  13.301  19.499  0.00  0.00    +0.000 C 
ATOM     28  C   UNL     1       2.454  12.576  18.196  0.00  0.00    +0.000 C 
BRANCH  27  29
ATOM     29  C   UNL     1       2.517  14.799  19.440  0.00  0.00    +0.000 C 
ATOM     30  C   UNL     1       1.434  15.639  18.732  0.00  0.00    +0.000 C 
ATOM     31  C   UNL     1       1.869  17.089  18.590  0.00  0.00    +0.000 C 
ATOM     32  O   UNL     1       3.107  17.178  17.893  0.00  0.00    +0.000 OA
ATOM     33  C   UNL     1       4.159  16.502  18.580  0.00  0.00    +0.000 C 
ATOM     34  C   UNL     1       3.851  15.013  18.699  0.00  0.00    +0.000 C 
ENDBRANCH  27  29
ENDBRANCH  25  27
ENDBRANCH  10  25
TORSDOF 7
ENDMDL
MODEL 4
REMARK VINA RESULT:      -6.9      3.873      4.928
REMARK  Name = 
REMARK  10 active torsions:
REMARK  status: ('A' for Active; 'I' for Inactive)
REMARK    1  A    between atoms: C_1  and  N_2
REMARK    2  A    between atoms: C_3  and  C_5
REMARK    3  A    between atoms: C_11  and  C_12
REMARK    4  A    between atoms: C_15  and  C_16
REMARK    5  A    between atoms: C_16  and  O_17
REMARK    6  A    between atoms: O_17  and  C_18
REMARK    7  A    between atoms: C_23  and  N_24
REMARK    8  A    between atoms: N_24  and  C_25
REMARK    9  A    between atoms: C_25  and  C_26
REMARK   10  A    between atoms: C_25  and  C_27
REMARK                            x       y       z     vdW  Elec       q    Type
REMARK                         _______ _______ _______ _____ _____    ______ ____
ROOT
ATOM      1  C   UNL     1      -0.350  13.281  22.223  0.00  0.00    +0.000 A 
ATOM      2  N   UNL     1      -1.139  12.730  23.180  0.00  0.00    +0.000 NA
ATOM      3  N   UNL     1      -1.228  11.375  23.273  0.00  0.00    +0.000 NA
ATOM      4  C   UNL     1      -0.506  10.586  22.469  0.00  0.00    +0.000 A 
ATOM      5  C   UNL     1      -0.647   9.202  22.576  0.00  0.00    +0.000 A 
ATOM      6  C   UNL     1       0.072   8.311  21.765  0.00  0.00    +0.000 A 
ATOM      7  C   UNL     1       1.022   8.785  20.864  0.00  0.00    +0.000 A 
ATOM      8  C   UNL     1       1.184  10.180  20.824  0.00  0.00    +0.000 A 
ATOM      9  C   UNL     1       0.388  11.116  21.519  0.00  0.00    +0.000 A 
ATOM     10  C   UNL     1       0.431  12.530  21.319  0.00  0.00    +0.000 A 
ENDROOT
BRANCH   7  11
ATOM     11  C   UNL     1       1.805   7.917  19.956  0.00  0.00    +0.000 A 
ATOM     12  C   UNL     1       2.161   8.313  18.656  0.00  0.00    +0.000 A 
ATOM     13  C   UNL     1       2.851   7.453  17.802  0.00  0.00    +0.000 A 
ATOM     14  C   UNL     1       3.201   6.190  18.260  0.00  0.00    +0.000 A 
ATOM     15  N   UNL     1       2.862   5.757  19.499  0.00  0.00    +0.000 NA
ATOM     16  C   UNL     1       2.185   6.619  20.301  0.00  0.00    +0.000 A 
BRANCH  14  17
ATOM     17  C   UNL     1       3.962   5.241  17.364  0.00  0.00    +0.000 C 
BRANCH  17  18
ATOM     18  O   UNL     1       4.297   4.047  18.080  0.00  0.00    +0.000 OA
ATOM     19  C   UNL     1       3.659   2.911  17.515  0.00  0.00    +0.000 C 
ENDBRANCH  17  18
ENDBRANCH  14  17
ENDBRANCH   7  11
BRANCH   1  22
ATOM     20  C   UNL     1      -1.820  16.745  21.670  0.00  0.00    +0.000 C 
ATOM     21  N   UNL     1      -1.650  15.322  21.819  0.00  0.00    +0.000 N 
ATOM     22  C   UNL     1      -0.425  14.785  22.161  0.00  0.00    +0.000 C 
ATOM     23  O   UNL     1       0.561  15.482  22.382  0.00  0.00    +0.000 OA
ATOM     24  H   UNL     1      -2.404  14.686  21.569  0.00  0.00    +0.000 HD
ENDBRANCH   1  22
BRANCH  10  25
ATOM     25  N   UNL     1       1.224  13.189  20.347  0.00  0.00    +0.000 N 
ATOM     26  H   UNL     1       1.485  14.127  20.695  0.00  0.00    +0.000 HD
BRANCH  25  27
ATOM     27  C   UNL     1       1.013  13.219  18.891  0.00  0.00    +0.000 C 
ATOM     28  C   UNL     1      -0.462  13.434  18.543  0.00  0.00    +0.000 C 
BRANCH  27  29
ATOM     29  C   UNL     1       1.913  14.308  18.243  0.00  0.00    +0.000 C 
ATOM     30  C   UNL     1       3.406  13.977  18.439  0.00  0.00    +0.000 C 
ATOM     31  C   UNL     1       4.292  15.084  17.889  0.00  0.00    +0.000 C 
ATOM     32  O   UNL     1       3.972  16.333  18.494  0.00  0.00    +0.000 OA
ATOM     33  C   UNL     1       2.623  16.723  18.239  0.00  0.00    +0.000 C 
ATOM     34  C   UNL     1       1.651  15.709  18.831  0.00  0.00    +0.000 C 
ENDBRANCH  27  29
ENDBRANCH  25  27
ENDBRANCH  10  25
TORSDOF 7
ENDMDL
MODEL 5
REMARK VINA RESULT:      -6.9      4.023      5.370
REMARK  Name = 
REMARK  10 active torsions:
REMARK  status: ('A' for Active; 'I' for Inactive)
REMARK    1  A    between atoms: C_1  and  N_2
REMARK    2  A    between atoms: C_3  and  C_5
REMARK    3  A    between atoms: C_11  and  C_12
REMARK    4  A    between atoms: C_15  and  C_16
REMARK    5  A    between atoms: C_16  and  O_17
REMARK    6  A    between atoms: O_17  and  C_18
REMARK    7  A    between atoms: C_23  and  N_24
REMARK    8  A    between atoms: N_24  and  C_25
REMARK    9  A    between atoms: C_25  and  C_26
REMARK   10  A    between atoms: C_25  and  C_27
REMARK                            x       y       z     vdW  Elec       q    Type
REMARK                         _______ _______ _______ _____ _____    ______ ____
ROOT
ATOM      1  C   UNL     1      -0.603  13.280  21.861  0.00  0.00    +0.000 A 
ATOM      2  N   UNL     1      -1.187  12.802  22.988  0.00  0.00    +0.000 NA
ATOM      3  N   UNL     1      -1.124  11.469  23.258  0.00  0.00    +0.000 NA
ATOM      4  C   UNL     1      -0.448  10.640  22.454  0.00  0.00    +0.000 A 
ATOM      5  C   UNL     1      -0.431   9.277  22.749  0.00  0.00    +0.000 A 
ATOM      6  C   UNL     1       0.252   8.347  21.952  0.00  0.00    +0.000 A 
ATOM      7  C   UNL     1       1.010   8.771  20.863  0.00  0.00    +0.000 A 
ATOM      8  C   UNL     1       1.022  10.155  20.629  0.00  0.00    +0.000 A 
ATOM      9  C   UNL     1       0.243  11.109  21.320  0.00  0.00    +0.000 A 
ATOM     10  C   UNL     1       0.113  12.481  20.945  0.00  0.00    +0.000 A 
ENDROOT
BRANCH   7  11
ATOM     11  C   UNL     1       1.739   7.854  19.957  0.00  0.00    +0.000 A 
ATOM     12  C   UNL     1       2.065   6.537  20.320  0.00  0.00    +0.000 A 
ATOM     13  C   UNL     1       2.801   5.713  19.468  0.00  0.00    +0.000 A 
ATOM     14  C   UNL     1       3.200   6.209  18.235  0.00  0.00    +0.000 A 
ATOM     15  N   UNL     1       2.925   7.479  17.849  0.00  0.00    +0.000 NA
ATOM     16  C   UNL     1       2.212   8.255  18.706  0.00  0.00    +0.000 A 
BRANCH  14  17
ATOM     17  C   UNL     1       3.986   5.337  17.283  0.00  0.00    +0.000 C 
BRANCH  17  18
ATOM     18  O   UNL     1       4.763   6.149  16.396  0.00  0.00    +0.000 OA
ATOM     19  C   UNL     1       5.620   5.355  15.588  0.00  0.00    +0.000 C 
ENDBRANCH  17  18
ENDBRANCH  14  17
ENDBRANCH   7  11
BRANCH   1  22
ATOM     20  C   UNL     1      -0.390  17.041  22.389  0.00  0.00    +0.000 C 
ATOM     21  N   UNL     1      -0.188  15.618  22.481  0.00  0.00    +0.000 N 
ATOM     22  C   UNL     1      -0.840  14.751  21.628  0.00  0.00    +0.000 C 
ATOM     23  O   UNL     1      -1.591  15.142  20.740  0.00  0.00    +0.000 OA
ATOM     24  H   UNL     1       0.355  15.225  23.248  0.00  0.00    +0.000 HD
ENDBRANCH   1  22
BRANCH  10  25
ATOM     25  N   UNL     1       0.687  13.064  19.788  0.00  0.00    +0.000 N 
ATOM     26  H   UNL     1       0.208  12.700  18.947  0.00  0.00    +0.000 HD
BRANCH  25  27
ATOM     27  C   UNL     1       2.115  13.287  19.513  0.00  0.00    +0.000 C 
ATOM     28  C   UNL     1       2.520  12.709  18.154  0.00  0.00    +0.000 C 
BRANCH  27  29
ATOM     29  C   UNL     1       2.447  14.802  19.606  0.00  0.00    +0.000 C 
ATOM     30  C   UNL     1       1.399  15.643  18.849  0.00  0.00    +0.000 C 
ATOM     31  C   UNL     1       1.767  17.118  18.858  0.00  0.00    +0.000 C 
ATOM     32  O   UNL     1       3.064  17.318  18.305  0.00  0.00    +0.000 OA
ATOM     33  C   UNL     1       4.075  16.640  19.050  0.00  0.00    +0.000 C 
ATOM     34  C   UNL     1       3.837  15.134  19.028  0.00  0.00    +0.000 C 
ENDBRANCH  27  29
ENDBRANCH  25  27
ENDBRANCH  10  25
TORSDOF 7
ENDMDL
MODEL 6
REMARK VINA RESULT:      -6.8      3.803      5.058
REMARK  Name = 
REMARK  10 active torsions:
REMARK  status: ('A' for Active; 'I' for Inactive)
REMARK    1  A    between atoms: C_1  and  N_2
REMARK    2  A    between atoms: C_3  and  C_5
REMARK    3  A    between atoms: C_11  and  C_12
REMARK    4  A    between atoms: C_15  and  C_16
REMARK    5  A    between atoms: C_16  and  O_17
REMARK    6  A    between atoms: O_17  and  C_18
REMARK    7  A    between atoms: C_23  and  N_24
REMARK    8  A    between atoms: N_24  and  C_25
REMARK    9  A    between atoms: C_25  and  C_26
REMARK   10  A    between atoms: C_25  and  C_27
REMARK                            x       y       z     vdW  Elec       q    Type
REMARK                         _______ _______ _______ _____ _____    ______ ____
ROOT
ATOM      1  C   UNL     1      -0.307  12.782  22.235  0.00  0.00    +0.000 A 
ATOM      2  N   UNL     1      -1.059  12.152  23.171  0.00  0.00    +0.000 NA
ATOM      3  N   UNL     1      -1.092  10.791  23.195  0.00  0.00    +0.000 NA
ATOM      4  C   UNL     1      -0.350  10.074  22.342  0.00  0.00    +0.000 A 
ATOM      5  C   UNL     1      -0.434   8.683  22.379  0.00  0.00    +0.000 A 
ATOM      6  C   UNL     1       0.309   7.865  21.515  0.00  0.00    +0.000 A 
ATOM      7  C   UNL     1       1.226   8.423  20.628  0.00  0.00    +0.000 A 
ATOM      8  C   UNL     1       1.331   9.823  20.658  0.00  0.00    +0.000 A 
ATOM      9  C   UNL     1       0.508  10.689  21.411  0.00  0.00    +0.000 A 
ATOM     10  C   UNL     1       0.491  12.112  21.284  0.00  0.00    +0.000 A 
ENDROOT
BRANCH   7  11
ATOM     11  C   UNL     1       2.030   7.635  19.666  0.00  0.00    +0.000 A 
ATOM     12  C   UNL     1       2.424   6.311  19.920  0.00  0.00    +0.000 A 
ATOM     13  C   UNL     1       3.228   5.611  19.022  0.00  0.00    +0.000 A 
ATOM     14  C   UNL     1       3.629   6.238  17.850  0.00  0.00    +0.000 A 
ATOM     15  N   UNL     1       3.289   7.520  17.570  0.00  0.00    +0.000 NA
ATOM     16  C   UNL     1       2.510   8.174  18.471  0.00  0.00    +0.000 A 
BRANCH  14  17
ATOM     17  C   UNL     1       4.489   5.502  16.849  0.00  0.00    +0.000 C 
BRANCH  17  18
ATOM     18  O   UNL     1       5.500   4.748  17.525  0.00  0.00    +0.000 OA
ATOM     19  C   UNL     1       6.635   4.548  16.695  0.00  0.00    +0.000 C 
ENDBRANCH  17  18
ENDBRANCH  14  17
ENDBRANCH   7  11
BRANCH   1  22
ATOM     20  C   UNL     1      -1.838  16.217  21.666  0.00  0.00    +0.000 C 
ATOM     21  N   UNL     1      -1.626  14.795  21.755  0.00  0.00    +0.000 N 
ATOM     22  C   UNL     1      -0.444  14.283  22.252  0.00  0.00    +0.000 C 
ATOM     23  O   UNL     1       0.462  15.001  22.666  0.00  0.00    +0.000 OA
ATOM     24  H   UNL     1      -2.301  14.148  21.351  0.00  0.00    +0.000 HD
ENDBRANCH   1  22
BRANCH  10  25
ATOM     25  N   UNL     1       1.243  12.852  20.337  0.00  0.00    +0.000 N 
ATOM     26  H   UNL     1       1.529  13.753  20.756  0.00  0.00    +0.000 HD
BRANCH  25  27
ATOM     27  C   UNL     1       0.963  13.015  18.902  0.00  0.00    +0.000 C 
ATOM     28  C   UNL     1      -0.535  13.194  18.641  0.00  0.00    +0.000 C 
BRANCH  27  29
ATOM     29  C   UNL     1       1.784  14.204  18.330  0.00  0.00    +0.000 C 
ATOM     30  C   UNL     1       3.296  13.901  18.375  0.00  0.00    +0.000 C 
ATOM     31  C   UNL     1       4.110  15.095  17.901  0.00  0.00    +0.000 C 
ATOM     32  O   UNL     1       3.807  16.250  18.677  0.00  0.00    +0.000 OA
ATOM     33  C   UNL     1       2.434  16.623  18.569  0.00  0.00    +0.000 C 
ATOM     34  C   UNL     1       1.534  15.514  19.102  0.00  0.00    +0.000 C 
ENDBRANCH  27  29
ENDBRANCH  25  27
ENDBRANCH  10  25
TORSDOF 7
ENDMDL
MODEL 7
REMARK VINA RESULT:      -6.7      3.840      5.094
REMARK  Name = 
REMARK  10 active torsions:
REMARK  status: ('A' for Active; 'I' for Inactive)
REMARK    1  A    between atoms: C_1  and  N_2
REMARK    2  A    between atoms: C_3  and  C_5
REMARK    3  A    between atoms: C_11  and  C_12
REMARK    4  A    between atoms: C_15  and  C_16
REMARK    5  A    between atoms: C_16  and  O_17
REMARK    6  A    between atoms: O_17  and  C_18
REMARK    7  A    between atoms: C_23  and  N_24
REMARK    8  A    between atoms: N_24  and  C_25
REMARK    9  A    between atoms: C_25  and  C_26
REMARK   10  A    between atoms: C_25  and  C_27
REMARK                            x       y       z     vdW  Elec       q    Type
REMARK                         _______ _______ _______ _____ _____    ______ ____
ROOT
ATOM      1  C   UNL     1      -0.336  13.505  22.170  0.00  0.00    +0.000 A 
ATOM      2  N   UNL     1      -1.151  13.012  23.135  0.00  0.00    +0.000 NA
ATOM      3  N   UNL     1      -1.291  11.665  23.268  0.00  0.00    +0.000 NA
ATOM      4  C   UNL     1      -0.592  10.826  22.494  0.00  0.00    +0.000 A 
ATOM      5  C   UNL     1      -0.785   9.453  22.640  0.00  0.00    +0.000 A 
ATOM      6  C   UNL     1      -0.093   8.512  21.863  0.00  0.00    +0.000 A 
ATOM      7  C   UNL     1       0.879   8.924  20.956  0.00  0.00    +0.000 A 
ATOM      8  C   UNL     1       1.093  10.310  20.875  0.00  0.00    +0.000 A 
ATOM      9  C   UNL     1       0.327  11.295  21.536  0.00  0.00    +0.000 A 
ATOM     10  C   UNL     1       0.423  12.700  21.295  0.00  0.00    +0.000 A 
ENDROOT
BRANCH   7  11
ATOM     11  C   UNL     1       1.637   8.001  20.080  0.00  0.00    +0.000 A 
ATOM     12  C   UNL     1       2.009   6.710  20.489  0.00  0.00    +0.000 A 
ATOM     13  C   UNL     1       2.769   5.881  19.664  0.00  0.00    +0.000 A 
ATOM     14  C   UNL     1       3.148   6.345  18.411  0.00  0.00    +0.000 A 
ATOM     15  N   UNL     1       2.828   7.590  17.981  0.00  0.00    +0.000 NA
ATOM     16  C   UNL     1       2.091   8.372  18.813  0.00  0.00    +0.000 A 
BRANCH  14  17
ATOM     17  C   UNL     1       3.960   5.467  17.488  0.00  0.00    +0.000 C 
BRANCH  17  18
ATOM     18  O   UNL     1       3.237   4.269  17.183  0.00  0.00    +0.000 OA
ATOM     19  C   UNL     1       3.963   3.115  17.580  0.00  0.00    +0.000 C 
ENDBRANCH  17  18
ENDBRANCH  14  17
ENDBRANCH   7  11
BRANCH   1  22
ATOM     20  C   UNL     1       0.213  17.144  23.131  0.00  0.00    +0.000 C 
ATOM     21  N   UNL     1       0.230  15.704  23.100  0.00  0.00    +0.000 N 
ATOM     22  C   UNL     1      -0.356  15.008  22.062  0.00  0.00    +0.000 C 
ATOM     23  O   UNL     1      -0.888  15.571  21.110  0.00  0.00    +0.000 OA
ATOM     24  H   UNL     1       0.580  15.177  23.899  0.00  0.00    +0.000 HD
ENDBRANCH   1  22
BRANCH  10  25
ATOM     25  N   UNL     1       1.246  13.300  20.309  0.00  0.00    +0.000 N 
ATOM     26  H   UNL     1       1.481  14.264  20.599  0.00  0.00    +0.000 HD
BRANCH  25  27
ATOM     27  C   UNL     1       1.094  13.222  18.848  0.00  0.00    +0.000 C 
ATOM     28  C   UNL     1      -0.374  13.346  18.430  0.00  0.00    +0.000 C 
BRANCH  27  29
ATOM     29  C   UNL     1       1.971  14.307  18.162  0.00  0.00    +0.000 C 
ATOM     30  C   UNL     1       3.470  14.039  18.407  0.00  0.00    +0.000 C 
ATOM     31  C   UNL     1       4.330  15.145  17.816  0.00  0.00    +0.000 C 
ATOM     32  O   UNL     1       3.955  16.412  18.347  0.00  0.00    +0.000 OA
ATOM     33  C   UNL     1       2.600  16.741  18.042  0.00  0.00    +0.000 C 
ATOM     34  C   UNL     1       1.649  15.727  18.667  0.00  0.00    +0.000 C 
ENDBRANCH  27  29
ENDBRANCH  25  27
ENDBRANCH  10  25
TORSDOF 7
ENDMDL
MODEL 8
REMARK VINA RESULT:      -6.7      3.993      5.095
REMARK  Name = 
REMARK  10 active torsions:
REMARK  status: ('A' for Active; 'I' for Inactive)
REMARK    1  A    between atoms: C_1  and  N_2
REMARK    2  A    between atoms: C_3  and  C_5
REMARK    3  A    between atoms: C_11  and  C_12
REMARK    4  A    between atoms: C_15  and  C_16
REMARK    5  A    between atoms: C_16  and  O_17
REMARK    6  A    between atoms: O_17  and  C_18
REMARK    7  A    between atoms: C_23  and  N_24
REMARK    8  A    between atoms: N_24  and  C_25
REMARK    9  A    between atoms: C_25  and  C_26
REMARK   10  A    between atoms: C_25  and  C_27
REMARK                            x       y       z     vdW  Elec       q    Type
REMARK                         _______ _______ _______ _____ _____    ______ ____
ROOT
ATOM      1  C   UNL     1      -0.821  13.431  22.190  0.00  0.00    +0.000 A 
ATOM      2  N   UNL     1      -1.469  12.848  23.229  0.00  0.00    +0.000 NA
ATOM      3  N   UNL     1      -1.406  11.497  23.383  0.00  0.00    +0.000 NA
ATOM      4  C   UNL     1      -0.668  10.749  22.553  0.00  0.00    +0.000 A 
ATOM      5  C   UNL     1      -0.651   9.365  22.726  0.00  0.00    +0.000 A 
ATOM      6  C   UNL     1       0.094   8.515  21.895  0.00  0.00    +0.000 A 
ATOM      7  C   UNL     1       0.914   9.042  20.901  0.00  0.00    +0.000 A 
ATOM      8  C   UNL     1       0.923  10.442  20.792  0.00  0.00    +0.000 A 
ATOM      9  C   UNL     1       0.088  11.323  21.513  0.00  0.00    +0.000 A 
ATOM     10  C   UNL     1      -0.036  12.723  21.255  0.00  0.00    +0.000 A 
ENDROOT
BRANCH   7  11
ATOM     11  C   UNL     1       1.713   8.217  19.966  0.00  0.00    +0.000 A 
ATOM     12  C   UNL     1       2.008   8.633  18.657  0.00  0.00    +0.000 A 
ATOM     13  C   UNL     1       2.715   7.811  17.779  0.00  0.00    +0.000 A 
ATOM     14  C   UNL     1       3.144   6.568  18.222  0.00  0.00    +0.000 A 
ATOM     15  N   UNL     1       2.867   6.116  19.469  0.00  0.00    +0.000 NA
ATOM     16  C   UNL     1       2.171   6.940  20.295  0.00  0.00    +0.000 A 
BRANCH  14  17
ATOM     17  C   UNL     1       3.925   5.660  17.300  0.00  0.00    +0.000 C 
BRANCH  17  18
ATOM     18  O   UNL     1       4.436   4.538  18.027  0.00  0.00    +0.000 OA
ATOM     19  C   UNL     1       5.846   4.623  18.181  0.00  0.00    +0.000 C 
ENDBRANCH  17  18
ENDBRANCH  14  17
ENDBRANCH   7  11
BRANCH   1  22
ATOM     20  C   UNL     1      -0.851  17.111  23.151  0.00  0.00    +0.000 C 
ATOM     21  N   UNL     1      -0.618  15.689  23.128  0.00  0.00    +0.000 N 
ATOM     22  C   UNL     1      -1.061  14.914  22.075  0.00  0.00    +0.000 C 
ATOM     23  O   UNL     1      -1.641  15.392  21.104  0.00  0.00    +0.000 OA
ATOM     24  H   UNL     1      -0.220  15.221  23.939  0.00  0.00    +0.000 HD
ENDBRANCH   1  22
BRANCH  10  25
ATOM     25  N   UNL     1       0.604  13.412  20.195  0.00  0.00    +0.000 N 
ATOM     26  H   UNL     1       0.783  12.755  19.418  0.00  0.00    +0.000 HD
BRANCH  25  27
ATOM     27  C   UNL     1       1.689  14.400  20.297  0.00  0.00    +0.000 C 
ATOM     28  C   UNL     1       3.012  13.740  20.693  0.00  0.00    +0.000 C 
BRANCH  27  29
ATOM     29  C   UNL     1       1.825  15.183  18.960  0.00  0.00    +0.000 C 
ATOM     30  C   UNL     1       3.283  15.164  18.457  0.00  0.00    +0.000 C 
ATOM     31  C   UNL     1       3.441  16.004  17.200  0.00  0.00    +0.000 C 
ATOM     32  O   UNL     1       3.008  17.341  17.429  0.00  0.00    +0.000 OA
ATOM     33  C   UNL     1       1.629  17.402  17.791  0.00  0.00    +0.000 C 
ATOM     34  C   UNL     1       1.383  16.653  19.095  0.00  0.00    +0.000 C 
ENDBRANCH  27  29
ENDBRANCH  25  27
ENDBRANCH  10  25
TORSDOF 7
ENDMDL
MODEL 9
REMARK VINA RESULT:      -6.7      3.964      5.208
REMARK  Name = 
REMARK  10 active torsions:
REMARK  status: ('A' for Active; 'I' for Inactive)
REMARK    1  A    between atoms: C_1  and  N_2
REMARK    2  A    between atoms: C_3  and  C_5
REMARK    3  A    between atoms: C_11  and  C_12
REMARK    4  A    between atoms: C_15  and  C_16
REMARK    5  A    between atoms: C_16  and  O_17
REMARK    6  A    between atoms: O_17  and  C_18
REMARK    7  A    between atoms: C_23  and  N_24
REMARK    8  A    between atoms: N_24  and  C_25
REMARK    9  A    between atoms: C_25  and  C_26
REMARK   10  A    between atoms: C_25  and  C_27
REMARK                            x       y       z     vdW  Elec       q    Type
REMARK                         _______ _______ _______ _____ _____    ______ ____
ROOT
ATOM      1  C   UNL     1      -0.732  13.096  21.911  0.00  0.00    +0.000 A 
ATOM      2  N   UNL     1      -1.311  12.543  23.005  0.00  0.00    +0.000 NA
ATOM      3  N   UNL     1      -1.188  11.205  23.223  0.00  0.00    +0.000 NA
ATOM      4  C   UNL     1      -0.457  10.444  22.399  0.00  0.00    +0.000 A 
ATOM      5  C   UNL     1      -0.378   9.072  22.640  0.00  0.00    +0.000 A 
ATOM      6  C   UNL     1       0.364   8.210  21.820  0.00  0.00    +0.000 A 
ATOM      7  C   UNL     1       1.119   8.714  20.765  0.00  0.00    +0.000 A 
ATOM      8  C   UNL     1       1.068  10.106  20.586  0.00  0.00    +0.000 A 
ATOM      9  C   UNL     1       0.230  10.992  21.299  0.00  0.00    +0.000 A 
ATOM     10  C   UNL     1       0.039  12.371  20.977  0.00  0.00    +0.000 A 
ENDROOT
BRANCH   7  11
ATOM     11  C   UNL     1       1.909   7.872  19.837  0.00  0.00    +0.000 A 
ATOM     12  C   UNL     1       2.369   8.345  18.597  0.00  0.00    +0.000 A 
ATOM     13  C   UNL     1       3.063   7.514  17.718  0.00  0.00    +0.000 A 
ATOM     14  C   UNL     1       3.312   6.200  18.093  0.00  0.00    +0.000 A 
ATOM     15  N   UNL     1       2.872   5.694  19.271  0.00  0.00    +0.000 NA
ATOM     16  C   UNL     1       2.194   6.531  20.099  0.00  0.00    +0.000 A 
BRANCH  14  17
ATOM     17  C   UNL     1       4.074   5.278  17.170  0.00  0.00    +0.000 C 
BRANCH  17  18
ATOM     18  O   UNL     1       4.940   6.036  16.318  0.00  0.00    +0.000 OA
ATOM     19  C   UNL     1       5.396   5.255  15.222  0.00  0.00    +0.000 C 
ENDBRANCH  17  18
ENDBRANCH  14  17
ENDBRANCH   7  11
BRANCH   1  22
ATOM     20  C   UNL     1      -0.969  16.801  22.735  0.00  0.00    +0.000 C 
ATOM     21  N   UNL     1      -0.671  15.392  22.772  0.00  0.00    +0.000 N 
ATOM     22  C   UNL     1      -1.036  14.561  21.733  0.00  0.00    +0.000 C 
ATOM     23  O   UNL     1      -1.598  14.977  20.724  0.00  0.00    +0.000 OA
ATOM     24  H   UNL     1      -0.283  14.971  23.615  0.00  0.00    +0.000 HD
ENDBRANCH   1  22
BRANCH  10  25
ATOM     25  N   UNL     1       0.605  13.028  19.857  0.00  0.00    +0.000 N 
ATOM     26  H   UNL     1       0.111  12.730  18.999  0.00  0.00    +0.000 HD
BRANCH  25  27
ATOM     27  C   UNL     1       2.032  13.254  19.578  0.00  0.00    +0.000 C 
ATOM     28  C   UNL     1       2.464  12.569  18.279  0.00  0.00    +0.000 C 
BRANCH  27  29
ATOM     29  C   UNL     1       2.335  14.778  19.543  0.00  0.00    +0.000 C 
ATOM     30  C   UNL     1       2.583  15.323  20.964  0.00  0.00    +0.000 C 
ATOM     31  C   UNL     1       2.789  16.829  20.947  0.00  0.00    +0.000 C 
ATOM     32  O   UNL     1       1.675  17.483  20.347  0.00  0.00    +0.000 OA
ATOM     33  C   UNL     1       1.484  17.081  18.992  0.00  0.00    +0.000 C 
ATOM     34  C   UNL     1       1.186  15.589  18.912  0.00  0.00    +0.000 C 
ENDBRANCH  27  29
ENDBRANCH  25  27
ENDBRANCH  10  25
TORSDOF 7
ENDMDL
