MODEL 1
REMARK VINA RESULT:      -8.2      0.000      0.000
REMARK  Name = 
REMARK  6 active torsions:
REMARK  status: ('A' for Active; 'I' for Inactive)
REMARK    1  A    between atoms: C_1  and  O_2
REMARK    2  A    between atoms: O_2  and  C_3
REMARK    3  A    between atoms: C_6  and  N_7
REMARK    4  A    between atoms: N_7  and  C_8
REMARK    5  A    between atoms: C_16  and  C_17
REMARK    6  A    between atoms: N_25  and  C_26
REMARK                            x       y       z     vdW  Elec       q    Type
REMARK                         _______ _______ _______ _____ _____    ______ ____
ROOT
ATOM      1  C   UNL     1       3.629   5.153  18.367  0.00  0.00    +0.000 A 
ATOM      2  C   UNL     1       4.790   5.369  17.650  0.00  0.00    +0.000 A 
ATOM      3  C   UNL     1       4.815   4.363  16.662  0.00  0.00    +0.000 A 
ATOM      4  N   UNL     1       5.785   4.225  15.656  0.00  0.00    +0.000 NA
ATOM      5  C   UNL     1       6.717   5.144  15.640  0.00  0.00    +0.000 A 
ATOM      6  N   UNL     1       7.692   5.132  14.671  0.00  0.00    +0.000 N 
ATOM      7  N   UNL     1       6.780   6.173  16.607  0.00  0.00    +0.000 N 
ATOM      8  N   UNL     1       7.744   7.105  16.615  0.00  0.00    +0.000 NA
ATOM      9  C   UNL     1       7.410   7.815  17.705  0.00  0.00    +0.000 A 
ATOM     10  N   UNL     1       6.288   7.349  18.383  0.00  0.00    +0.000 NA
ATOM     11  C   UNL     1       5.904   6.331  17.642  0.00  0.00    +0.000 A 
ATOM     12  N   UNL     1       3.791   3.531  16.737  0.00  0.00    +0.000 NA
ATOM     13  N   UNL     1       3.072   4.026  17.767  0.00  0.00    +0.000 N 
ATOM     14  C   UNL     1       1.784   3.428  18.033  0.00  0.00    +0.000 C 
ATOM     15  H   UNL     1       7.842   4.233  14.228  0.00  0.00    +0.000 HD
ATOM     16  H   UNL     1       8.531   5.670  14.882  0.00  0.00    +0.000 HD
ENDROOT
BRANCH   9  17
ATOM     17  C   UNL     1       8.230   9.009  18.089  0.00  0.00    +0.000 A 
ATOM     18  C   UNL     1       8.321  10.221  17.433  0.00  0.00    +0.000 A 
ATOM     19  C   UNL     1       9.225  11.027  18.176  0.00  0.00    +0.000 A 
ATOM     20  C   UNL     1       9.641  10.259  19.237  0.00  0.00    +0.000 A 
ATOM     21  O   UNL     1       9.035   9.047  19.204  0.00  0.00    +0.000 OA
ENDBRANCH   9  17
BRANCH   1  22
ATOM     22  N   UNL     1       3.013   5.771  19.411  0.00  0.00    +0.000 N 
ATOM     23  H   UNL     1       2.648   5.229  20.191  0.00  0.00    +0.000 HD
BRANCH  22  27
ATOM     24  C   UNL     1       1.056   9.514  19.168  0.00  0.00    +0.000 A 
ATOM     25  C   UNL     1       1.103   8.829  20.379  0.00  0.00    +0.000 A 
ATOM     26  C   UNL     1       1.768   7.608  20.479  0.00  0.00    +0.000 A 
ATOM     27  C   UNL     1       2.380   7.034  19.364  0.00  0.00    +0.000 A 
ATOM     28  C   UNL     1       2.336   7.730  18.149  0.00  0.00    +0.000 A 
ATOM     29  C   UNL     1       1.678   8.964  18.049  0.00  0.00    +0.000 A 
BRANCH  24  31
ATOM     30  C   UNL     1      -1.069  10.540  19.065  0.00  0.00    +0.000 C 
ATOM     31  O   UNL     1       0.339  10.677  19.194  0.00  0.00    +0.000 OA
ENDBRANCH  24  31
ENDBRANCH  22  27
ENDBRANCH   1  22
TORSDOF 4
ENDMDL
MODEL 2
REMARK VINA RESULT:      -8.1      0.615      1.197
REMARK  Name = 
REMARK  6 active torsions:
REMARK  status: ('A' for Active; 'I' for Inactive)
REMARK    1  A    between atoms: C_1  and  O_2
REMARK    2  A    between atoms: O_2  and  C_3
REMARK    3  A    between atoms: C_6  and  N_7
REMARK    4  A    between atoms: N_7  and  C_8
REMARK    5  A    between atoms: C_16  and  C_17
REMARK    6  A    between atoms: N_25  and  C_26
REMARK                            x       y       z     vdW  Elec       q    Type
REMARK                         _______ _______ _______ _____ _____    ______ ____
ROOT
ATOM      1  C   UNL     1       3.781   4.821  18.329  0.00  0.00    +0.000 A 
ATOM      2  C   UNL     1       4.920   5.112  17.604  0.00  0.00    +0.000 A 
ATOM      3  C   UNL     1       5.000   4.114  16.610  0.00  0.00    +0.000 A 
ATOM      4  N   UNL     1       5.968   4.042  15.595  0.00  0.00    +0.000 NA
ATOM      5  C   UNL     1       6.840   5.019  15.577  0.00  0.00    +0.000 A 
ATOM      6  N   UNL     1       7.805   5.072  14.600  0.00  0.00    +0.000 N 
ATOM      7  N   UNL     1       6.846   6.044  16.549  0.00  0.00    +0.000 N 
ATOM      8  N   UNL     1       7.750   7.036  16.553  0.00  0.00    +0.000 NA
ATOM      9  C   UNL     1       7.381   7.718  17.650  0.00  0.00    +0.000 A 
ATOM     10  N   UNL     1       6.296   7.179  18.334  0.00  0.00    +0.000 NA
ATOM     11  C   UNL     1       5.971   6.142  17.591  0.00  0.00    +0.000 A 
ATOM     12  N   UNL     1       4.031   3.219  16.690  0.00  0.00    +0.000 NA
ATOM     13  N   UNL     1       3.291   3.664  17.728  0.00  0.00    +0.000 N 
ATOM     14  C   UNL     1       2.045   2.984  18.001  0.00  0.00    +0.000 C 
ATOM     15  H   UNL     1       8.008   4.187  14.151  0.00  0.00    +0.000 HD
ATOM     16  H   UNL     1       8.610   5.661  14.807  0.00  0.00    +0.000 HD
ENDROOT
BRANCH   9  17
ATOM     17  C   UNL     1       8.128   8.960  18.033  0.00  0.00    +0.000 A 
ATOM     18  C   UNL     1       8.977   9.141  19.107  0.00  0.00    +0.000 A 
ATOM     19  C   UNL     1       9.434  10.485  19.050  0.00  0.00    +0.000 A 
ATOM     20  C   UNL     1       8.832  11.050  17.951  0.00  0.00    +0.000 A 
ATOM     21  O   UNL     1       8.056  10.135  17.322  0.00  0.00    +0.000 OA
ENDBRANCH   9  17
BRANCH   1  22
ATOM     22  N   UNL     1       3.136   5.393  19.382  0.00  0.00    +0.000 N 
ATOM     23  H   UNL     1       2.759   4.820  20.132  0.00  0.00    +0.000 HD
BRANCH  22  27
ATOM     24  C   UNL     1       1.274   9.192  19.445  0.00  0.00    +0.000 A 
ATOM     25  C   UNL     1       1.855   8.719  18.271  0.00  0.00    +0.000 A 
ATOM     26  C   UNL     1       2.448   7.458  18.230  0.00  0.00    +0.000 A 
ATOM     27  C   UNL     1       2.493   6.652  19.368  0.00  0.00    +0.000 A 
ATOM     28  C   UNL     1       1.901   7.129  20.545  0.00  0.00    +0.000 A 
ATOM     29  C   UNL     1       1.294   8.392  20.586  0.00  0.00    +0.000 A 
BRANCH  24  31
ATOM     30  C   UNL     1      -0.601  10.552  18.982  0.00  0.00    +0.000 C 
ATOM     31  O   UNL     1       0.765  10.457  19.364  0.00  0.00    +0.000 OA
ENDBRANCH  24  31
ENDBRANCH  22  27
ENDBRANCH   1  22
TORSDOF 4
ENDMDL
MODEL 3
REMARK VINA RESULT:      -7.7      1.079      1.484
REMARK  Name = 
REMARK  6 active torsions:
REMARK  status: ('A' for Active; 'I' for Inactive)
REMARK    1  A    between atoms: C_1  and  O_2
REMARK    2  A    between atoms: O_2  and  C_3
REMARK    3  A    between atoms: C_6  and  N_7
REMARK    4  A    between atoms: N_7  and  C_8
REMARK    5  A    between atoms: C_16  and  C_17
REMARK    6  A    between atoms: N_25  and  C_26
REMARK                            x       y       z     vdW  Elec       q    Type
REMARK                         _______ _______ _______ _____ _____    ______ ____
ROOT
ATOM      1  C   UNL     1       4.207   4.196  18.340  0.00  0.00    +0.000 A 
ATOM      2  C   UNL     1       5.234   4.662  17.542  0.00  0.00    +0.000 A 
ATOM      3  C   UNL     1       5.284   3.782  16.441  0.00  0.00    +0.000 A 
ATOM      4  N   UNL     1       6.139   3.903  15.333  0.00  0.00    +0.000 NA
ATOM      5  C   UNL     1       6.923   4.952  15.336  0.00  0.00    +0.000 A 
ATOM      6  N   UNL     1       7.770   5.192  14.281  0.00  0.00    +0.000 N 
ATOM      7  N   UNL     1       6.953   5.869  16.411  0.00  0.00    +0.000 N 
ATOM      8  N   UNL     1       7.770   6.933  16.436  0.00  0.00    +0.000 NA
ATOM      9  C   UNL     1       7.469   7.463  17.633  0.00  0.00    +0.000 A 
ATOM     10  N   UNL     1       6.511   6.760  18.357  0.00  0.00    +0.000 NA
ATOM     11  C   UNL     1       6.191   5.779  17.540  0.00  0.00    +0.000 A 
ATOM     12  N   UNL     1       4.404   2.800  16.516  0.00  0.00    +0.000 NA
ATOM     13  N   UNL     1       3.749   3.067  17.666  0.00  0.00    +0.000 N 
ATOM     14  C   UNL     1       2.598   2.253  17.984  0.00  0.00    +0.000 C 
ATOM     15  H   UNL     1       7.992   4.380  13.718  0.00  0.00    +0.000 HD
ATOM     16  H   UNL     1       8.542   5.828  14.470  0.00  0.00    +0.000 HD
ENDROOT
BRANCH   9  17
ATOM     17  C   UNL     1       8.151   8.722  18.075  0.00  0.00    +0.000 A 
ATOM     18  C   UNL     1       8.130   9.958  17.460  0.00  0.00    +0.000 A 
ATOM     19  C   UNL     1       8.928  10.828  18.252  0.00  0.00    +0.000 A 
ATOM     20  C   UNL     1       9.399  10.070  19.298  0.00  0.00    +0.000 A 
ATOM     21  O   UNL     1       8.923   8.805  19.211  0.00  0.00    +0.000 OA
ENDBRANCH   9  17
BRANCH   1  22
ATOM     22  N   UNL     1       3.637   4.597  19.509  0.00  0.00    +0.000 N 
ATOM     23  H   UNL     1       3.431   3.923  20.242  0.00  0.00    +0.000 HD
BRANCH  22  27
ATOM     24  C   UNL     1       1.318   8.076  20.157  0.00  0.00    +0.000 A 
ATOM     25  C   UNL     1       2.145   7.986  19.041  0.00  0.00    +0.000 A 
ATOM     26  C   UNL     1       2.894   6.835  18.801  0.00  0.00    +0.000 A 
ATOM     27  C   UNL     1       2.849   5.757  19.685  0.00  0.00    +0.000 A 
ATOM     28  C   UNL     1       2.010   5.849  20.804  0.00  0.00    +0.000 A 
ATOM     29  C   UNL     1       1.247   7.001  21.041  0.00  0.00    +0.000 A 
BRANCH  24  31
ATOM     30  C   UNL     1       1.080  10.071  21.399  0.00  0.00    +0.000 C 
ATOM     31  O   UNL     1       0.671   9.271  20.298  0.00  0.00    +0.000 OA
ENDBRANCH  24  31
ENDBRANCH  22  27
ENDBRANCH   1  22
TORSDOF 4
ENDMDL
MODEL 4
REMARK VINA RESULT:      -7.3      3.343      4.706
REMARK  Name = 
REMARK  6 active torsions:
REMARK  status: ('A' for Active; 'I' for Inactive)
REMARK    1  A    between atoms: C_1  and  O_2
REMARK    2  A    between atoms: O_2  and  C_3
REMARK    3  A    between atoms: C_6  and  N_7
REMARK    4  A    between atoms: N_7  and  C_8
REMARK    5  A    between atoms: C_16  and  C_17
REMARK    6  A    between atoms: N_25  and  C_26
REMARK                            x       y       z     vdW  Elec       q    Type
REMARK                         _______ _______ _______ _____ _____    ______ ____
ROOT
ATOM      1  C   UNL     1       2.545   7.396  19.030  0.00  0.00    +0.000 A 
ATOM      2  C   UNL     1       3.144   6.177  18.774  0.00  0.00    +0.000 A 
ATOM      3  C   UNL     1       2.774   5.343  19.850  0.00  0.00    +0.000 A 
ATOM      4  N   UNL     1       3.102   3.984  19.983  0.00  0.00    +0.000 NA
ATOM      5  C   UNL     1       3.783   3.467  18.993  0.00  0.00    +0.000 A 
ATOM      6  N   UNL     1       4.121   2.135  18.999  0.00  0.00    +0.000 N 
ATOM      7  N   UNL     1       4.215   4.238  17.890  0.00  0.00    +0.000 N 
ATOM      8  N   UNL     1       4.935   3.724  16.881  0.00  0.00    +0.000 NA
ATOM      9  C   UNL     1       5.127   4.813  16.118  0.00  0.00    +0.000 A 
ATOM     10  N   UNL     1       4.570   5.984  16.623  0.00  0.00    +0.000 NA
ATOM     11  C   UNL     1       3.979   5.572  17.726  0.00  0.00    +0.000 A 
ATOM     12  N   UNL     1       2.033   5.956  20.756  0.00  0.00    +0.000 NA
ATOM     13  N   UNL     1       1.892   7.197  20.244  0.00  0.00    +0.000 N 
ATOM     14  C   UNL     1       0.997   8.104  20.926  0.00  0.00    +0.000 C 
ATOM     15  H   UNL     1       4.124   1.699  19.914  0.00  0.00    +0.000 HD
ATOM     16  H   UNL     1       4.882   1.869  18.376  0.00  0.00    +0.000 HD
ENDROOT
BRANCH   9  17
ATOM     17  C   UNL     1       5.887   4.690  14.833  0.00  0.00    +0.000 A 
ATOM     18  C   UNL     1       5.614   3.860  13.764  0.00  0.00    +0.000 A 
ATOM     19  C   UNL     1       6.617   4.100  12.786  0.00  0.00    +0.000 A 
ATOM     20  C   UNL     1       7.450   5.055  13.318  0.00  0.00    +0.000 A 
ATOM     21  O   UNL     1       7.010   5.430  14.544  0.00  0.00    +0.000 OA
ENDBRANCH   9  17
BRANCH   1  22
ATOM     22  N   UNL     1       2.484   8.594  18.387  0.00  0.00    +0.000 N 
ATOM     23  H   UNL     1       3.330   9.125  18.200  0.00  0.00    +0.000 HD
BRANCH  22  27
ATOM     24  C   UNL     1      -0.809  11.245  18.212  0.00  0.00    +0.000 A 
ATOM     25  C   UNL     1      -0.908   9.972  17.658  0.00  0.00    +0.000 A 
ATOM     26  C   UNL     1       0.160   9.079  17.733  0.00  0.00    +0.000 A 
ATOM     27  C   UNL     1       1.359   9.448  18.343  0.00  0.00    +0.000 A 
ATOM     28  C   UNL     1       1.452  10.729  18.905  0.00  0.00    +0.000 A 
ATOM     29  C   UNL     1       0.376  11.624  18.842  0.00  0.00    +0.000 A 
BRANCH  24  31
ATOM     30  C   UNL     1      -3.023  11.416  17.410  0.00  0.00    +0.000 C 
ATOM     31  O   UNL     1      -1.909  12.036  18.036  0.00  0.00    +0.000 OA
ENDBRANCH  24  31
ENDBRANCH  22  27
ENDBRANCH   1  22
TORSDOF 4
ENDMDL
MODEL 5
REMARK VINA RESULT:      -7.3      7.663     11.661
REMARK  Name = 
REMARK  6 active torsions:
REMARK  status: ('A' for Active; 'I' for Inactive)
REMARK    1  A    between atoms: C_1  and  O_2
REMARK    2  A    between atoms: O_2  and  C_3
REMARK    3  A    between atoms: C_6  and  N_7
REMARK    4  A    between atoms: N_7  and  C_8
REMARK    5  A    between atoms: C_16  and  C_17
REMARK    6  A    between atoms: N_25  and  C_26
REMARK                            x       y       z     vdW  Elec       q    Type
REMARK                         _______ _______ _______ _____ _____    ______ ____
ROOT
ATOM      1  C   UNL     1      -2.853  13.437  22.679  0.00  0.00    +0.000 A 
ATOM      2  C   UNL     1      -3.848  13.205  21.749  0.00  0.00    +0.000 A 
ATOM      3  C   UNL     1      -5.016  13.773  22.297  0.00  0.00    +0.000 A 
ATOM      4  N   UNL     1      -6.272  13.833  21.670  0.00  0.00    +0.000 NA
ATOM      5  C   UNL     1      -6.322  13.338  20.459  0.00  0.00    +0.000 A 
ATOM      6  N   UNL     1      -7.490  13.383  19.736  0.00  0.00    +0.000 N 
ATOM      7  N   UNL     1      -5.204  12.728  19.845  0.00  0.00    +0.000 N 
ATOM      8  N   UNL     1      -5.252  12.196  18.614  0.00  0.00    +0.000 NA
ATOM      9  C   UNL     1      -4.001  11.722  18.488  0.00  0.00    +0.000 A 
ATOM     10  N   UNL     1      -3.187  11.925  19.598  0.00  0.00    +0.000 NA
ATOM     11  C   UNL     1      -3.974  12.587  20.419  0.00  0.00    +0.000 A 
ATOM     12  N   UNL     1      -4.830  14.299  23.495  0.00  0.00    +0.000 NA
ATOM     13  N   UNL     1      -3.512  14.100  23.712  0.00  0.00    +0.000 N 
ATOM     14  C   UNL     1      -2.930  14.696  24.893  0.00  0.00    +0.000 C 
ATOM     15  H   UNL     1      -8.332  13.485  20.290  0.00  0.00    +0.000 HD
ATOM     16  H   UNL     1      -7.548  12.736  18.951  0.00  0.00    +0.000 HD
ENDROOT
BRANCH   9  17
ATOM     17  C   UNL     1      -3.591  11.049  17.214  0.00  0.00    +0.000 A 
ATOM     18  C   UNL     1      -2.734   9.977  17.060  0.00  0.00    +0.000 A 
ATOM     19  C   UNL     1      -2.658   9.706  15.667  0.00  0.00    +0.000 A 
ATOM     20  C   UNL     1      -3.465  10.632  15.051  0.00  0.00    +0.000 A 
ATOM     21  O   UNL     1      -4.046  11.435  15.975  0.00  0.00    +0.000 OA
ENDBRANCH   9  17
BRANCH   1  22
ATOM     22  N   UNL     1      -1.519  13.176  22.749  0.00  0.00    +0.000 N 
ATOM     23  H   UNL     1      -0.840  13.929  22.683  0.00  0.00    +0.000 HD
BRANCH  22  27
ATOM     24  C   UNL     1       0.434   9.545  21.798  0.00  0.00    +0.000 A 
ATOM     25  C   UNL     1      -0.446   9.603  22.875  0.00  0.00    +0.000 A 
ATOM     26  C   UNL     1      -1.117  10.785  23.182  0.00  0.00    +0.000 A 
ATOM     27  C   UNL     1      -0.904  11.943  22.434  0.00  0.00    +0.000 A 
ATOM     28  C   UNL     1      -0.021  11.879  21.347  0.00  0.00    +0.000 A 
ATOM     29  C   UNL     1       0.645  10.688  21.028  0.00  0.00    +0.000 A 
BRANCH  24  31
ATOM     30  C   UNL     1       1.662   8.129  20.361  0.00  0.00    +0.000 C 
ATOM     31  O   UNL     1       1.057   8.341  21.629  0.00  0.00    +0.000 OA
ENDBRANCH  24  31
ENDBRANCH  22  27
ENDBRANCH   1  22
TORSDOF 4
ENDMDL
MODEL 6
REMARK VINA RESULT:      -7.2      5.283      8.730
REMARK  Name = 
REMARK  6 active torsions:
REMARK  status: ('A' for Active; 'I' for Inactive)
REMARK    1  A    between atoms: C_1  and  O_2
REMARK    2  A    between atoms: O_2  and  C_3
REMARK    3  A    between atoms: C_6  and  N_7
REMARK    4  A    between atoms: N_7  and  C_8
REMARK    5  A    between atoms: C_16  and  C_17
REMARK    6  A    between atoms: N_25  and  C_26
REMARK                            x       y       z     vdW  Elec       q    Type
REMARK                         _______ _______ _______ _____ _____    ______ ____
ROOT
ATOM      1  C   UNL     1      -1.948  12.468  20.260  0.00  0.00    +0.000 A 
ATOM      2  C   UNL     1      -1.203  11.541  20.962  0.00  0.00    +0.000 A 
ATOM      3  C   UNL     1      -1.576  11.702  22.313  0.00  0.00    +0.000 A 
ATOM      4  N   UNL     1      -1.118  10.924  23.389  0.00  0.00    +0.000 NA
ATOM      5  C   UNL     1      -0.300   9.951  23.075  0.00  0.00    +0.000 A 
ATOM      6  N   UNL     1       0.175   9.100  24.043  0.00  0.00    +0.000 N 
ATOM      7  N   UNL     1       0.142   9.735  21.750  0.00  0.00    +0.000 N 
ATOM      8  N   UNL     1       1.000   8.757  21.421  0.00  0.00    +0.000 NA
ATOM      9  C   UNL     1       1.141   8.969  20.102  0.00  0.00    +0.000 A 
ATOM     10  N   UNL     1       0.420  10.050  19.605  0.00  0.00    +0.000 NA
ATOM     11  C   UNL     1      -0.219  10.487  20.670  0.00  0.00    +0.000 A 
ATOM     12  N   UNL     1      -2.454  12.672  22.500  0.00  0.00    +0.000 NA
ATOM     13  N   UNL     1      -2.682  13.122  21.248  0.00  0.00    +0.000 N 
ATOM     14  C   UNL     1      -3.724  14.106  21.070  0.00  0.00    +0.000 C 
ATOM     15  H   UNL     1       0.144   9.467  24.987  0.00  0.00    +0.000 HD
ATOM     16  H   UNL     1       1.012   8.575  23.797  0.00  0.00    +0.000 HD
ENDROOT
BRANCH   9  17
ATOM     17  C   UNL     1       2.020   8.060  19.298  0.00  0.00    +0.000 A 
ATOM     18  C   UNL     1       2.513   8.266  18.024  0.00  0.00    +0.000 A 
ATOM     19  C   UNL     1       3.289   7.123  17.691  0.00  0.00    +0.000 A 
ATOM     20  C   UNL     1       3.218   6.281  18.776  0.00  0.00    +0.000 A 
ATOM     21  O   UNL     1       2.470   6.844  19.756  0.00  0.00    +0.000 OA
ENDBRANCH   9  17
BRANCH   1  22
ATOM     22  N   UNL     1      -2.080  12.805  18.948  0.00  0.00    +0.000 N 
ATOM     23  H   UNL     1      -2.143  13.781  18.668  0.00  0.00    +0.000 HD
BRANCH  22  27
ATOM     24  C   UNL     1      -3.756  10.425  15.878  0.00  0.00    +0.000 A 
ATOM     25  C   UNL     1      -2.374  10.490  16.036  0.00  0.00    +0.000 A 
ATOM     26  C   UNL     1      -1.810  11.249  17.060  0.00  0.00    +0.000 A 
ATOM     27  C   UNL     1      -2.615  11.978  17.935  0.00  0.00    +0.000 A 
ATOM     28  C   UNL     1      -4.006  11.905  17.777  0.00  0.00    +0.000 A 
ATOM     29  C   UNL     1      -4.576  11.133  16.755  0.00  0.00    +0.000 A 
BRANCH  24  31
ATOM     30  C   UNL     1      -3.539   9.954  13.574  0.00  0.00    +0.000 C 
ATOM     31  O   UNL     1      -4.178   9.681  14.813  0.00  0.00    +0.000 OA
ENDBRANCH  24  31
ENDBRANCH  22  27
ENDBRANCH   1  22
TORSDOF 4
ENDMDL
MODEL 7
REMARK VINA RESULT:      -7.2      4.260      7.778
REMARK  Name = 
REMARK  6 active torsions:
REMARK  status: ('A' for Active; 'I' for Inactive)
REMARK    1  A    between atoms: C_1  and  O_2
REMARK    2  A    between atoms: O_2  and  C_3
REMARK    3  A    between atoms: C_6  and  N_7
REMARK    4  A    between atoms: N_7  and  C_8
REMARK    5  A    between atoms: C_16  and  C_17
REMARK    6  A    between atoms: N_25  and  C_26
REMARK                            x       y       z     vdW  Elec       q    Type
REMARK                         _______ _______ _______ _____ _____    ______ ____
ROOT
ATOM      1  C   UNL     1       4.174   5.697  18.700  0.00  0.00    +0.000 A 
ATOM      2  C   UNL     1       3.658   4.777  19.592  0.00  0.00    +0.000 A 
ATOM      3  C   UNL     1       2.367   5.245  19.913  0.00  0.00    +0.000 A 
ATOM      4  N   UNL     1       1.441   4.593  20.743  0.00  0.00    +0.000 NA
ATOM      5  C   UNL     1       1.825   3.436  21.218  0.00  0.00    +0.000 A 
ATOM      6  N   UNL     1       0.981   2.690  22.006  0.00  0.00    +0.000 N 
ATOM      7  N   UNL     1       3.111   2.905  20.966  0.00  0.00    +0.000 N 
ATOM      8  N   UNL     1       3.524   1.732  21.469  0.00  0.00    +0.000 NA
ATOM      9  C   UNL     1       4.780   1.675  20.997  0.00  0.00    +0.000 A 
ATOM     10  N   UNL     1       5.167   2.775  20.236  0.00  0.00    +0.000 NA
ATOM     11  C   UNL     1       4.077   3.512  20.217  0.00  0.00    +0.000 A 
ATOM     12  N   UNL     1       2.065   6.389  19.325  0.00  0.00    +0.000 NA
ATOM     13  N   UNL     1       3.163   6.648  18.583  0.00  0.00    +0.000 N 
ATOM     14  C   UNL     1       3.110   7.775  17.680  0.00  0.00    +0.000 C 
ATOM     15  H   UNL     1       0.241   3.216  22.456  0.00  0.00    +0.000 HD
ATOM     16  H   UNL     1       1.427   1.972  22.575  0.00  0.00    +0.000 HD
ENDROOT
BRANCH   9  17
ATOM     17  C   UNL     1       5.632   0.481  21.303  0.00  0.00    +0.000 A 
ATOM     18  C   UNL     1       5.795  -0.661  20.544  0.00  0.00    +0.000 A 
ATOM     19  C   UNL     1       6.692  -1.504  21.252  0.00  0.00    +0.000 A 
ATOM     20  C   UNL     1       7.018  -0.834  22.408  0.00  0.00    +0.000 A 
ATOM     21  O   UNL     1       6.398   0.370  22.440  0.00  0.00    +0.000 OA
ENDBRANCH   9  17
BRANCH   1  22
ATOM     22  N   UNL     1       5.337   5.817  18.004  0.00  0.00    +0.000 N 
ATOM     23  H   UNL     1       5.949   6.616  18.152  0.00  0.00    +0.000 HD
BRANCH  22  27
ATOM     24  C   UNL     1       6.274   4.038  14.281  0.00  0.00    +0.000 A 
ATOM     25  C   UNL     1       5.165   3.604  15.003  0.00  0.00    +0.000 A 
ATOM     26  C   UNL     1       4.830   4.200  16.217  0.00  0.00    +0.000 A 
ATOM     27  C   UNL     1       5.610   5.228  16.748  0.00  0.00    +0.000 A 
ATOM     28  C   UNL     1       6.721   5.666  16.016  0.00  0.00    +0.000 A 
ATOM     29  C   UNL     1       7.054   5.076  14.788  0.00  0.00    +0.000 A 
BRANCH  24  31
ATOM     30  C   UNL     1       5.505   3.422  12.135  0.00  0.00    +0.000 C 
ATOM     31  O   UNL     1       6.517   3.345  13.129  0.00  0.00    +0.000 OA
ENDBRANCH  24  31
ENDBRANCH  22  27
ENDBRANCH   1  22
TORSDOF 4
ENDMDL
MODEL 8
REMARK VINA RESULT:      -7.1      7.546     11.167
REMARK  Name = 
REMARK  6 active torsions:
REMARK  status: ('A' for Active; 'I' for Inactive)
REMARK    1  A    between atoms: C_1  and  O_2
REMARK    2  A    between atoms: O_2  and  C_3
REMARK    3  A    between atoms: C_6  and  N_7
REMARK    4  A    between atoms: N_7  and  C_8
REMARK    5  A    between atoms: C_16  and  C_17
REMARK    6  A    between atoms: N_25  and  C_26
REMARK                            x       y       z     vdW  Elec       q    Type
REMARK                         _______ _______ _______ _____ _____    ______ ____
ROOT
ATOM      1  C   UNL     1      -2.911  11.529  17.398  0.00  0.00    +0.000 A 
ATOM      2  C   UNL     1      -3.975  11.695  18.264  0.00  0.00    +0.000 A 
ATOM      3  C   UNL     1      -5.114  11.274  17.547  0.00  0.00    +0.000 A 
ATOM      4  N   UNL     1      -6.423  11.207  18.054  0.00  0.00    +0.000 NA
ATOM      5  C   UNL     1      -6.559  11.539  19.312  0.00  0.00    +0.000 A 
ATOM      6  N   UNL     1      -7.788  11.468  19.922  0.00  0.00    +0.000 N 
ATOM      7  N   UNL     1      -5.474  11.994  20.095  0.00  0.00    +0.000 N 
ATOM      8  N   UNL     1      -5.608  12.360  21.379  0.00  0.00    +0.000 NA
ATOM      9  C   UNL     1      -4.352  12.738  21.673  0.00  0.00    +0.000 A 
ATOM     10  N   UNL     1      -3.451  12.636  20.618  0.00  0.00    +0.000 NA
ATOM     11  C   UNL     1      -4.192  12.136  19.651  0.00  0.00    +0.000 A 
ATOM     12  N   UNL     1      -4.844  10.902  16.309  0.00  0.00    +0.000 NA
ATOM     13  N   UNL     1      -3.504  11.050  16.232  0.00  0.00    +0.000 N 
ATOM     14  C   UNL     1      -2.847  10.582  15.033  0.00  0.00    +0.000 C 
ATOM     15  H   UNL     1      -8.581  11.490  19.291  0.00  0.00    +0.000 HD
ATOM     16  H   UNL     1      -7.887  12.007  20.781  0.00  0.00    +0.000 HD
ENDROOT
BRANCH   9  17
ATOM     17  C   UNL     1      -4.029  13.211  23.058  0.00  0.00    +0.000 A 
ATOM     18  C   UNL     1      -4.346  12.603  24.256  0.00  0.00    +0.000 A 
ATOM     19  C   UNL     1      -3.831  13.432  25.290  0.00  0.00    +0.000 A 
ATOM     20  C   UNL     1      -3.238  14.502  24.663  0.00  0.00    +0.000 A 
ATOM     21  O   UNL     1      -3.337  14.370  23.318  0.00  0.00    +0.000 OA
ENDBRANCH   9  17
BRANCH   1  22
ATOM     22  N   UNL     1      -1.566  11.718  17.476  0.00  0.00    +0.000 N 
ATOM     23  H   UNL     1      -1.001  11.770  16.632  0.00  0.00    +0.000 HD
BRANCH  22  27
ATOM     24  C   UNL     1       0.834  10.835  20.846  0.00  0.00    +0.000 A 
ATOM     25  C   UNL     1       0.022   9.850  20.290  0.00  0.00    +0.000 A 
ATOM     26  C   UNL     1      -0.753  10.120  19.164  0.00  0.00    +0.000 A 
ATOM     27  C   UNL     1      -0.750  11.388  18.582  0.00  0.00    +0.000 A 
ATOM     28  C   UNL     1       0.073  12.375  19.141  0.00  0.00    +0.000 A 
ATOM     29  C   UNL     1       0.862  12.102  20.267  0.00  0.00    +0.000 A 
BRANCH  24  31
ATOM     30  C   UNL     1       1.300   9.116  22.398  0.00  0.00    +0.000 C 
ATOM     31  O   UNL     1       1.510  10.455  21.971  0.00  0.00    +0.000 OA
ENDBRANCH  24  31
ENDBRANCH  22  27
ENDBRANCH   1  22
TORSDOF 4
ENDMDL
MODEL 9
REMARK VINA RESULT:      -7.1      1.705      6.417
REMARK  Name = 
REMARK  6 active torsions:
REMARK  status: ('A' for Active; 'I' for Inactive)
REMARK    1  A    between atoms: C_1  and  O_2
REMARK    2  A    between atoms: O_2  and  C_3
REMARK    3  A    between atoms: C_6  and  N_7
REMARK    4  A    between atoms: N_7  and  C_8
REMARK    5  A    between atoms: C_16  and  C_17
REMARK    6  A    between atoms: N_25  and  C_26
REMARK                            x       y       z     vdW  Elec       q    Type
REMARK                         _______ _______ _______ _____ _____    ______ ____
ROOT
ATOM      1  C   UNL     1       4.574   5.162  17.107  0.00  0.00    +0.000 A 
ATOM      2  C   UNL     1       3.579   4.994  18.052  0.00  0.00    +0.000 A 
ATOM      3  C   UNL     1       3.369   3.602  18.135  0.00  0.00    +0.000 A 
ATOM      4  N   UNL     1       2.487   2.957  19.018  0.00  0.00    +0.000 NA
ATOM      5  C   UNL     1       1.842   3.741  19.844  0.00  0.00    +0.000 A 
ATOM      6  N   UNL     1       0.986   3.213  20.780  0.00  0.00    +0.000 N 
ATOM      7  N   UNL     1       1.976   5.147  19.811  0.00  0.00    +0.000 N 
ATOM      8  N   UNL     1       1.301   5.962  20.637  0.00  0.00    +0.000 NA
ATOM      9  C   UNL     1       1.720   7.166  20.214  0.00  0.00    +0.000 A 
ATOM     10  N   UNL     1       2.613   7.130  19.148  0.00  0.00    +0.000 NA
ATOM     11  C   UNL     1       2.771   5.839  18.944  0.00  0.00    +0.000 A 
ATOM     12  N   UNL     1       4.121   2.909  17.298  0.00  0.00    +0.000 NA
ATOM     13  N   UNL     1       4.856   3.864  16.688  0.00  0.00    +0.000 N 
ATOM     14  C   UNL     1       5.909   3.430  15.798  0.00  0.00    +0.000 C 
ATOM     15  H   UNL     1       0.638   2.285  20.566  0.00  0.00    +0.000 HD
ATOM     16  H   UNL     1       0.308   3.863  21.176  0.00  0.00    +0.000 HD
ENDROOT
BRANCH   9  17
ATOM     17  C   UNL     1       1.222   8.403  20.898  0.00  0.00    +0.000 A 
ATOM     18  C   UNL     1       0.476   9.429  20.354  0.00  0.00    +0.000 A 
ATOM     19  C   UNL     1       0.256  10.375  21.391  0.00  0.00    +0.000 A 
ATOM     20  C   UNL     1       0.888   9.877  22.506  0.00  0.00    +0.000 A 
ATOM     21  O   UNL     1       1.459   8.681  22.224  0.00  0.00    +0.000 OA
ENDBRANCH   9  17
BRANCH   1  22
ATOM     22  N   UNL     1       5.243   6.228  16.590  0.00  0.00    +0.000 N 
ATOM     23  H   UNL     1       5.327   6.347  15.584  0.00  0.00    +0.000 HD
BRANCH  22  27
ATOM     24  C   UNL     1       8.350   8.350  18.525  0.00  0.00    +0.000 A 
ATOM     25  C   UNL     1       7.468   9.019  17.682  0.00  0.00    +0.000 A 
ATOM     26  C   UNL     1       6.423   8.337  17.059  0.00  0.00    +0.000 A 
ATOM     27  C   UNL     1       6.252   6.966  17.249  0.00  0.00    +0.000 A 
ATOM     28  C   UNL     1       7.139   6.297  18.104  0.00  0.00    +0.000 A 
ATOM     29  C   UNL     1       8.182   6.983  18.740  0.00  0.00    +0.000 A 
BRANCH  24  31
ATOM     30  C   UNL     1       9.265  10.514  18.763  0.00  0.00    +0.000 C 
ATOM     31  O   UNL     1       9.352   9.123  19.039  0.00  0.00    +0.000 OA
ENDBRANCH  24  31
ENDBRANCH  22  27
ENDBRANCH   1  22
TORSDOF 4
ENDMDL
