MODEL 1
REMARK VINA RESULT:      -8.4      0.000      0.000
REMARK  Name = 
REMARK  4 active torsions:
REMARK  status: ('A' for Active; 'I' for Inactive)
REMARK    1  A    between atoms: C_7  and  C_8
REMARK    2  A    between atoms: N_21  and  C_22
REMARK    3  A    between atoms: C_22  and  C_23
REMARK    4  A    between atoms: C_23  and  N_24
REMARK                            x       y       z     vdW  Elec       q    Type
REMARK                         _______ _______ _______ _____ _____    ______ ____
ROOT
ATOM      1  O   UNL     1      -0.262  10.640  23.199  0.00  0.00    +0.000 OA
ATOM      2  C   UNL     1       0.017  10.982  22.053  0.00  0.00    +0.000 A 
ATOM      3  C   UNL     1       0.614   9.995  21.137  0.00  0.00    +0.000 A 
ATOM      4  C   UNL     1       0.846   8.593  21.550  0.00  0.00    +0.000 A 
ATOM      5  N   UNL     1       1.371   7.664  20.813  0.00  0.00    +0.000 NA
ATOM      6  C   UNL     1       1.743   8.036  19.548  0.00  0.00    +0.000 A 
ATOM      7  C   UNL     1       2.332   7.323  18.519  0.00  0.00    +0.000 A 
ATOM      8  C   UNL     1       2.447   8.258  17.471  0.00  0.00    +0.000 A 
ATOM      9  N   UNL     1       1.992   9.470  17.788  0.00  0.00    +0.000 NA
ATOM     10  N   UNL     1       1.557   9.345  19.071  0.00  0.00    +0.000 N 
ATOM     11  C   UNL     1       0.988  10.331  19.892  0.00  0.00    +0.000 A 
ATOM     12  C   UNL     1       0.806  11.701  19.449  0.00  0.00    +0.000 A 
ATOM     13  C   UNL     1       0.254  12.608  20.268  0.00  0.00    +0.000 A 
ATOM     14  N   UNL     1      -0.181  12.271  21.532  0.00  0.00    +0.000 N 
ENDROOT
BRANCH   7  15
ATOM     15  C   UNL     1       2.714   5.920  18.582  0.00  0.00    +0.000 A 
ATOM     16  C   UNL     1       1.913   4.942  17.975  0.00  0.00    +0.000 A 
ATOM     17  C   UNL     1       2.283   3.593  18.019  0.00  0.00    +0.000 A 
ATOM     18  C   UNL     1       3.454   3.212  18.672  0.00  0.00    +0.000 A 
ATOM     19 CL   UNL     1       3.912   1.556  18.716  0.00  0.00    +0.000 Cl
ATOM     20  C   UNL     1       4.257   4.168  19.287  0.00  0.00    +0.000 A 
ATOM     21  C   UNL     1       3.888   5.513  19.237  0.00  0.00    +0.000 A 
ENDBRANCH   7  15
BRANCH  14  22
ATOM     22  C   UNL     1      -0.645  13.262  22.498  0.00  0.00    +0.000 C 
BRANCH  22  23
ATOM     23  C   UNL     1      -2.091  13.796  22.412  0.00  0.00    +0.000 C 
BRANCH  23  24
ATOM     24  N   UNL     1      -3.029  12.669  22.460  0.00  0.00    +0.000 NA
ATOM     25  C   UNL     1      -4.239  12.791  21.625  0.00  0.00    +0.000 C 
ATOM     26  C   UNL     1      -5.526  13.225  22.342  0.00  0.00    +0.000 C 
ATOM     27  O   UNL     1      -5.739  12.490  23.547  0.00  0.00    +0.000 OA
ATOM     28  C   UNL     1      -4.627  12.680  24.427  0.00  0.00    +0.000 C 
ATOM     29  C   UNL     1      -3.333  12.150  23.799  0.00  0.00    +0.000 C 
ENDBRANCH  23  24
ENDBRANCH  22  23
ENDBRANCH  14  22
TORSDOF 4
ENDMDL
MODEL 2
REMARK VINA RESULT:      -8.3      4.491      9.818
REMARK  Name = 
REMARK  4 active torsions:
REMARK  status: ('A' for Active; 'I' for Inactive)
REMARK    1  A    between atoms: C_7  and  C_8
REMARK    2  A    between atoms: N_21  and  C_22
REMARK    3  A    between atoms: C_22  and  C_23
REMARK    4  A    between atoms: C_23  and  N_24
REMARK                            x       y       z     vdW  Elec       q    Type
REMARK                         _______ _______ _______ _____ _____    ______ ____
ROOT
ATOM      1  O   UNL     1       2.711   5.038  20.582  0.00  0.00    +0.000 OA
ATOM      2  C   UNL     1       2.857   5.900  19.720  0.00  0.00    +0.000 A 
ATOM      3  C   UNL     1       2.115   7.167  19.844  0.00  0.00    +0.000 A 
ATOM      4  C   UNL     1       1.233   7.441  21.001  0.00  0.00    +0.000 A 
ATOM      5  N   UNL     1       0.541   8.522  21.185  0.00  0.00    +0.000 NA
ATOM      6  C   UNL     1       0.642   9.477  20.208  0.00  0.00    +0.000 A 
ATOM      7  C   UNL     1       0.046  10.718  20.075  0.00  0.00    +0.000 A 
ATOM      8  C   UNL     1       0.563  11.223  18.865  0.00  0.00    +0.000 A 
ATOM      9  N   UNL     1       1.403  10.387  18.257  0.00  0.00    +0.000 NA
ATOM     10  N   UNL     1       1.457   9.302  19.077  0.00  0.00    +0.000 N 
ATOM     11  C   UNL     1       2.195   8.121  18.902  0.00  0.00    +0.000 A 
ATOM     12  C   UNL     1       3.025   7.888  17.735  0.00  0.00    +0.000 A 
ATOM     13  C   UNL     1       3.715   6.745  17.614  0.00  0.00    +0.000 A 
ATOM     14  N   UNL     1       3.684   5.774  18.593  0.00  0.00    +0.000 N 
ENDROOT
BRANCH   7  15
ATOM     15  C   UNL     1      -0.892  11.304  21.021  0.00  0.00    +0.000 A 
ATOM     16  C   UNL     1      -1.914  12.151  20.571  0.00  0.00    +0.000 A 
ATOM     17  C   UNL     1      -2.828  12.704  21.474  0.00  0.00    +0.000 A 
ATOM     18  C   UNL     1      -2.725  12.418  22.835  0.00  0.00    +0.000 A 
ATOM     19 CL   UNL     1      -3.855  13.091  23.942  0.00  0.00    +0.000 Cl
ATOM     20  C   UNL     1      -1.712  11.586  23.300  0.00  0.00    +0.000 A 
ATOM     21  C   UNL     1      -0.805  11.030  22.397  0.00  0.00    +0.000 A 
ENDBRANCH   7  15
BRANCH  14  22
ATOM     22  C   UNL     1       4.299   4.462  18.423  0.00  0.00    +0.000 C 
BRANCH  22  23
ATOM     23  C   UNL     1       4.412   3.845  17.013  0.00  0.00    +0.000 C 
BRANCH  23  24
ATOM     24  N   UNL     1       5.827   3.750  16.635  0.00  0.00    +0.000 NA
ATOM     25  C   UNL     1       6.765   4.590  17.404  0.00  0.00    +0.000 C 
ATOM     26  C   UNL     1       7.209   5.903  16.744  0.00  0.00    +0.000 C 
ATOM     27  O   UNL     1       7.602   5.711  15.385  0.00  0.00    +0.000 OA
ATOM     28  C   UNL     1       6.509   5.161  14.643  0.00  0.00    +0.000 C 
ATOM     29  C   UNL     1       6.106   3.788  15.195  0.00  0.00    +0.000 C 
ENDBRANCH  23  24
ENDBRANCH  22  23
ENDBRANCH  14  22
TORSDOF 4
ENDMDL
MODEL 3
REMARK VINA RESULT:      -8.2      4.629     10.120
REMARK  Name = 
REMARK  4 active torsions:
REMARK  status: ('A' for Active; 'I' for Inactive)
REMARK    1  A    between atoms: C_7  and  C_8
REMARK    2  A    between atoms: N_21  and  C_22
REMARK    3  A    between atoms: C_22  and  C_23
REMARK    4  A    between atoms: C_23  and  N_24
REMARK                            x       y       z     vdW  Elec       q    Type
REMARK                         _______ _______ _______ _____ _____    ______ ____
ROOT
ATOM      1  O   UNL     1       2.119   9.500  17.253  0.00  0.00    +0.000 OA
ATOM      2  C   UNL     1       1.939   8.897  18.307  0.00  0.00    +0.000 A 
ATOM      3  C   UNL     1       1.139   9.533  19.368  0.00  0.00    +0.000 A 
ATOM      4  C   UNL     1       0.512  10.860  19.177  0.00  0.00    +0.000 A 
ATOM      5  N   UNL     1      -0.200  11.494  20.057  0.00  0.00    +0.000 NA
ATOM      6  C   UNL     1      -0.367  10.866  21.263  0.00  0.00    +0.000 A 
ATOM      7  C   UNL     1      -1.040  11.249  22.410  0.00  0.00    +0.000 A 
ATOM      8  C   UNL     1      -0.856  10.169  23.297  0.00  0.00    +0.000 A 
ATOM      9  N   UNL     1      -0.120   9.182  22.786  0.00  0.00    +0.000 NA
ATOM     10  N   UNL     1       0.191   9.604  21.530  0.00  0.00    +0.000 N 
ATOM     11  C   UNL     1       0.959   8.941  20.560  0.00  0.00    +0.000 A 
ATOM     12  C   UNL     1       1.576   7.651  20.806  0.00  0.00    +0.000 A 
ATOM     13  C   UNL     1       2.298   7.055  19.846  0.00  0.00    +0.000 A 
ATOM     14  N   UNL     1       2.455   7.624  18.600  0.00  0.00    +0.000 N 
ENDROOT
BRANCH   7  15
ATOM     15  C   UNL     1      -1.759  12.503  22.581  0.00  0.00    +0.000 A 
ATOM     16  C   UNL     1      -3.069  12.638  22.099  0.00  0.00    +0.000 A 
ATOM     17  C   UNL     1      -3.770  13.835  22.275  0.00  0.00    +0.000 A 
ATOM     18  C   UNL     1      -3.167  14.907  22.931  0.00  0.00    +0.000 A 
ATOM     19 CL   UNL     1      -4.035  16.374  23.155  0.00  0.00    +0.000 Cl
ATOM     20  C   UNL     1      -1.866  14.794  23.409  0.00  0.00    +0.000 A 
ATOM     21  C   UNL     1      -1.169  13.596  23.237  0.00  0.00    +0.000 A 
ENDBRANCH   7  15
BRANCH  14  22
ATOM     22  C   UNL     1       3.354   7.076  17.589  0.00  0.00    +0.000 C 
BRANCH  22  23
ATOM     23  C   UNL     1       4.408   6.023  17.992  0.00  0.00    +0.000 C 
BRANCH  23  24
ATOM     24  N   UNL     1       5.658   6.284  17.267  0.00  0.00    +0.000 NA
ATOM     25  C   UNL     1       5.771   5.684  15.925  0.00  0.00    +0.000 C 
ATOM     26  C   UNL     1       6.585   4.386  15.820  0.00  0.00    +0.000 C 
ATOM     27  O   UNL     1       7.833   4.482  16.507  0.00  0.00    +0.000 OA
ATOM     28  C   UNL     1       7.599   4.778  17.887  0.00  0.00    +0.000 C 
ATOM     29  C   UNL     1       6.891   6.128  18.047  0.00  0.00    +0.000 C 
ENDBRANCH  23  24
ENDBRANCH  22  23
ENDBRANCH  14  22
TORSDOF 4
ENDMDL
MODEL 4
REMARK VINA RESULT:      -8.0      2.256      2.971
REMARK  Name = 
REMARK  4 active torsions:
REMARK  status: ('A' for Active; 'I' for Inactive)
REMARK    1  A    between atoms: C_7  and  C_8
REMARK    2  A    between atoms: N_21  and  C_22
REMARK    3  A    between atoms: C_22  and  C_23
REMARK    4  A    between atoms: C_23  and  N_24
REMARK                            x       y       z     vdW  Elec       q    Type
REMARK                         _______ _______ _______ _____ _____    ______ ____
ROOT
ATOM      1  O   UNL     1       0.086  11.537  19.082  0.00  0.00    +0.000 OA
ATOM      2  C   UNL     1       0.222  10.636  19.904  0.00  0.00    +0.000 A 
ATOM      3  C   UNL     1       1.033   9.459  19.547  0.00  0.00    +0.000 A 
ATOM      4  C   UNL     1       1.722   9.358  18.241  0.00  0.00    +0.000 A 
ATOM      5  N   UNL     1       2.448   8.359  17.844  0.00  0.00    +0.000 NA
ATOM      6  C   UNL     1       2.568   7.314  18.721  0.00  0.00    +0.000 A 
ATOM      7  C   UNL     1       3.239   6.109  18.625  0.00  0.00    +0.000 A 
ATOM      8  C   UNL     1       2.994   5.475  19.859  0.00  0.00    +0.000 A 
ATOM      9  N   UNL     1       2.223   6.188  20.679  0.00  0.00    +0.000 NA
ATOM     10  N   UNL     1       1.951   7.327  19.984  0.00  0.00    +0.000 N 
ATOM     11  C   UNL     1       1.169   8.420  20.388  0.00  0.00    +0.000 A 
ATOM     12  C   UNL     1       0.490   8.460  21.670  0.00  0.00    +0.000 A 
ATOM     13  C   UNL     1      -0.243   9.529  22.012  0.00  0.00    +0.000 A 
ATOM     14  N   UNL     1      -0.354  10.626  21.184  0.00  0.00    +0.000 N 
ENDROOT
BRANCH   7  15
ATOM     15  C   UNL     1       4.011   5.669  17.472  0.00  0.00    +0.000 A 
ATOM     16  C   UNL     1       4.710   6.601  16.692  0.00  0.00    +0.000 A 
ATOM     17  C   UNL     1       5.467   6.182  15.592  0.00  0.00    +0.000 A 
ATOM     18  C   UNL     1       5.528   4.829  15.262  0.00  0.00    +0.000 A 
ATOM     19 CL   UNL     1       6.466   4.315  13.916  0.00  0.00    +0.000 Cl
ATOM     20  C   UNL     1       4.834   3.891  16.019  0.00  0.00    +0.000 A 
ATOM     21  C   UNL     1       4.085   4.311  17.120  0.00  0.00    +0.000 A 
ENDBRANCH   7  15
BRANCH  14  22
ATOM     22  C   UNL     1      -1.261  11.735  21.460  0.00  0.00    +0.000 C 
BRANCH  22  23
ATOM     23  C   UNL     1      -1.779  11.962  22.897  0.00  0.00    +0.000 C 
BRANCH  23  24
ATOM     24  N   UNL     1      -3.237  12.121  22.869  0.00  0.00    +0.000 NA
ATOM     25  C   UNL     1      -3.798  12.790  21.680  0.00  0.00    +0.000 C 
ATOM     26  C   UNL     1      -4.156  14.276  21.834  0.00  0.00    +0.000 C 
ATOM     27  O   UNL     1      -4.896  14.525  23.029  0.00  0.00    +0.000 OA
ATOM     28  C   UNL     1      -4.131  14.108  24.163  0.00  0.00    +0.000 C 
ATOM     29  C   UNL     1      -3.850  12.601  24.113  0.00  0.00    +0.000 C 
ENDBRANCH  23  24
ENDBRANCH  22  23
ENDBRANCH  14  22
TORSDOF 4
ENDMDL
MODEL 5
REMARK VINA RESULT:      -8.0      2.335      3.052
REMARK  Name = 
REMARK  4 active torsions:
REMARK  status: ('A' for Active; 'I' for Inactive)
REMARK    1  A    between atoms: C_7  and  C_8
REMARK    2  A    between atoms: N_21  and  C_22
REMARK    3  A    between atoms: C_22  and  C_23
REMARK    4  A    between atoms: C_23  and  N_24
REMARK                            x       y       z     vdW  Elec       q    Type
REMARK                         _______ _______ _______ _____ _____    ______ ____
ROOT
ATOM      1  O   UNL     1       0.093  11.748  18.511  0.00  0.00    +0.000 OA
ATOM      2  C   UNL     1       0.218  10.915  19.403  0.00  0.00    +0.000 A 
ATOM      3  C   UNL     1       1.036   9.715  19.151  0.00  0.00    +0.000 A 
ATOM      4  C   UNL     1       1.742   9.512  17.866  0.00  0.00    +0.000 A 
ATOM      5  N   UNL     1       2.474   8.487  17.559  0.00  0.00    +0.000 NA
ATOM      6  C   UNL     1       2.583   7.514  18.518  0.00  0.00    +0.000 A 
ATOM      7  C   UNL     1       3.257   6.306  18.525  0.00  0.00    +0.000 A 
ATOM      8  C   UNL     1       2.995   5.771  19.802  0.00  0.00    +0.000 A 
ATOM      9  N   UNL     1       2.212   6.545  20.552  0.00  0.00    +0.000 NA
ATOM     10  N   UNL     1       1.949   7.625  19.767  0.00  0.00    +0.000 N 
ATOM     11  C   UNL     1       1.161   8.746  20.073  0.00  0.00    +0.000 A 
ATOM     12  C   UNL     1       0.465   8.885  21.339  0.00  0.00    +0.000 A 
ATOM     13  C   UNL     1      -0.273   9.976  21.586  0.00  0.00    +0.000 A 
ATOM     14  N   UNL     1      -0.375  11.004  20.673  0.00  0.00    +0.000 N 
ENDROOT
BRANCH   7  15
ATOM     15  C   UNL     1       4.044   5.779  17.420  0.00  0.00    +0.000 A 
ATOM     16  C   UNL     1       4.105   4.397  17.192  0.00  0.00    +0.000 A 
ATOM     17  C   UNL     1       4.848   3.885  16.123  0.00  0.00    +0.000 A 
ATOM     18  C   UNL     1       5.537   4.751  15.275  0.00  0.00    +0.000 A 
ATOM     19 CL   UNL     1       6.442   4.120  13.956  0.00  0.00    +0.000 Cl
ATOM     20  C   UNL     1       5.495   6.124  15.491  0.00  0.00    +0.000 A 
ATOM     21  C   UNL     1       4.749   6.633  16.555  0.00  0.00    +0.000 A 
ENDBRANCH   7  15
BRANCH  14  22
ATOM     22  C   UNL     1      -1.286  12.130  20.849  0.00  0.00    +0.000 C 
BRANCH  22  23
ATOM     23  C   UNL     1      -0.862  13.330  21.722  0.00  0.00    +0.000 C 
BRANCH  23  24
ATOM     24  N   UNL     1      -1.329  13.120  23.097  0.00  0.00    +0.000 NA
ATOM     25  C   UNL     1      -2.526  12.272  23.257  0.00  0.00    +0.000 C 
ATOM     26  C   UNL     1      -3.861  13.001  23.462  0.00  0.00    +0.000 C 
ATOM     27  O   UNL     1      -3.761  14.032  24.444  0.00  0.00    +0.000 OA
ATOM     28  C   UNL     1      -2.767  14.981  24.044  0.00  0.00    +0.000 C 
ATOM     29  C   UNL     1      -1.387  14.319  23.941  0.00  0.00    +0.000 C 
ENDBRANCH  23  24
ENDBRANCH  22  23
ENDBRANCH  14  22
TORSDOF 4
ENDMDL
MODEL 6
REMARK VINA RESULT:      -8.0      4.404      9.821
REMARK  Name = 
REMARK  4 active torsions:
REMARK  status: ('A' for Active; 'I' for Inactive)
REMARK    1  A    between atoms: C_7  and  C_8
REMARK    2  A    between atoms: N_21  and  C_22
REMARK    3  A    between atoms: C_22  and  C_23
REMARK    4  A    between atoms: C_23  and  N_24
REMARK                            x       y       z     vdW  Elec       q    Type
REMARK                         _______ _______ _______ _____ _____    ______ ____
ROOT
ATOM      1  O   UNL     1       2.016   6.223  20.761  0.00  0.00    +0.000 OA
ATOM      2  C   UNL     1       2.071   7.099  19.902  0.00  0.00    +0.000 A 
ATOM      3  C   UNL     1       1.454   8.409  20.176  0.00  0.00    +0.000 A 
ATOM      4  C   UNL     1       0.809   8.707  21.475  0.00  0.00    +0.000 A 
ATOM      5  N   UNL     1       0.238   9.826  21.796  0.00  0.00    +0.000 NA
ATOM      6  C   UNL     1       0.236  10.801  20.834  0.00  0.00    +0.000 A 
ATOM      7  C   UNL     1      -0.284  12.083  20.829  0.00  0.00    +0.000 A 
ATOM      8  C   UNL     1       0.050  12.587  19.555  0.00  0.00    +0.000 A 
ATOM      9  N   UNL     1       0.710  11.715  18.795  0.00  0.00    +0.000 NA
ATOM     10  N   UNL     1       0.828  10.605  19.574  0.00  0.00    +0.000 N 
ATOM     11  C   UNL     1       1.437   9.383  19.251  0.00  0.00    +0.000 A 
ATOM     12  C   UNL     1       2.033   9.130  17.953  0.00  0.00    +0.000 A 
ATOM     13  C   UNL     1       2.608   7.946  17.693  0.00  0.00    +0.000 A 
ATOM     14  N   UNL     1       2.678   6.951  18.645  0.00  0.00    +0.000 N 
ENDROOT
BRANCH   7  15
ATOM     15  C   UNL     1      -0.998  12.702  21.935  0.00  0.00    +0.000 A 
ATOM     16  C   UNL     1      -0.459  13.820  22.587  0.00  0.00    +0.000 A 
ATOM     17  C   UNL     1      -1.150  14.429  23.640  0.00  0.00    +0.000 A 
ATOM     18  C   UNL     1      -2.382  13.924  24.052  0.00  0.00    +0.000 A 
ATOM     19 CL   UNL     1      -3.233  14.679  25.341  0.00  0.00    +0.000 Cl
ATOM     20  C   UNL     1      -2.928  12.810  23.422  0.00  0.00    +0.000 A 
ATOM     21  C   UNL     1      -2.240  12.207  22.367  0.00  0.00    +0.000 A 
ENDBRANCH   7  15
BRANCH  14  22
ATOM     22  C   UNL     1       3.160   5.606  18.347  0.00  0.00    +0.000 C 
BRANCH  22  23
ATOM     23  C   UNL     1       4.570   5.179  18.806  0.00  0.00    +0.000 C 
BRANCH  23  24
ATOM     24  N   UNL     1       5.573   5.777  17.916  0.00  0.00    +0.000 NA
ATOM     25  C   UNL     1       5.476   5.417  16.489  0.00  0.00    +0.000 C 
ATOM     26  C   UNL     1       6.436   4.328  15.990  0.00  0.00    +0.000 C 
ATOM     27  O   UNL     1       7.774   4.554  16.429  0.00  0.00    +0.000 OA
ATOM     28  C   UNL     1       7.810   4.589  17.859  0.00  0.00    +0.000 C 
ATOM     29  C   UNL     1       6.957   5.742  18.401  0.00  0.00    +0.000 C 
ENDBRANCH  23  24
ENDBRANCH  22  23
ENDBRANCH  14  22
TORSDOF 4
ENDMDL
MODEL 7
REMARK VINA RESULT:      -7.9      4.433      9.931
REMARK  Name = 
REMARK  4 active torsions:
REMARK  status: ('A' for Active; 'I' for Inactive)
REMARK    1  A    between atoms: C_7  and  C_8
REMARK    2  A    between atoms: N_21  and  C_22
REMARK    3  A    between atoms: C_22  and  C_23
REMARK    4  A    between atoms: C_23  and  N_24
REMARK                            x       y       z     vdW  Elec       q    Type
REMARK                         _______ _______ _______ _____ _____    ______ ____
ROOT
ATOM      1  O   UNL     1       2.111   6.210  20.850  0.00  0.00    +0.000 OA
ATOM      2  C   UNL     1       2.146   7.068  19.972  0.00  0.00    +0.000 A 
ATOM      3  C   UNL     1       1.494   8.366  20.214  0.00  0.00    +0.000 A 
ATOM      4  C   UNL     1       0.838   8.677  21.504  0.00  0.00    +0.000 A 
ATOM      5  N   UNL     1       0.238   9.788  21.799  0.00  0.00    +0.000 NA
ATOM      6  C   UNL     1       0.212  10.740  20.814  0.00  0.00    +0.000 A 
ATOM      7  C   UNL     1      -0.341  12.008  20.778  0.00  0.00    +0.000 A 
ATOM      8  C   UNL     1      -0.017  12.492  19.495  0.00  0.00    +0.000 A 
ATOM      9  N   UNL     1       0.668  11.619  18.756  0.00  0.00    +0.000 NA
ATOM     10  N   UNL     1       0.812  10.531  19.560  0.00  0.00    +0.000 N 
ATOM     11  C   UNL     1       1.455   9.318  19.267  0.00  0.00    +0.000 A 
ATOM     12  C   UNL     1       2.060   9.051  17.976  0.00  0.00    +0.000 A 
ATOM     13  C   UNL     1       2.666   7.878  17.745  0.00  0.00    +0.000 A 
ATOM     14  N   UNL     1       2.760   6.907  18.720  0.00  0.00    +0.000 N 
ENDROOT
BRANCH   7  15
ATOM     15  C   UNL     1      -1.074  12.633  21.869  0.00  0.00    +0.000 A 
ATOM     16  C   UNL     1      -0.518  13.715  22.566  0.00  0.00    +0.000 A 
ATOM     17  C   UNL     1      -1.225  14.330  23.605  0.00  0.00    +0.000 A 
ATOM     18  C   UNL     1      -2.493  13.867  23.955  0.00  0.00    +0.000 A 
ATOM     19 CL   UNL     1      -3.364  14.631  25.225  0.00  0.00    +0.000 Cl
ATOM     20  C   UNL     1      -3.057  12.791  23.280  0.00  0.00    +0.000 A 
ATOM     21  C   UNL     1      -2.352  12.182  22.240  0.00  0.00    +0.000 A 
ENDBRANCH   7  15
BRANCH  14  22
ATOM     22  C   UNL     1       3.277   5.568  18.454  0.00  0.00    +0.000 C 
BRANCH  22  23
ATOM     23  C   UNL     1       3.952   5.263  17.099  0.00  0.00    +0.000 C 
BRANCH  23  24
ATOM     24  N   UNL     1       5.012   4.267  17.298  0.00  0.00    +0.000 NA
ATOM     25  C   UNL     1       5.972   4.544  18.384  0.00  0.00    +0.000 C 
ATOM     26  C   UNL     1       7.323   5.143  17.968  0.00  0.00    +0.000 C 
ATOM     27  O   UNL     1       7.899   4.445  16.865  0.00  0.00    +0.000 OA
ATOM     28  C   UNL     1       7.005   4.490  15.749  0.00  0.00    +0.000 C 
ATOM     29  C   UNL     1       5.679   3.795  16.080  0.00  0.00    +0.000 C 
ENDBRANCH  23  24
ENDBRANCH  22  23
ENDBRANCH  14  22
TORSDOF 4
ENDMDL
MODEL 8
REMARK VINA RESULT:      -7.9      4.290      9.664
REMARK  Name = 
REMARK  4 active torsions:
REMARK  status: ('A' for Active; 'I' for Inactive)
REMARK    1  A    between atoms: C_7  and  C_8
REMARK    2  A    between atoms: N_21  and  C_22
REMARK    3  A    between atoms: C_22  and  C_23
REMARK    4  A    between atoms: C_23  and  N_24
REMARK                            x       y       z     vdW  Elec       q    Type
REMARK                         _______ _______ _______ _____ _____    ______ ____
ROOT
ATOM      1  O   UNL     1       2.065   9.377  17.364  0.00  0.00    +0.000 OA
ATOM      2  C   UNL     1       1.849   8.840  18.446  0.00  0.00    +0.000 A 
ATOM      3  C   UNL     1       1.039   9.552  19.450  0.00  0.00    +0.000 A 
ATOM      4  C   UNL     1       0.446  10.879  19.170  0.00  0.00    +0.000 A 
ATOM      5  N   UNL     1      -0.271  11.576  19.995  0.00  0.00    +0.000 NA
ATOM      6  C   UNL     1      -0.479  11.023  21.231  0.00  0.00    +0.000 A 
ATOM      7  C   UNL     1      -1.168  11.484  22.338  0.00  0.00    +0.000 A 
ATOM      8  C   UNL     1      -1.027  10.453  23.289  0.00  0.00    +0.000 A 
ATOM      9  N   UNL     1      -0.302   9.424  22.853  0.00  0.00    +0.000 NA
ATOM     10  N   UNL     1       0.045   9.767  21.582  0.00  0.00    +0.000 N 
ATOM     11  C   UNL     1       0.820   9.034  20.670  0.00  0.00    +0.000 A 
ATOM     12  C   UNL     1       1.403   7.747  21.002  0.00  0.00    +0.000 A 
ATOM     13  C   UNL     1       2.133   7.082  20.095  0.00  0.00    +0.000 A 
ATOM     14  N   UNL     1       2.330   7.575  18.822  0.00  0.00    +0.000 N 
ENDROOT
BRANCH   7  15
ATOM     15  C   UNL     1      -1.863  12.760  22.421  0.00  0.00    +0.000 A 
ATOM     16  C   UNL     1      -1.320  13.814  23.170  0.00  0.00    +0.000 A 
ATOM     17  C   UNL     1      -1.977  15.047  23.240  0.00  0.00    +0.000 A 
ATOM     18  C   UNL     1      -3.181  15.236  22.565  0.00  0.00    +0.000 A 
ATOM     19 CL   UNL     1      -3.981  16.756  22.645  0.00  0.00    +0.000 Cl
ATOM     20  C   UNL     1      -3.739  14.200  21.823  0.00  0.00    +0.000 A 
ATOM     21  C   UNL     1      -3.079  12.971  21.750  0.00  0.00    +0.000 A 
ENDBRANCH   7  15
BRANCH  14  22
ATOM     22  C   UNL     1       3.239   6.952  17.866  0.00  0.00    +0.000 C 
BRANCH  22  23
ATOM     23  C   UNL     1       3.918   5.611  18.217  0.00  0.00    +0.000 C 
BRANCH  23  24
ATOM     24  N   UNL     1       3.297   4.533  17.437  0.00  0.00    +0.000 NA
ATOM     25  C   UNL     1       1.848   4.337  17.635  0.00  0.00    +0.000 C 
ATOM     26  C   UNL     1       1.433   3.196  18.575  0.00  0.00    +0.000 C 
ATOM     27  O   UNL     1       2.137   1.988  18.292  0.00  0.00    +0.000 OA
ATOM     28  C   UNL     1       3.544   2.211  18.420  0.00  0.00    +0.000 C 
ATOM     29  C   UNL     1       4.028   3.261  17.413  0.00  0.00    +0.000 C 
ENDBRANCH  23  24
ENDBRANCH  22  23
ENDBRANCH  14  22
TORSDOF 4
ENDMDL
MODEL 9
REMARK VINA RESULT:      -7.8      4.411      9.774
REMARK  Name = 
REMARK  4 active torsions:
REMARK  status: ('A' for Active; 'I' for Inactive)
REMARK    1  A    between atoms: C_7  and  C_8
REMARK    2  A    between atoms: N_21  and  C_22
REMARK    3  A    between atoms: C_22  and  C_23
REMARK    4  A    between atoms: C_23  and  N_24
REMARK                            x       y       z     vdW  Elec       q    Type
REMARK                         _______ _______ _______ _____ _____    ______ ____
ROOT
ATOM      1  O   UNL     1       2.225   5.553  20.765  0.00  0.00    +0.000 OA
ATOM      2  C   UNL     1       2.385   6.393  19.884  0.00  0.00    +0.000 A 
ATOM      3  C   UNL     1       1.817   7.740  20.070  0.00  0.00    +0.000 A 
ATOM      4  C   UNL     1       1.097   8.116  21.307  0.00  0.00    +0.000 A 
ATOM      5  N   UNL     1       0.562   9.272  21.549  0.00  0.00    +0.000 NA
ATOM      6  C   UNL     1       0.677  10.210  20.557  0.00  0.00    +0.000 A 
ATOM      7  C   UNL     1       0.225  11.514  20.472  0.00  0.00    +0.000 A 
ATOM      8  C   UNL     1       0.673  11.956  19.211  0.00  0.00    +0.000 A 
ATOM      9  N   UNL     1       1.341  11.025  18.529  0.00  0.00    +0.000 NA
ATOM     10  N   UNL     1       1.346   9.940  19.351  0.00  0.00    +0.000 N 
ATOM     11  C   UNL     1       1.915   8.679  19.114  0.00  0.00    +0.000 A 
ATOM     12  C   UNL     1       2.589   8.351  17.871  0.00  0.00    +0.000 A 
ATOM     13  C   UNL     1       3.120   7.133  17.693  0.00  0.00    +0.000 A 
ATOM     14  N   UNL     1       3.072   6.171  18.680  0.00  0.00    +0.000 N 
ENDROOT
BRANCH   7  15
ATOM     15  C   UNL     1      -0.535  12.207  21.502  0.00  0.00    +0.000 A 
ATOM     16  C   UNL     1      -1.678  11.615  22.057  0.00  0.00    +0.000 A 
ATOM     17  C   UNL     1      -2.403  12.269  23.059  0.00  0.00    +0.000 A 
ATOM     18  C   UNL     1      -1.992  13.522  23.511  0.00  0.00    +0.000 A 
ATOM     19 CL   UNL     1      -2.879  14.320  24.749  0.00  0.00    +0.000 Cl
ATOM     20  C   UNL     1      -0.865  14.129  22.967  0.00  0.00    +0.000 A 
ATOM     21  C   UNL     1      -0.140  13.471  21.972  0.00  0.00    +0.000 A 
ENDBRANCH   7  15
BRANCH  14  22
ATOM     22  C   UNL     1       3.505   4.794  18.463  0.00  0.00    +0.000 C 
BRANCH  22  23
ATOM     23  C   UNL     1       3.891   4.328  17.043  0.00  0.00    +0.000 C 
BRANCH  23  24
ATOM     24  N   UNL     1       5.337   4.084  16.987  0.00  0.00    +0.000 NA
ATOM     25  C   UNL     1       6.185   5.012  17.761  0.00  0.00    +0.000 C 
ATOM     26  C   UNL     1       6.865   6.139  16.971  0.00  0.00    +0.000 C 
ATOM     27  O   UNL     1       7.490   5.656  15.782  0.00  0.00    +0.000 OA
ATOM     28  C   UNL     1       6.512   5.026  14.949  0.00  0.00    +0.000 C 
ATOM     29  C   UNL     1       5.888   3.816  15.654  0.00  0.00    +0.000 C 
ENDBRANCH  23  24
ENDBRANCH  22  23
ENDBRANCH  14  22
TORSDOF 4
ENDMDL
