MODEL 1
REMARK VINA RESULT:      -5.9      0.000      0.000
REMARK  Name = 
REMARK  8 active torsions:
REMARK  status: ('A' for Active; 'I' for Inactive)
REMARK    1  A    between atoms: C_1  and  C_2
REMARK    2  A    between atoms: C_2  and  N_3
REMARK    3  A    between atoms: N_6  and  C_7
REMARK    4  A    between atoms: C_7  and  C_8
REMARK    5  A    between atoms: C_8  and  C_9
REMARK    6  A    between atoms: C_9  and  C_10
REMARK    7  A    between atoms: C_10  and  S_11
REMARK    8  A    between atoms: S_11  and  C_12
REMARK                            x       y       z     vdW  Elec       q    Type
REMARK                         _______ _______ _______ _____ _____    ______ ____
ROOT
ATOM      1  C   UNL     1       4.569   2.597  19.019  0.00  0.00    +0.000 C 
ENDROOT
BRANCH   1   2
ATOM      2  C   UNL     1       5.163   3.566  17.990  0.00  0.00    +0.000 C 
BRANCH   2   6
ATOM      3  N   UNL     1       6.829   6.815  16.849  0.00  0.00    +0.000 NA
ATOM      4  C   UNL     1       7.169   5.422  16.471  0.00  0.00    +0.000 C 
ATOM      5  C   UNL     1       7.406   4.509  17.691  0.00  0.00    +0.000 C 
ATOM      6  N   UNL     1       6.224   4.404  18.566  0.00  0.00    +0.000 NA
ATOM      7  C   UNL     1       5.722   5.749  18.912  0.00  0.00    +0.000 C 
ATOM      8  C   UNL     1       5.611   6.733  17.714  0.00  0.00    +0.000 C 
BRANCH   3  10
ATOM      9  C   UNL     1       7.825   8.978  17.725  0.00  0.00    +0.000 C 
ATOM     10  C   UNL     1       7.929   7.457  17.607  0.00  0.00    +0.000 C 
ENDBRANCH   3  10
ENDBRANCH   2   6
ENDBRANCH   1   2
BRANCH   1  11
ATOM     11  C   UNL     1       3.626   1.596  18.348  0.00  0.00    +0.000 C 
BRANCH  11  12
ATOM     12  C   UNL     1       2.458   2.307  17.694  0.00  0.00    +0.000 C 
BRANCH  12  13
ATOM     13  S   UNL     1       1.223   2.705  18.971  0.00  0.00    +0.000 S 
BRANCH  13  14
ATOM     14  C   UNL     1       1.640   4.415  19.201  0.00  0.00    +0.000 A 
ATOM     15  C   UNL     1       1.598   4.965  20.484  0.00  0.00    +0.000 A 
ATOM     16  C   UNL     1       1.869   6.320  20.669  0.00  0.00    +0.000 A 
ATOM     17  C   UNL     1       2.185   7.124  19.574  0.00  0.00    +0.000 A 
ATOM     18  C   UNL     1       2.246   6.575  18.296  0.00  0.00    +0.000 A 
ATOM     19  C   UNL     1       1.984   5.218  18.110  0.00  0.00    +0.000 A 
ENDBRANCH  13  14
ENDBRANCH  12  13
ENDBRANCH  11  12
ENDBRANCH   1  11
TORSDOF 7
ENDMDL
MODEL 2
REMARK VINA RESULT:      -5.8      3.060      6.774
REMARK  Name = 
REMARK  8 active torsions:
REMARK  status: ('A' for Active; 'I' for Inactive)
REMARK    1  A    between atoms: C_1  and  C_2
REMARK    2  A    between atoms: C_2  and  N_3
REMARK    3  A    between atoms: N_6  and  C_7
REMARK    4  A    between atoms: C_7  and  C_8
REMARK    5  A    between atoms: C_8  and  C_9
REMARK    6  A    between atoms: C_9  and  C_10
REMARK    7  A    between atoms: C_10  and  S_11
REMARK    8  A    between atoms: S_11  and  C_12
REMARK                            x       y       z     vdW  Elec       q    Type
REMARK                         _______ _______ _______ _____ _____    ______ ____
ROOT
ATOM      1  C   UNL     1       4.688   6.863  16.693  0.00  0.00    +0.000 C 
ENDROOT
BRANCH   1   2
ATOM      2  C   UNL     1       3.549   6.461  17.638  0.00  0.00    +0.000 C 
BRANCH   2   6
ATOM      3  N   UNL     1       1.309   4.087  19.634  0.00  0.00    +0.000 NA
ATOM      4  C   UNL     1       2.105   5.238  20.127  0.00  0.00    +0.000 C 
ATOM      5  C   UNL     1       3.589   5.162  19.716  0.00  0.00    +0.000 C 
ATOM      6  N   UNL     1       3.779   5.147  18.255  0.00  0.00    +0.000 NA
ATOM      7  C   UNL     1       2.933   4.105  17.639  0.00  0.00    +0.000 C 
ATOM      8  C   UNL     1       1.464   4.073  18.145  0.00  0.00    +0.000 C 
BRANCH   3  10
ATOM      9  C   UNL     1       1.506   2.597  21.678  0.00  0.00    +0.000 C 
ATOM     10  C   UNL     1       1.801   2.806  20.192  0.00  0.00    +0.000 C 
ENDBRANCH   3  10
ENDBRANCH   2   6
ENDBRANCH   1   2
BRANCH   1  11
ATOM     11  C   UNL     1       6.027   6.895  17.433  0.00  0.00    +0.000 C 
BRANCH  11  12
ATOM     12  C   UNL     1       7.120   6.253  16.602  0.00  0.00    +0.000 C 
BRANCH  12  13
ATOM     13  S   UNL     1       6.744   4.482  16.403  0.00  0.00    +0.000 S 
BRANCH  13  14
ATOM     14  C   UNL     1       6.847   4.400  14.633  0.00  0.00    +0.000 A 
ATOM     15  C   UNL     1       7.728   5.247  13.957  0.00  0.00    +0.000 A 
ATOM     16  C   UNL     1       7.776   5.230  12.564  0.00  0.00    +0.000 A 
ATOM     17  C   UNL     1       6.949   4.366  11.847  0.00  0.00    +0.000 A 
ATOM     18  C   UNL     1       6.084   3.505  12.519  0.00  0.00    +0.000 A 
ATOM     19  C   UNL     1       6.041   3.515  13.913  0.00  0.00    +0.000 A 
ENDBRANCH  13  14
ENDBRANCH  12  13
ENDBRANCH  11  12
ENDBRANCH   1  11
TORSDOF 7
ENDMDL
MODEL 3
REMARK VINA RESULT:      -5.8      4.271      6.999
REMARK  Name = 
REMARK  8 active torsions:
REMARK  status: ('A' for Active; 'I' for Inactive)
REMARK    1  A    between atoms: C_1  and  C_2
REMARK    2  A    between atoms: C_2  and  N_3
REMARK    3  A    between atoms: N_6  and  C_7
REMARK    4  A    between atoms: C_7  and  C_8
REMARK    5  A    between atoms: C_8  and  C_9
REMARK    6  A    between atoms: C_9  and  C_10
REMARK    7  A    between atoms: C_10  and  S_11
REMARK    8  A    between atoms: S_11  and  C_12
REMARK                            x       y       z     vdW  Elec       q    Type
REMARK                         _______ _______ _______ _____ _____    ______ ____
ROOT
ATOM      1  C   UNL     1       1.672   8.568  17.927  0.00  0.00    +0.000 C 
ENDROOT
BRANCH   1   2
ATOM      2  C   UNL     1       1.761  10.078  18.175  0.00  0.00    +0.000 C 
BRANCH   2   6
ATOM      3  N   UNL     1       0.766  11.485  21.591  0.00  0.00    +0.000 NA
ATOM      4  C   UNL     1       0.774  10.071  21.142  0.00  0.00    +0.000 C 
ATOM      5  C   UNL     1      -0.023   9.849  19.842  0.00  0.00    +0.000 C 
ATOM      6  N   UNL     1       0.505  10.626  18.706  0.00  0.00    +0.000 NA
ATOM      7  C   UNL     1       0.652  12.047  19.084  0.00  0.00    +0.000 C 
ATOM      8  C   UNL     1       1.328  12.290  20.462  0.00  0.00    +0.000 C 
BRANCH   3  10
ATOM      9  C   UNL     1      -1.273  11.264  23.085  0.00  0.00    +0.000 C 
ATOM     10  C   UNL     1      -0.608  11.952  21.893  0.00  0.00    +0.000 C 
ENDBRANCH   3  10
ENDBRANCH   2   6
ENDBRANCH   1   2
BRANCH   1  11
ATOM     11  C   UNL     1       3.007   8.018  17.417  0.00  0.00    +0.000 C 
BRANCH  11  12
ATOM     12  C   UNL     1       3.457   6.833  18.248  0.00  0.00    +0.000 C 
BRANCH  12  13
ATOM     13  S   UNL     1       2.401   6.718  19.727  0.00  0.00    +0.000 S 
BRANCH  13  14
ATOM     14  C   UNL     1       1.932   5.013  19.569  0.00  0.00    +0.000 A 
ATOM     15  C   UNL     1       1.931   4.415  18.307  0.00  0.00    +0.000 A 
ATOM     16  C   UNL     1       1.510   3.094  18.164  0.00  0.00    +0.000 A 
ATOM     17  C   UNL     1       1.094   2.369  19.280  0.00  0.00    +0.000 A 
ATOM     18  C   UNL     1       1.111   2.956  20.543  0.00  0.00    +0.000 A 
ATOM     19  C   UNL     1       1.540   4.275  20.689  0.00  0.00    +0.000 A 
ENDBRANCH  13  14
ENDBRANCH  12  13
ENDBRANCH  11  12
ENDBRANCH   1  11
TORSDOF 7
ENDMDL
MODEL 4
REMARK VINA RESULT:      -5.7      3.636      7.662
REMARK  Name = 
REMARK  8 active torsions:
REMARK  status: ('A' for Active; 'I' for Inactive)
REMARK    1  A    between atoms: C_1  and  C_2
REMARK    2  A    between atoms: C_2  and  N_3
REMARK    3  A    between atoms: N_6  and  C_7
REMARK    4  A    between atoms: C_7  and  C_8
REMARK    5  A    between atoms: C_8  and  C_9
REMARK    6  A    between atoms: C_9  and  C_10
REMARK    7  A    between atoms: C_10  and  S_11
REMARK    8  A    between atoms: S_11  and  C_12
REMARK                            x       y       z     vdW  Elec       q    Type
REMARK                         _______ _______ _______ _____ _____    ______ ____
ROOT
ATOM      1  C   UNL     1       7.664   6.079  18.282  0.00  0.00    +0.000 C 
ENDROOT
BRANCH   1   2
ATOM      2  C   UNL     1       6.520   5.184  17.791  0.00  0.00    +0.000 C 
BRANCH   2   6
ATOM      3  N   UNL     1       3.102   3.579  18.407  0.00  0.00    +0.000 NA
ATOM      4  C   UNL     1       3.714   3.981  17.116  0.00  0.00    +0.000 C 
ATOM      5  C   UNL     1       4.181   5.450  17.105  0.00  0.00    +0.000 C 
ATOM      6  N   UNL     1       5.200   5.735  18.131  0.00  0.00    +0.000 NA
ATOM      7  C   UNL     1       4.742   5.262  19.453  0.00  0.00    +0.000 C 
ATOM      8  C   UNL     1       4.135   3.831  19.460  0.00  0.00    +0.000 C 
BRANCH   3  10
ATOM      9  C   UNL     1       1.194   4.018  20.020  0.00  0.00    +0.000 C 
ATOM     10  C   UNL     1       1.889   4.375  18.706  0.00  0.00    +0.000 C 
ENDBRANCH   3  10
ENDBRANCH   2   6
ENDBRANCH   1   2
BRANCH   1  11
ATOM     11  C   UNL     1       7.462   7.526  17.826  0.00  0.00    +0.000 C 
BRANCH  11  12
ATOM     12  C   UNL     1       8.514   8.436  18.428  0.00  0.00    +0.000 C 
BRANCH  12  13
ATOM     13  S   UNL     1       8.259  10.126  17.798  0.00  0.00    +0.000 S 
BRANCH  13  14
ATOM     14  C   UNL     1       9.626  10.908  18.617  0.00  0.00    +0.000 A 
ATOM     15  C   UNL     1       9.569  11.122  19.995  0.00  0.00    +0.000 A 
ATOM     16  C   UNL     1      10.612  11.787  20.639  0.00  0.00    +0.000 A 
ATOM     17  C   UNL     1      11.712  12.234  19.907  0.00  0.00    +0.000 A 
ATOM     18  C   UNL     1      11.780  12.005  18.535  0.00  0.00    +0.000 A 
ATOM     19  C   UNL     1      10.742  11.334  17.891  0.00  0.00    +0.000 A 
ENDBRANCH  13  14
ENDBRANCH  12  13
ENDBRANCH  11  12
ENDBRANCH   1  11
TORSDOF 7
ENDMDL
MODEL 5
REMARK VINA RESULT:      -5.6      3.599      7.798
REMARK  Name = 
REMARK  8 active torsions:
REMARK  status: ('A' for Active; 'I' for Inactive)
REMARK    1  A    between atoms: C_1  and  C_2
REMARK    2  A    between atoms: C_2  and  N_3
REMARK    3  A    between atoms: N_6  and  C_7
REMARK    4  A    between atoms: C_7  and  C_8
REMARK    5  A    between atoms: C_8  and  C_9
REMARK    6  A    between atoms: C_9  and  C_10
REMARK    7  A    between atoms: C_10  and  S_11
REMARK    8  A    between atoms: S_11  and  C_12
REMARK                            x       y       z     vdW  Elec       q    Type
REMARK                         _______ _______ _______ _____ _____    ______ ____
ROOT
ATOM      1  C   UNL     1       7.009   6.369  18.408  0.00  0.00    +0.000 C 
ENDROOT
BRANCH   1   2
ATOM      2  C   UNL     1       5.834   5.708  17.677  0.00  0.00    +0.000 C 
BRANCH   2   6
ATOM      3  N   UNL     1       2.194   4.656  18.209  0.00  0.00    +0.000 NA
ATOM      4  C   UNL     1       2.963   5.708  18.917  0.00  0.00    +0.000 C 
ATOM      5  C   UNL     1       4.289   5.188  19.508  0.00  0.00    +0.000 C 
ATOM      6  N   UNL     1       5.202   4.653  18.483  0.00  0.00    +0.000 NA
ATOM      7  C   UNL     1       4.499   3.671  17.633  0.00  0.00    +0.000 C 
ATOM      8  C   UNL     1       3.095   4.120  17.142  0.00  0.00    +0.000 C 
BRANCH   3  10
ATOM      9  C   UNL     1       0.989   3.991  20.340  0.00  0.00    +0.000 C 
ATOM     10  C   UNL     1       1.806   3.556  19.124  0.00  0.00    +0.000 C 
ENDBRANCH   3  10
ENDBRANCH   2   6
ENDBRANCH   1   2
BRANCH   1  11
ATOM     11  C   UNL     1       7.649   7.457  17.543  0.00  0.00    +0.000 C 
BRANCH  11  12
ATOM     12  C   UNL     1       8.475   8.405  18.389  0.00  0.00    +0.000 C 
BRANCH  12  13
ATOM     13  S   UNL     1       8.102  10.116  17.888  0.00  0.00    +0.000 S 
BRANCH  13  14
ATOM     14  C   UNL     1       9.513  10.906  18.621  0.00  0.00    +0.000 A 
ATOM     15  C   UNL     1      10.592  11.270  17.813  0.00  0.00    +0.000 A 
ATOM     16  C   UNL     1      11.728  11.839  18.386  0.00  0.00    +0.000 A 
ATOM     17  C   UNL     1      11.785  12.049  19.764  0.00  0.00    +0.000 A 
ATOM     18  C   UNL     1      10.702  11.704  20.570  0.00  0.00    +0.000 A 
ATOM     19  C   UNL     1       9.562  11.142  19.997  0.00  0.00    +0.000 A 
ENDBRANCH  13  14
ENDBRANCH  12  13
ENDBRANCH  11  12
ENDBRANCH   1  11
TORSDOF 7
ENDMDL
MODEL 6
REMARK VINA RESULT:      -5.6      1.864      3.969
REMARK  Name = 
REMARK  8 active torsions:
REMARK  status: ('A' for Active; 'I' for Inactive)
REMARK    1  A    between atoms: C_1  and  C_2
REMARK    2  A    between atoms: C_2  and  N_3
REMARK    3  A    between atoms: N_6  and  C_7
REMARK    4  A    between atoms: C_7  and  C_8
REMARK    5  A    between atoms: C_8  and  C_9
REMARK    6  A    between atoms: C_9  and  C_10
REMARK    7  A    between atoms: C_10  and  S_11
REMARK    8  A    between atoms: S_11  and  C_12
REMARK                            x       y       z     vdW  Elec       q    Type
REMARK                         _______ _______ _______ _____ _____    ______ ____
ROOT
ATOM      1  C   UNL     1       3.650   7.314  17.712  0.00  0.00    +0.000 C 
ENDROOT
BRANCH   1   2
ATOM      2  C   UNL     1       5.015   6.627  17.838  0.00  0.00    +0.000 C 
BRANCH   2   6
ATOM      3  N   UNL     1       6.279   4.043  15.315  0.00  0.00    +0.000 NA
ATOM      4  C   UNL     1       6.909   4.476  16.586  0.00  0.00    +0.000 C 
ATOM      5  C   UNL     1       7.084   6.005  16.679  0.00  0.00    +0.000 C 
ATOM      6  N   UNL     1       5.806   6.734  16.603  0.00  0.00    +0.000 NA
ATOM      7  C   UNL     1       5.032   6.291  15.426  0.00  0.00    +0.000 C 
ATOM      8  C   UNL     1       4.962   4.750  15.234  0.00  0.00    +0.000 C 
BRANCH   3  10
ATOM      9  C   UNL     1       6.624   3.841  12.810  0.00  0.00    +0.000 C 
ATOM     10  C   UNL     1       7.108   4.411  14.143  0.00  0.00    +0.000 C 
ENDBRANCH   3  10
ENDBRANCH   2   6
ENDBRANCH   1   2
BRANCH   1  11
ATOM     11  C   UNL     1       2.538   6.431  18.283  0.00  0.00    +0.000 C 
BRANCH  11  12
ATOM     12  C   UNL     1       2.579   6.422  19.798  0.00  0.00    +0.000 C 
BRANCH  12  13
ATOM     13  S   UNL     1       1.488   5.096  20.406  0.00  0.00    +0.000 S 
BRANCH  13  14
ATOM     14  C   UNL     1       2.262   3.732  19.576  0.00  0.00    +0.000 A 
ATOM     15  C   UNL     1       3.509   3.280  20.013  0.00  0.00    +0.000 A 
ATOM     16  C   UNL     1       4.152   2.247  19.333  0.00  0.00    +0.000 A 
ATOM     17  C   UNL     1       3.548   1.662  18.220  0.00  0.00    +0.000 A 
ATOM     18  C   UNL     1       2.295   2.097  17.793  0.00  0.00    +0.000 A 
ATOM     19  C   UNL     1       1.648   3.125  18.477  0.00  0.00    +0.000 A 
ENDBRANCH  13  14
ENDBRANCH  12  13
ENDBRANCH  11  12
ENDBRANCH   1  11
TORSDOF 7
ENDMDL
MODEL 7
REMARK VINA RESULT:      -5.6      4.575      7.351
REMARK  Name = 
REMARK  8 active torsions:
REMARK  status: ('A' for Active; 'I' for Inactive)
REMARK    1  A    between atoms: C_1  and  C_2
REMARK    2  A    between atoms: C_2  and  N_3
REMARK    3  A    between atoms: N_6  and  C_7
REMARK    4  A    between atoms: C_7  and  C_8
REMARK    5  A    between atoms: C_8  and  C_9
REMARK    6  A    between atoms: C_9  and  C_10
REMARK    7  A    between atoms: C_10  and  S_11
REMARK    8  A    between atoms: S_11  and  C_12
REMARK                            x       y       z     vdW  Elec       q    Type
REMARK                         _______ _______ _______ _____ _____    ______ ____
ROOT
ATOM      1  C   UNL     1       1.132   9.348  17.864  0.00  0.00    +0.000 C 
ENDROOT
BRANCH   1   2
ATOM      2  C   UNL     1       1.183   9.884  19.299  0.00  0.00    +0.000 C 
BRANCH   2   6
ATOM      3  N   UNL     1      -0.069  11.071  22.714  0.00  0.00    +0.000 NA
ATOM      4  C   UNL     1       0.570   9.779  22.363  0.00  0.00    +0.000 C 
ATOM      5  C   UNL     1      -0.132   9.058  21.196  0.00  0.00    +0.000 C 
ATOM      6  N   UNL     1      -0.133   9.849  19.952  0.00  0.00    +0.000 NA
ATOM      7  C   UNL     1      -0.645  11.210  20.210  0.00  0.00    +0.000 C 
ATOM      8  C   UNL     1      -0.052  11.902  21.469  0.00  0.00    +0.000 C 
BRANCH   3  10
ATOM      9  C   UNL     1      -2.300  12.163  23.229  0.00  0.00    +0.000 C 
ATOM     10  C   UNL     1      -1.470  10.882  23.160  0.00  0.00    +0.000 C 
ENDBRANCH   3  10
ENDBRANCH   2   6
ENDBRANCH   1   2
BRANCH   1  11
ATOM     11  C   UNL     1       1.567   7.881  17.811  0.00  0.00    +0.000 C 
BRANCH  11  12
ATOM     12  C   UNL     1       2.867   7.675  18.564  0.00  0.00    +0.000 C 
BRANCH  12  13
ATOM     13  S   UNL     1       3.640   6.130  17.987  0.00  0.00    +0.000 S 
BRANCH  13  14
ATOM     14  C   UNL     1       2.501   4.987  18.727  0.00  0.00    +0.000 A 
ATOM     15  C   UNL     1       2.242   5.066  20.097  0.00  0.00    +0.000 A 
ATOM     16  C   UNL     1       1.394   4.138  20.699  0.00  0.00    +0.000 A 
ATOM     17  C   UNL     1       0.801   3.135  19.933  0.00  0.00    +0.000 A 
ATOM     18  C   UNL     1       1.041   3.066  18.563  0.00  0.00    +0.000 A 
ATOM     19  C   UNL     1       1.883   3.998  17.958  0.00  0.00    +0.000 A 
ENDBRANCH  13  14
ENDBRANCH  12  13
ENDBRANCH  11  12
ENDBRANCH   1  11
TORSDOF 7
ENDMDL
MODEL 8
REMARK VINA RESULT:      -5.5      3.616      6.037
REMARK  Name = 
REMARK  8 active torsions:
REMARK  status: ('A' for Active; 'I' for Inactive)
REMARK    1  A    between atoms: C_1  and  C_2
REMARK    2  A    between atoms: C_2  and  N_3
REMARK    3  A    between atoms: N_6  and  C_7
REMARK    4  A    between atoms: C_7  and  C_8
REMARK    5  A    between atoms: C_8  and  C_9
REMARK    6  A    between atoms: C_9  and  C_10
REMARK    7  A    between atoms: C_10  and  S_11
REMARK    8  A    between atoms: S_11  and  C_12
REMARK                            x       y       z     vdW  Elec       q    Type
REMARK                         _______ _______ _______ _____ _____    ______ ____
ROOT
ATOM      1  C   UNL     1       3.676   7.421  17.928  0.00  0.00    +0.000 C 
ENDROOT
BRANCH   1   2
ATOM      2  C   UNL     1       3.638   5.996  17.364  0.00  0.00    +0.000 C 
BRANCH   2   6
ATOM      3  N   UNL     1       1.596   3.361  19.242  0.00  0.00    +0.000 NA
ATOM      4  C   UNL     1       1.793   4.791  19.583  0.00  0.00    +0.000 C 
ATOM      5  C   UNL     1       3.280   5.192  19.652  0.00  0.00    +0.000 C 
ATOM      6  N   UNL     1       3.989   4.989  18.376  0.00  0.00    +0.000 NA
ATOM      7  C   UNL     1       3.761   3.618  17.877  0.00  0.00    +0.000 C 
ATOM      8  C   UNL     1       2.283   3.141  17.931  0.00  0.00    +0.000 C 
BRANCH   3  10
ATOM      9  C   UNL     1       1.591   2.608  21.664  0.00  0.00    +0.000 C 
ATOM     10  C   UNL     1       2.191   2.470  20.265  0.00  0.00    +0.000 C 
ENDBRANCH   3  10
ENDBRANCH   2   6
ENDBRANCH   1   2
BRANCH   1  11
ATOM     11  C   UNL     1       2.317   8.107  17.775  0.00  0.00    +0.000 C 
BRANCH  11  12
ATOM     12  C   UNL     1       1.782   8.555  19.120  0.00  0.00    +0.000 C 
BRANCH  12  13
ATOM     13  S   UNL     1       0.793  10.067  18.885  0.00  0.00    +0.000 S 
BRANCH  13  14
ATOM     14  C   UNL     1       0.102  10.172  20.516  0.00  0.00    +0.000 A 
ATOM     15  C   UNL     1      -0.439  11.382  20.955  0.00  0.00    +0.000 A 
ATOM     16  C   UNL     1      -0.933  11.492  22.254  0.00  0.00    +0.000 A 
ATOM     17  C   UNL     1      -0.891  10.394  23.113  0.00  0.00    +0.000 A 
ATOM     18  C   UNL     1      -0.369   9.180  22.671  0.00  0.00    +0.000 A 
ATOM     19  C   UNL     1       0.118   9.066  21.370  0.00  0.00    +0.000 A 
ENDBRANCH  13  14
ENDBRANCH  12  13
ENDBRANCH  11  12
ENDBRANCH   1  11
TORSDOF 7
ENDMDL
MODEL 9
REMARK VINA RESULT:      -5.5      0.928      1.336
REMARK  Name = 
REMARK  8 active torsions:
REMARK  status: ('A' for Active; 'I' for Inactive)
REMARK    1  A    between atoms: C_1  and  C_2
REMARK    2  A    between atoms: C_2  and  N_3
REMARK    3  A    between atoms: N_6  and  C_7
REMARK    4  A    between atoms: C_7  and  C_8
REMARK    5  A    between atoms: C_8  and  C_9
REMARK    6  A    between atoms: C_9  and  C_10
REMARK    7  A    between atoms: C_10  and  S_11
REMARK    8  A    between atoms: S_11  and  C_12
REMARK                            x       y       z     vdW  Elec       q    Type
REMARK                         _______ _______ _______ _____ _____    ______ ____
ROOT
ATOM      1  C   UNL     1       4.411   2.734  18.684  0.00  0.00    +0.000 C 
ENDROOT
BRANCH   1   2
ATOM      2  C   UNL     1       4.788   3.377  17.344  0.00  0.00    +0.000 C 
BRANCH   2   6
ATOM      3  N   UNL     1       7.608   5.957  17.168  0.00  0.00    +0.000 NA
ATOM      4  C   UNL     1       7.118   5.204  18.349  0.00  0.00    +0.000 C 
ATOM      5  C   UNL     1       5.598   5.344  18.562  0.00  0.00    +0.000 C 
ATOM      6  N   UNL     1       4.811   4.845  17.421  0.00  0.00    +0.000 NA
ATOM      7  C   UNL     1       5.297   5.444  16.162  0.00  0.00    +0.000 C 
ATOM      8  C   UNL     1       6.842   5.441  15.991  0.00  0.00    +0.000 C 
BRANCH   3  10
ATOM      9  C   UNL     1       8.294   8.120  18.302  0.00  0.00    +0.000 C 
ATOM     10  C   UNL     1       7.369   7.412  17.312  0.00  0.00    +0.000 C 
ENDBRANCH   3  10
ENDBRANCH   2   6
ENDBRANCH   1   2
BRANCH   1  11
ATOM     11  C   UNL     1       3.306   1.691  18.499  0.00  0.00    +0.000 C 
BRANCH  11  12
ATOM     12  C   UNL     1       2.232   1.847  19.556  0.00  0.00    +0.000 C 
BRANCH  12  13
ATOM     13  S   UNL     1       0.828   2.756  18.838  0.00  0.00    +0.000 S 
BRANCH  13  14
ATOM     14  C   UNL     1       1.417   4.404  19.134  0.00  0.00    +0.000 A 
ATOM     15  C   UNL     1       1.548   4.860  20.447  0.00  0.00    +0.000 A 
ATOM     16  C   UNL     1       1.955   6.171  20.690  0.00  0.00    +0.000 A 
ATOM     17  C   UNL     1       2.236   7.025  19.624  0.00  0.00    +0.000 A 
ATOM     18  C   UNL     1       2.124   6.567  18.313  0.00  0.00    +0.000 A 
ATOM     19  C   UNL     1       1.725   5.254  18.068  0.00  0.00    +0.000 A 
ENDBRANCH  13  14
ENDBRANCH  12  13
ENDBRANCH  11  12
ENDBRANCH   1  11
TORSDOF 7
ENDMDL
