MODEL 1
REMARK VINA RESULT:      -7.2      0.000      0.000
REMARK  Name = 
REMARK  4 active torsions:
REMARK  status: ('A' for Active; 'I' for Inactive)
REMARK    1  A    between atoms: C_1  and  C_2
REMARK    2  A    between atoms: C_4  and  N_5
REMARK    3  A    between atoms: C_8  and  O_9
REMARK    4  A    between atoms: C_14  and  N_15
REMARK                            x       y       z     vdW  Elec       q    Type
REMARK                         _______ _______ _______ _____ _____    ______ ____
ROOT
ATOM      1  C   UNL     1       2.574   7.466  18.446  0.00  0.00    +0.000 C 
ATOM      2  C   UNL     1       3.448   6.371  17.897  0.00  0.00    +0.000 A 
ATOM      3  C   UNL     1       4.708   6.694  17.373  0.00  0.00    +0.000 A 
ATOM      4  C   UNL     1       5.586   5.708  16.863  0.00  0.00    +0.000 A 
ATOM      5  C   UNL     1       5.150   4.339  16.880  0.00  0.00    +0.000 A 
ATOM      6  C   UNL     1       3.881   4.044  17.401  0.00  0.00    +0.000 A 
ATOM      7  C   UNL     1       3.052   5.026  17.900  0.00  0.00    +0.000 A 
ATOM      8  C   UNL     1       1.798   4.438  18.463  0.00  0.00    +0.000 C 
ATOM      9  C   UNL     1       1.850   2.961  18.021  0.00  0.00    +0.000 C 
ATOM     10  C   UNL     1       3.286   2.676  17.558  0.00  0.00    +0.000 C 
ENDROOT
BRANCH   4  11
ATOM     11  N   UNL     1       6.870   6.133  16.370  0.00  0.00    +0.000 N 
ATOM     12  O   UNL     1       7.392   5.536  15.476  0.00  0.00    +0.000 OA
ATOM     13  O   UNL     1       7.485   7.192  16.841  0.00  0.00    +0.000 OA
ENDBRANCH   4  11
BRANCH  10  14
ATOM     14  N   UNL     1       4.020   1.887  18.548  0.00  0.00    +0.000 NA
ATOM     15  H   UNL     1       4.762   1.312  18.088  0.00  0.00    +0.000 HD
ATOM     16  H   UNL     1       3.358   1.254  19.052  0.00  0.00    +0.000 HD
ENDBRANCH  10  14
BRANCH   5  17
ATOM     17  O   UNL     1       5.879   3.294  16.430  0.00  0.00    +0.000 OA
ATOM     18  H   UNL     1       6.608   2.854  16.870  0.00  0.00    +0.000 HD
ENDBRANCH   5  17
TORSDOF 3
ENDMDL
MODEL 2
REMARK VINA RESULT:      -6.8      2.109      2.376
REMARK  Name = 
REMARK  4 active torsions:
REMARK  status: ('A' for Active; 'I' for Inactive)
REMARK    1  A    between atoms: C_1  and  C_2
REMARK    2  A    between atoms: C_4  and  N_5
REMARK    3  A    between atoms: C_8  and  O_9
REMARK    4  A    between atoms: C_14  and  N_15
REMARK                            x       y       z     vdW  Elec       q    Type
REMARK                         _______ _______ _______ _____ _____    ______ ____
ROOT
ATOM      1  C   UNL     1       2.297   7.138  18.217  0.00  0.00    +0.000 C 
ATOM      2  C   UNL     1       3.052   5.876  18.534  0.00  0.00    +0.000 A 
ATOM      3  C   UNL     1       4.375   5.736  18.094  0.00  0.00    +0.000 A 
ATOM      4  C   UNL     1       5.147   4.583  18.379  0.00  0.00    +0.000 A 
ATOM      5  C   UNL     1       4.531   3.529  19.137  0.00  0.00    +0.000 A 
ATOM      6  C   UNL     1       3.203   3.690  19.557  0.00  0.00    +0.000 A 
ATOM      7  C   UNL     1       2.480   4.829  19.272  0.00  0.00    +0.000 A 
ATOM      8  C   UNL     1       1.124   4.780  19.899  0.00  0.00    +0.000 C 
ATOM      9  C   UNL     1       1.008   3.332  20.418  0.00  0.00    +0.000 C 
ATOM     10  C   UNL     1       2.421   2.730  20.405  0.00  0.00    +0.000 C 
ENDROOT
BRANCH   4  11
ATOM     11  N   UNL     1       6.506   4.542  17.908  0.00  0.00    +0.000 N 
ATOM     12  O   UNL     1       7.404   4.445  18.689  0.00  0.00    +0.000 OA
ATOM     13  O   UNL     1       6.804   4.564  16.630  0.00  0.00    +0.000 OA
ENDBRANCH   4  11
BRANCH  10  14
ATOM     14  N   UNL     1       2.976   2.639  21.756  0.00  0.00    +0.000 NA
ATOM     15  H   UNL     1       3.935   2.228  21.736  0.00  0.00    +0.000 HD
ATOM     16  H   UNL     1       2.357   2.040  22.349  0.00  0.00    +0.000 HD
ENDBRANCH  10  14
BRANCH   5  17
ATOM     17  O   UNL     1       5.143   2.375  19.486  0.00  0.00    +0.000 OA
ATOM     18  H   UNL     1       5.977   2.032  19.163  0.00  0.00    +0.000 HD
ENDBRANCH   5  17
TORSDOF 3
ENDMDL
MODEL 3
REMARK VINA RESULT:      -6.7      2.819      4.439
REMARK  Name = 
REMARK  4 active torsions:
REMARK  status: ('A' for Active; 'I' for Inactive)
REMARK    1  A    between atoms: C_1  and  C_2
REMARK    2  A    between atoms: C_4  and  N_5
REMARK    3  A    between atoms: C_8  and  O_9
REMARK    4  A    between atoms: C_14  and  N_15
REMARK                            x       y       z     vdW  Elec       q    Type
REMARK                         _______ _______ _______ _____ _____    ______ ____
ROOT
ATOM      1  C   UNL     1       2.306   7.617  18.190  0.00  0.00    +0.000 C 
ATOM      2  C   UNL     1       3.037   6.343  18.516  0.00  0.00    +0.000 A 
ATOM      3  C   UNL     1       2.539   5.501  19.519  0.00  0.00    +0.000 A 
ATOM      4  C   UNL     1       3.167   4.277  19.856  0.00  0.00    +0.000 A 
ATOM      5  C   UNL     1       4.360   3.912  19.144  0.00  0.00    +0.000 A 
ATOM      6  C   UNL     1       4.844   4.777  18.152  0.00  0.00    +0.000 A 
ATOM      7  C   UNL     1       4.203   5.957  17.838  0.00  0.00    +0.000 A 
ATOM      8  C   UNL     1       4.877   6.650  16.698  0.00  0.00    +0.000 C 
ATOM      9  C   UNL     1       6.182   5.853  16.499  0.00  0.00    +0.000 C 
ATOM     10  C   UNL     1       6.030   4.533  17.267  0.00  0.00    +0.000 C 
ENDROOT
BRANCH   4  11
ATOM     11  N   UNL     1       2.566   3.466  20.882  0.00  0.00    +0.000 N 
ATOM     12  O   UNL     1       1.410   3.607  21.151  0.00  0.00    +0.000 OA
ATOM     13  O   UNL     1       3.234   2.531  21.516  0.00  0.00    +0.000 OA
ENDBRANCH   4  11
BRANCH  10  14
ATOM     14  N   UNL     1       5.795   3.410  16.358  0.00  0.00    +0.000 NA
ATOM     15  H   UNL     1       5.957   3.694  15.367  0.00  0.00    +0.000 HD
ATOM     16  H   UNL     1       4.810   3.075  16.463  0.00  0.00    +0.000 HD
ENDBRANCH  10  14
BRANCH   5  17
ATOM     17  O   UNL     1       5.064   2.777  19.356  0.00  0.00    +0.000 OA
ATOM     18  H   UNL     1       6.012   2.685  19.459  0.00  0.00    +0.000 HD
ENDBRANCH   5  17
TORSDOF 3
ENDMDL
MODEL 4
REMARK VINA RESULT:      -6.7      1.112      1.251
REMARK  Name = 
REMARK  4 active torsions:
REMARK  status: ('A' for Active; 'I' for Inactive)
REMARK    1  A    between atoms: C_1  and  C_2
REMARK    2  A    between atoms: C_4  and  N_5
REMARK    3  A    between atoms: C_8  and  O_9
REMARK    4  A    between atoms: C_14  and  N_15
REMARK                            x       y       z     vdW  Elec       q    Type
REMARK                         _______ _______ _______ _____ _____    ______ ____
ROOT
ATOM      1  C   UNL     1       2.354   7.581  17.800  0.00  0.00    +0.000 C 
ATOM      2  C   UNL     1       3.505   6.612  17.775  0.00  0.00    +0.000 A 
ATOM      3  C   UNL     1       4.818   7.102  17.777  0.00  0.00    +0.000 A 
ATOM      4  C   UNL     1       5.943   6.242  17.777  0.00  0.00    +0.000 A 
ATOM      5  C   UNL     1       5.709   4.824  17.763  0.00  0.00    +0.000 A 
ATOM      6  C   UNL     1       4.386   4.360  17.751  0.00  0.00    +0.000 A 
ATOM      7  C   UNL     1       3.311   5.223  17.762  0.00  0.00    +0.000 A 
ATOM      8  C   UNL     1       2.019   4.474  17.826  0.00  0.00    +0.000 C 
ATOM      9  C   UNL     1       2.431   3.004  17.605  0.00  0.00    +0.000 C 
ATOM     10  C   UNL     1       3.952   2.925  17.800  0.00  0.00    +0.000 C 
ENDROOT
BRANCH   4  11
ATOM     11  N   UNL     1       7.252   6.838  17.807  0.00  0.00    +0.000 N 
ATOM     12  O   UNL     1       8.024   6.536  18.667  0.00  0.00    +0.000 OA
ATOM     13  O   UNL     1       7.658   7.682  16.887  0.00  0.00    +0.000 OA
ENDBRANCH   4  11
BRANCH  10  14
ATOM     14  N   UNL     1       4.296   2.307  19.081  0.00  0.00    +0.000 NA
ATOM     15  H   UNL     1       4.756   2.998  19.714  0.00  0.00    +0.000 HD
ATOM     16  H   UNL     1       4.945   1.503  18.919  0.00  0.00    +0.000 HD
ENDBRANCH  10  14
BRANCH   5  17
ATOM     17  O   UNL     1       6.682   3.885  17.764  0.00  0.00    +0.000 OA
ATOM     18  H   UNL     1       6.657   3.014  17.366  0.00  0.00    +0.000 HD
ENDBRANCH   5  17
TORSDOF 3
ENDMDL
MODEL 5
REMARK VINA RESULT:      -6.7      1.469      1.526
REMARK  Name = 
REMARK  4 active torsions:
REMARK  status: ('A' for Active; 'I' for Inactive)
REMARK    1  A    between atoms: C_1  and  C_2
REMARK    2  A    between atoms: C_4  and  N_5
REMARK    3  A    between atoms: C_8  and  O_9
REMARK    4  A    between atoms: C_14  and  N_15
REMARK                            x       y       z     vdW  Elec       q    Type
REMARK                         _______ _______ _______ _____ _____    ______ ____
ROOT
ATOM      1  C   UNL     1       2.275   7.226  19.593  0.00  0.00    +0.000 C 
ATOM      2  C   UNL     1       3.105   6.199  18.872  0.00  0.00    +0.000 A 
ATOM      3  C   UNL     1       3.922   6.600  17.805  0.00  0.00    +0.000 A 
ATOM      4  C   UNL     1       4.743   5.686  17.101  0.00  0.00    +0.000 A 
ATOM      5  C   UNL     1       4.716   4.306  17.501  0.00  0.00    +0.000 A 
ATOM      6  C   UNL     1       3.884   3.930  18.565  0.00  0.00    +0.000 A 
ATOM      7  C   UNL     1       3.102   4.845  19.238  0.00  0.00    +0.000 A 
ATOM      8  C   UNL     1       2.374   4.201  20.374  0.00  0.00    +0.000 C 
ATOM      9  C   UNL     1       2.622   2.694  20.165  0.00  0.00    +0.000 C 
ATOM     10  C   UNL     1       3.773   2.557  19.159  0.00  0.00    +0.000 C 
ENDROOT
BRANCH   4  11
ATOM     11  N   UNL     1       5.568   6.196  16.037  0.00  0.00    +0.000 N 
ATOM     12  O   UNL     1       5.091   6.907  15.204  0.00  0.00    +0.000 OA
ATOM     13  O   UNL     1       6.853   5.943  15.966  0.00  0.00    +0.000 OA
ENDBRANCH   4  11
BRANCH  10  14
ATOM     14  N   UNL     1       5.017   2.161  19.820  0.00  0.00    +0.000 NA
ATOM     15  H   UNL     1       5.551   1.484  19.231  0.00  0.00    +0.000 HD
ATOM     16  H   UNL     1       4.798   1.717  20.741  0.00  0.00    +0.000 HD
ENDBRANCH  10  14
BRANCH   5  17
ATOM     17  O   UNL     1       5.446   3.324  16.925  0.00  0.00    +0.000 OA
ATOM     18  H   UNL     1       5.772   2.520  17.331  0.00  0.00    +0.000 HD
ENDBRANCH   5  17
TORSDOF 3
ENDMDL
MODEL 6
REMARK VINA RESULT:      -6.6      1.030      1.046
REMARK  Name = 
REMARK  4 active torsions:
REMARK  status: ('A' for Active; 'I' for Inactive)
REMARK    1  A    between atoms: C_1  and  C_2
REMARK    2  A    between atoms: C_4  and  N_5
REMARK    3  A    between atoms: C_8  and  O_9
REMARK    4  A    between atoms: C_14  and  N_15
REMARK                            x       y       z     vdW  Elec       q    Type
REMARK                         _______ _______ _______ _____ _____    ______ ____
ROOT
ATOM      1  C   UNL     1       2.394   6.535  19.742  0.00  0.00    +0.000 C 
ATOM      2  C   UNL     1       3.199   5.619  18.860  0.00  0.00    +0.000 A 
ATOM      3  C   UNL     1       4.391   6.086  18.289  0.00  0.00    +0.000 A 
ATOM      4  C   UNL     1       5.205   5.267  17.469  0.00  0.00    +0.000 A 
ATOM      5  C   UNL     1       4.771   3.921  17.216  0.00  0.00    +0.000 A 
ATOM      6  C   UNL     1       3.569   3.482  17.790  0.00  0.00    +0.000 A 
ATOM      7  C   UNL     1       2.803   4.301  18.594  0.00  0.00    +0.000 A 
ATOM      8  C   UNL     1       1.620   3.567  19.139  0.00  0.00    +0.000 C 
ATOM      9  C   UNL     1       1.620   2.235  18.363  0.00  0.00    +0.000 C 
ATOM     10  C   UNL     1       2.993   2.100  17.690  0.00  0.00    +0.000 C 
ENDROOT
BRANCH   4  11
ATOM     11  N   UNL     1       6.426   5.826  16.950  0.00  0.00    +0.000 N 
ATOM     12  O   UNL     1       7.460   5.250  17.114  0.00  0.00    +0.000 OA
ATOM     13  O   UNL     1       6.445   6.939  16.255  0.00  0.00    +0.000 OA
ENDBRANCH   4  11
BRANCH  10  14
ATOM     14  N   UNL     1       3.834   1.122  18.381  0.00  0.00    +0.000 NA
ATOM     15  H   UNL     1       3.389   0.177  18.369  0.00  0.00    +0.000 HD
ATOM     16  H   UNL     1       3.978   1.422  19.372  0.00  0.00    +0.000 HD
ENDBRANCH  10  14
BRANCH   5  17
ATOM     17  O   UNL     1       5.443   3.026  16.457  0.00  0.00    +0.000 OA
ATOM     18  H   UNL     1       5.187   2.128  16.243  0.00  0.00    +0.000 HD
ENDBRANCH   5  17
TORSDOF 3
ENDMDL
MODEL 7
REMARK VINA RESULT:      -6.5      2.515      4.385
REMARK  Name = 
REMARK  4 active torsions:
REMARK  status: ('A' for Active; 'I' for Inactive)
REMARK    1  A    between atoms: C_1  and  C_2
REMARK    2  A    between atoms: C_4  and  N_5
REMARK    3  A    between atoms: C_8  and  O_9
REMARK    4  A    between atoms: C_14  and  N_15
REMARK                            x       y       z     vdW  Elec       q    Type
REMARK                         _______ _______ _______ _____ _____    ______ ____
ROOT
ATOM      1  C   UNL     1       2.748   7.921  17.871  0.00  0.00    +0.000 C 
ATOM      2  C   UNL     1       3.148   6.473  17.968  0.00  0.00    +0.000 A 
ATOM      3  C   UNL     1       2.219   5.533  18.436  0.00  0.00    +0.000 A 
ATOM      4  C   UNL     1       2.525   4.154  18.529  0.00  0.00    +0.000 A 
ATOM      5  C   UNL     1       3.840   3.725  18.137  0.00  0.00    +0.000 A 
ATOM      6  C   UNL     1       4.753   4.687  17.682  0.00  0.00    +0.000 A 
ATOM      7  C   UNL     1       4.421   6.023  17.592  0.00  0.00    +0.000 A 
ATOM      8  C   UNL     1       5.543   6.819  17.006  0.00  0.00    +0.000 C 
ATOM      9  C   UNL     1       6.722   5.826  16.967  0.00  0.00    +0.000 C 
ATOM     10  C   UNL     1       6.139   4.421  17.173  0.00  0.00    +0.000 C 
ENDROOT
BRANCH   4  11
ATOM     11  N   UNL     1       1.498   3.260  18.995  0.00  0.00    +0.000 N 
ATOM     12  O   UNL     1       1.363   2.189  18.483  0.00  0.00    +0.000 OA
ATOM     13  O   UNL     1       0.717   3.560  20.006  0.00  0.00    +0.000 OA
ENDBRANCH   4  11
BRANCH  10  14
ATOM     14  N   UNL     1       6.111   3.664  15.921  0.00  0.00    +0.000 NA
ATOM     15  H   UNL     1       5.531   4.154  15.204  0.00  0.00    +0.000 HD
ATOM     16  H   UNL     1       5.712   2.713  16.095  0.00  0.00    +0.000 HD
ENDBRANCH  10  14
BRANCH   5  17
ATOM     17  O   UNL     1       4.273   2.445  18.169  0.00  0.00    +0.000 OA
ATOM     18  H   UNL     1       3.814   1.662  17.862  0.00  0.00    +0.000 HD
ENDBRANCH   5  17
TORSDOF 3
ENDMDL
MODEL 8
REMARK VINA RESULT:      -6.5      2.498      4.487
REMARK  Name = 
REMARK  4 active torsions:
REMARK  status: ('A' for Active; 'I' for Inactive)
REMARK    1  A    between atoms: C_1  and  C_2
REMARK    2  A    between atoms: C_4  and  N_5
REMARK    3  A    between atoms: C_8  and  O_9
REMARK    4  A    between atoms: C_14  and  N_15
REMARK                            x       y       z     vdW  Elec       q    Type
REMARK                         _______ _______ _______ _____ _____    ______ ____
ROOT
ATOM      1  C   UNL     1       3.018   7.869  17.537  0.00  0.00    +0.000 C 
ATOM      2  C   UNL     1       3.606   6.559  17.988  0.00  0.00    +0.000 A 
ATOM      3  C   UNL     1       2.760   5.562  18.493  0.00  0.00    +0.000 A 
ATOM      4  C   UNL     1       3.249   4.301  18.912  0.00  0.00    +0.000 A 
ATOM      5  C   UNL     1       4.662   4.058  18.818  0.00  0.00    +0.000 A 
ATOM      6  C   UNL     1       5.487   5.075  18.318  0.00  0.00    +0.000 A 
ATOM      7  C   UNL     1       4.980   6.291  17.908  0.00  0.00    +0.000 A 
ATOM      8  C   UNL     1       6.057   7.162  17.347  0.00  0.00    +0.000 C 
ATOM      9  C   UNL     1       7.359   6.411  17.689  0.00  0.00    +0.000 C 
ATOM     10  C   UNL     1       6.967   4.981  18.089  0.00  0.00    +0.000 C 
ENDROOT
BRANCH   4  11
ATOM     11  N   UNL     1       2.299   3.331  19.392  0.00  0.00    +0.000 N 
ATOM     12  O   UNL     1       1.213   3.685  19.743  0.00  0.00    +0.000 OA
ATOM     13  O   UNL     1       2.565   2.047  19.420  0.00  0.00    +0.000 OA
ENDBRANCH   4  11
BRANCH  10  14
ATOM     14  N   UNL     1       7.282   4.023  17.029  0.00  0.00    +0.000 NA
ATOM     15  H   UNL     1       6.612   4.116  16.234  0.00  0.00    +0.000 HD
ATOM     16  H   UNL     1       7.232   3.051  17.409  0.00  0.00    +0.000 HD
ENDBRANCH  10  14
BRANCH   5  17
ATOM     17  O   UNL     1       5.269   2.905  19.177  0.00  0.00    +0.000 OA
ATOM     18  H   UNL     1       5.233   2.059  18.729  0.00  0.00    +0.000 HD
ENDBRANCH   5  17
TORSDOF 3
ENDMDL
MODEL 9
REMARK VINA RESULT:      -6.4      1.844      1.989
REMARK  Name = 
REMARK  4 active torsions:
REMARK  status: ('A' for Active; 'I' for Inactive)
REMARK    1  A    between atoms: C_1  and  C_2
REMARK    2  A    between atoms: C_4  and  N_5
REMARK    3  A    between atoms: C_8  and  O_9
REMARK    4  A    between atoms: C_14  and  N_15
REMARK                            x       y       z     vdW  Elec       q    Type
REMARK                         _______ _______ _______ _____ _____    ______ ____
ROOT
ATOM      1  C   UNL     1       2.737   7.674  17.521  0.00  0.00    +0.000 C 
ATOM      2  C   UNL     1       3.482   6.448  17.976  0.00  0.00    +0.000 A 
ATOM      3  C   UNL     1       4.842   6.550  18.299  0.00  0.00    +0.000 A 
ATOM      4  C   UNL     1       5.593   5.440  18.755  0.00  0.00    +0.000 A 
ATOM      5  C   UNL     1       4.925   4.174  18.872  0.00  0.00    +0.000 A 
ATOM      6  C   UNL     1       3.566   4.096  18.533  0.00  0.00    +0.000 A 
ATOM      7  C   UNL     1       2.858   5.199  18.102  0.00  0.00    +0.000 A 
ATOM      8  C   UNL     1       1.418   4.863  17.884  0.00  0.00    +0.000 C 
ATOM      9  C   UNL     1       1.372   3.327  18.005  0.00  0.00    +0.000 C 
ATOM     10  C   UNL     1       2.692   2.883  18.652  0.00  0.00    +0.000 C 
ENDROOT
BRANCH   4  11
ATOM     11  N   UNL     1       6.978   5.648  19.088  0.00  0.00    +0.000 N 
ATOM     12  O   UNL     1       7.410   5.234  20.122  0.00  0.00    +0.000 OA
ATOM     13  O   UNL     1       7.812   6.246  18.270  0.00  0.00    +0.000 OA
ENDBRANCH   4  11
BRANCH  10  14
ATOM     14  N   UNL     1       2.500   2.500  20.051  0.00  0.00    +0.000 NA
ATOM     15  H   UNL     1       3.304   2.817  20.637  0.00  0.00    +0.000 HD
ATOM     16  H   UNL     1       2.413   1.460  20.121  0.00  0.00    +0.000 HD
ENDBRANCH  10  14
BRANCH   5  17
ATOM     17  O   UNL     1       5.511   3.030  19.294  0.00  0.00    +0.000 OA
ATOM     18  H   UNL     1       5.869   2.322  18.758  0.00  0.00    +0.000 HD
ENDBRANCH   5  17
TORSDOF 3
ENDMDL
