MODEL 1
REMARK VINA RESULT:      -9.2      0.000      0.000
REMARK  Name = 
REMARK  8 active torsions:
REMARK  status: ('A' for Active; 'I' for Inactive)
REMARK    1  A    between atoms: C_1  and  S_2
REMARK    2  A    between atoms: S_2  and  N_5
REMARK    3  A    between atoms: N_5  and  C_6
REMARK    4  A    between atoms: C_8  and  N_9
REMARK    5  A    between atoms: N_9  and  C_10
REMARK    6  A    between atoms: C_25  and  N_26
REMARK    7  A    between atoms: N_26  and  S_27
REMARK    8  A    between atoms: S_27  and  C_28
REMARK                            x       y       z     vdW  Elec       q    Type
REMARK                         _______ _______ _______ _____ _____    ______ ____
ROOT
ATOM      1  C   UNL     1       0.262  10.230  18.346  0.00  0.00    +0.000 A 
ATOM      2  C   UNL     1       1.165   9.274  17.869  0.00  0.00    +0.000 A 
ATOM      3  C   UNL     1       1.902   8.487  18.768  0.00  0.00    +0.000 A 
ATOM      4  C   UNL     1       1.594   8.585  20.123  0.00  0.00    +0.000 A 
ATOM      5  C   UNL     1       0.822   9.646  20.592  0.00  0.00    +0.000 A 
ATOM      6  C   UNL     1       0.128  10.459  19.707  0.00  0.00    +0.000 A 
ENDROOT
BRANCH   1   7
ATOM      7  N   UNL     1      -0.560  10.958  17.445  0.00  0.00    +0.000 N 
ATOM      8  H   UNL     1      -0.405  11.967  17.417  0.00  0.00    +0.000 HD
BRANCH   7  10
ATOM      9  C   UNL     1      -2.718  10.789  15.835  0.00  0.00    +0.000 C 
ATOM     10  S   UNL     1      -2.233  10.698  17.546  0.00  0.00    +0.000 S 
ATOM     11  O   UNL     1      -2.780  11.837  18.239  0.00  0.00    +0.000 OA
ATOM     12  O   UNL     1      -2.473   9.354  18.036  0.00  0.00    +0.000 OA
ENDBRANCH   7  10
ENDBRANCH   1   7
BRANCH   3  13
ATOM     13  N   UNL     1       2.957   7.682  18.291  0.00  0.00    +0.000 N 
ATOM     14  H   UNL     1       3.867   8.047  18.569  0.00  0.00    +0.000 HD
BRANCH  13  15
ATOM     15  C   UNL     1       3.072   6.275  18.019  0.00  0.00    +0.000 A 
ATOM     16  C   UNL     1       2.398   5.216  18.736  0.00  0.00    +0.000 A 
ATOM     17  C   UNL     1       1.734   5.255  19.988  0.00  0.00    +0.000 A 
ATOM     18  C   UNL     1       0.960   4.193  20.457  0.00  0.00    +0.000 A 
ATOM     19  C   UNL     1       0.873   3.037  19.705  0.00  0.00    +0.000 A 
ATOM     20  C   UNL     1       1.707   2.897  18.602  0.00  0.00    +0.000 A 
ATOM     21  C   UNL     1       2.554   3.927  18.216  0.00  0.00    +0.000 A 
ATOM     22  N   UNL     1       3.630   3.628  17.499  0.00  0.00    +0.000 NA
ATOM     23  C   UNL     1       4.494   4.625  17.314  0.00  0.00    +0.000 A 
ATOM     24  C   UNL     1       5.758   4.615  17.891  0.00  0.00    +0.000 A 
ATOM     25  C   UNL     1       6.606   5.723  17.782  0.00  0.00    +0.000 A 
ATOM     26  C   UNL     1       6.257   6.731  16.890  0.00  0.00    +0.000 A 
ATOM     27  C   UNL     1       4.952   6.762  16.430  0.00  0.00    +0.000 A 
ATOM     28  C   UNL     1       4.048   5.890  17.057  0.00  0.00    +0.000 A 
ENDBRANCH  13  15
ENDBRANCH   3  13
BRANCH   5  29
ATOM     29  N   UNL     1       0.930  10.069  21.944  0.00  0.00    +0.000 N 
ATOM     30  H   UNL     1       1.864   9.981  22.346  0.00  0.00    +0.000 HD
BRANCH  29  31
ATOM     31  S   UNL     1      -0.207   9.534  23.072  0.00  0.00    +0.000 S 
ATOM     32  C   UNL     1      -1.295  10.939  23.089  0.00  0.00    +0.000 C 
ATOM     33  O   UNL     1      -0.905   8.379  22.561  0.00  0.00    +0.000 OA
ATOM     34  O   UNL     1       0.500   9.504  24.333  0.00  0.00    +0.000 OA
ENDBRANCH  29  31
ENDBRANCH   5  29
TORSDOF 6
ENDMDL
MODEL 2
REMARK VINA RESULT:      -9.2      0.987      4.688
REMARK  Name = 
REMARK  8 active torsions:
REMARK  status: ('A' for Active; 'I' for Inactive)
REMARK    1  A    between atoms: C_1  and  S_2
REMARK    2  A    between atoms: S_2  and  N_5
REMARK    3  A    between atoms: N_5  and  C_6
REMARK    4  A    between atoms: C_8  and  N_9
REMARK    5  A    between atoms: N_9  and  C_10
REMARK    6  A    between atoms: C_25  and  N_26
REMARK    7  A    between atoms: N_26  and  S_27
REMARK    8  A    between atoms: S_27  and  C_28
REMARK                            x       y       z     vdW  Elec       q    Type
REMARK                         _______ _______ _______ _____ _____    ______ ____
ROOT
ATOM      1  C   UNL     1       1.260   9.358  20.568  0.00  0.00    +0.000 A 
ATOM      2  C   UNL     1       1.883   8.203  20.087  0.00  0.00    +0.000 A 
ATOM      3  C   UNL     1       1.899   7.929  18.710  0.00  0.00    +0.000 A 
ATOM      4  C   UNL     1       1.415   8.908  17.846  0.00  0.00    +0.000 A 
ATOM      5  C   UNL     1       0.656   9.966  18.341  0.00  0.00    +0.000 A 
ATOM      6  C   UNL     1       0.596  10.215  19.704  0.00  0.00    +0.000 A 
ENDROOT
BRANCH   1   7
ATOM      7  N   UNL     1       1.328   9.694  21.947  0.00  0.00    +0.000 N 
ATOM      8  H   UNL     1       2.095   9.271  22.471  0.00  0.00    +0.000 HD
BRANCH   7  10
ATOM      9  C   UNL     1      -0.939  11.027  22.548  0.00  0.00    +0.000 C 
ATOM     10  S   UNL     1      -0.088   9.494  22.859  0.00  0.00    +0.000 S 
ATOM     11  O   UNL     1       0.320   9.469  24.241  0.00  0.00    +0.000 OA
ATOM     12  O   UNL     1      -0.860   8.400  22.300  0.00  0.00    +0.000 OA
ENDBRANCH   7  10
ENDBRANCH   1   7
BRANCH   3  13
ATOM     13  N   UNL     1       2.338   6.669  18.253  0.00  0.00    +0.000 N 
ATOM     14  H   UNL     1       2.127   6.531  17.265  0.00  0.00    +0.000 HD
BRANCH  13  15
ATOM     15  C   UNL     1       3.429   5.813  18.630  0.00  0.00    +0.000 A 
ATOM     16  C   UNL     1       4.822   6.022  18.301  0.00  0.00    +0.000 A 
ATOM     17  C   UNL     1       5.401   6.892  17.343  0.00  0.00    +0.000 A 
ATOM     18  C   UNL     1       6.775   7.125  17.280  0.00  0.00    +0.000 A 
ATOM     19  C   UNL     1       7.615   6.449  18.146  0.00  0.00    +0.000 A 
ATOM     20  C   UNL     1       7.087   5.423  18.919  0.00  0.00    +0.000 A 
ATOM     21  C   UNL     1       5.730   5.132  18.884  0.00  0.00    +0.000 A 
ATOM     22  N   UNL     1       5.333   3.916  19.235  0.00  0.00    +0.000 NA
ATOM     23  C   UNL     1       4.049   3.642  19.009  0.00  0.00    +0.000 A 
ATOM     24  C   UNL     1       3.655   2.714  18.051  0.00  0.00    +0.000 A 
ATOM     25  C   UNL     1       2.302   2.526  17.748  0.00  0.00    +0.000 A 
ATOM     26  C   UNL     1       1.355   3.107  18.583  0.00  0.00    +0.000 A 
ATOM     27  C   UNL     1       1.779   4.107  19.442  0.00  0.00    +0.000 A 
ATOM     28  C   UNL     1       3.087   4.579  19.252  0.00  0.00    +0.000 A 
ENDBRANCH  13  15
ENDBRANCH   3  13
BRANCH   5  29
ATOM     29  N   UNL     1      -0.264  10.645  17.496  0.00  0.00    +0.000 N 
ATOM     30  H   UNL     1       0.027  11.583  17.214  0.00  0.00    +0.000 HD
BRANCH  29  31
ATOM     31  S   UNL     1      -1.900  10.679  17.912  0.00  0.00    +0.000 S 
ATOM     32  C   UNL     1      -2.608  11.005  16.315  0.00  0.00    +0.000 C 
ATOM     33  O   UNL     1      -2.319   9.380  18.379  0.00  0.00    +0.000 OA
ATOM     34  O   UNL     1      -2.058  11.869  18.719  0.00  0.00    +0.000 OA
ENDBRANCH  29  31
ENDBRANCH   5  29
TORSDOF 6
ENDMDL
MODEL 3
REMARK VINA RESULT:      -9.0      0.564      3.656
REMARK  Name = 
REMARK  8 active torsions:
REMARK  status: ('A' for Active; 'I' for Inactive)
REMARK    1  A    between atoms: C_1  and  S_2
REMARK    2  A    between atoms: S_2  and  N_5
REMARK    3  A    between atoms: N_5  and  C_6
REMARK    4  A    between atoms: C_8  and  N_9
REMARK    5  A    between atoms: N_9  and  C_10
REMARK    6  A    between atoms: C_25  and  N_26
REMARK    7  A    between atoms: N_26  and  S_27
REMARK    8  A    between atoms: S_27  and  C_28
REMARK                            x       y       z     vdW  Elec       q    Type
REMARK                         _______ _______ _______ _____ _____    ______ ____
ROOT
ATOM      1  C   UNL     1       0.697   9.953  20.281  0.00  0.00    +0.000 A 
ATOM      2  C   UNL     1       1.813   9.138  20.065  0.00  0.00    +0.000 A 
ATOM      3  C   UNL     1       2.051   8.586  18.796  0.00  0.00    +0.000 A 
ATOM      4  C   UNL     1       1.236   8.998  17.744  0.00  0.00    +0.000 A 
ATOM      5  C   UNL     1       0.044   9.670  18.003  0.00  0.00    +0.000 A 
ATOM      6  C   UNL     1      -0.221  10.177  19.267  0.00  0.00    +0.000 A 
ENDROOT
BRANCH   1   7
ATOM      7  N   UNL     1       0.505  10.596  21.533  0.00  0.00    +0.000 N 
ATOM      8  H   UNL     1       1.336  11.022  21.947  0.00  0.00    +0.000 HD
BRANCH   7  10
ATOM      9  C   UNL     1      -1.587  10.808  23.222  0.00  0.00    +0.000 C 
ATOM     10  S   UNL     1      -0.274   9.704  22.746  0.00  0.00    +0.000 S 
ATOM     11  O   UNL     1       0.659   9.604  23.840  0.00  0.00    +0.000 OA
ATOM     12  O   UNL     1      -0.849   8.509  22.158  0.00  0.00    +0.000 OA
ENDBRANCH   7  10
ENDBRANCH   1   7
BRANCH   3  13
ATOM     13  N   UNL     1       3.049   7.602  18.638  0.00  0.00    +0.000 N 
ATOM     14  H   UNL     1       3.800   7.713  19.318  0.00  0.00    +0.000 HD
BRANCH  13  15
ATOM     15  C   UNL     1       3.021   6.241  18.178  0.00  0.00    +0.000 A 
ATOM     16  C   UNL     1       2.312   5.149  18.808  0.00  0.00    +0.000 A 
ATOM     17  C   UNL     1       1.749   5.069  20.107  0.00  0.00    +0.000 A 
ATOM     18  C   UNL     1       0.923   4.016  20.500  0.00  0.00    +0.000 A 
ATOM     19  C   UNL     1       0.680   2.982  19.615  0.00  0.00    +0.000 A 
ATOM     20  C   UNL     1       1.413   2.929  18.436  0.00  0.00    +0.000 A 
ATOM     21  C   UNL     1       2.316   3.934  18.115  0.00  0.00    +0.000 A 
ATOM     22  N   UNL     1       3.305   3.653  17.276  0.00  0.00    +0.000 NA
ATOM     23  C   UNL     1       4.236   4.597  17.147  0.00  0.00    +0.000 A 
ATOM     24  C   UNL     1       5.535   4.413  17.609  0.00  0.00    +0.000 A 
ATOM     25  C   UNL     1       6.466   5.457  17.570  0.00  0.00    +0.000 A 
ATOM     26  C   UNL     1       6.140   6.599  16.850  0.00  0.00    +0.000 A 
ATOM     27  C   UNL     1       4.812   6.793  16.510  0.00  0.00    +0.000 A 
ATOM     28  C   UNL     1       3.885   5.915  17.095  0.00  0.00    +0.000 A 
ENDBRANCH  13  15
ENDBRANCH   3  13
BRANCH   5  29
ATOM     29  N   UNL     1      -1.021   9.628  17.062  0.00  0.00    +0.000 N 
ATOM     30  H   UNL     1      -0.728   9.568  16.086  0.00  0.00    +0.000 HD
BRANCH  29  31
ATOM     31  S   UNL     1      -2.281  10.746  17.189  0.00  0.00    +0.000 S 
ATOM     32  C   UNL     1      -2.834  10.765  15.501  0.00  0.00    +0.000 C 
ATOM     33  O   UNL     1      -3.321  10.224  18.041  0.00  0.00    +0.000 OA
ATOM     34  O   UNL     1      -1.635  12.011  17.459  0.00  0.00    +0.000 OA
ENDBRANCH  29  31
ENDBRANCH   5  29
TORSDOF 6
ENDMDL
MODEL 4
REMARK VINA RESULT:      -8.9      1.239      3.302
REMARK  Name = 
REMARK  8 active torsions:
REMARK  status: ('A' for Active; 'I' for Inactive)
REMARK    1  A    between atoms: C_1  and  S_2
REMARK    2  A    between atoms: S_2  and  N_5
REMARK    3  A    between atoms: N_5  and  C_6
REMARK    4  A    between atoms: C_8  and  N_9
REMARK    5  A    between atoms: N_9  and  C_10
REMARK    6  A    between atoms: C_25  and  N_26
REMARK    7  A    between atoms: N_26  and  S_27
REMARK    8  A    between atoms: S_27  and  C_28
REMARK                            x       y       z     vdW  Elec       q    Type
REMARK                         _______ _______ _______ _____ _____    ______ ____
ROOT
ATOM      1  C   UNL     1       0.497  10.061  18.367  0.00  0.00    +0.000 A 
ATOM      2  C   UNL     1       1.227   9.042  17.746  0.00  0.00    +0.000 A 
ATOM      3  C   UNL     1       1.899   8.082  18.519  0.00  0.00    +0.000 A 
ATOM      4  C   UNL     1       1.688   8.091  19.896  0.00  0.00    +0.000 A 
ATOM      5  C   UNL     1       1.101   9.197  20.508  0.00  0.00    +0.000 A 
ATOM      6  C   UNL     1       0.477  10.176  19.748  0.00  0.00    +0.000 A 
ENDROOT
BRANCH   1   7
ATOM      7  N   UNL     1      -0.267  10.975  17.592  0.00  0.00    +0.000 N 
ATOM      8  H   UNL     1      -0.073  11.964  17.752  0.00  0.00    +0.000 HD
BRANCH   7  10
ATOM      9  C   UNL     1      -2.449  11.942  18.849  0.00  0.00    +0.000 C 
ATOM     10  S   UNL     1      -1.950  10.773  17.601  0.00  0.00    +0.000 S 
ATOM     11  O   UNL     1      -2.198   9.442  18.095  0.00  0.00    +0.000 OA
ATOM     12  O   UNL     1      -2.483  11.192  16.318  0.00  0.00    +0.000 OA
ENDBRANCH   7  10
ENDBRANCH   1   7
BRANCH   3  13
ATOM     13  N   UNL     1       2.800   7.191  17.900  0.00  0.00    +0.000 N 
ATOM     14  H   UNL     1       3.123   7.545  17.001  0.00  0.00    +0.000 HD
BRANCH  13  15
ATOM     15  C   UNL     1       3.758   6.250  18.412  0.00  0.00    +0.000 A 
ATOM     16  C   UNL     1       5.195   6.349  18.284  0.00  0.00    +0.000 A 
ATOM     17  C   UNL     1       5.969   7.174  17.430  0.00  0.00    +0.000 A 
ATOM     18  C   UNL     1       7.352   7.298  17.562  0.00  0.00    +0.000 A 
ATOM     19  C   UNL     1       8.007   6.554  18.526  0.00  0.00    +0.000 A 
ATOM     20  C   UNL     1       7.298   5.570  19.203  0.00  0.00    +0.000 A 
ATOM     21  C   UNL     1       5.940   5.388  18.974  0.00  0.00    +0.000 A 
ATOM     22  N   UNL     1       5.405   4.205  19.248  0.00  0.00    +0.000 NA
ATOM     23  C   UNL     1       4.147   4.035  18.841  0.00  0.00    +0.000 A 
ATOM     24  C   UNL     1       3.820   3.146  17.824  0.00  0.00    +0.000 A 
ATOM     25  C   UNL     1       2.512   3.067  17.332  0.00  0.00    +0.000 A 
ATOM     26  C   UNL     1       1.506   3.718  18.036  0.00  0.00    +0.000 A 
ATOM     27  C   UNL     1       1.882   4.677  18.961  0.00  0.00    +0.000 A 
ATOM     28  C   UNL     1       3.236   5.045  18.962  0.00  0.00    +0.000 A 
ENDBRANCH  13  15
ENDBRANCH   3  13
BRANCH   5  29
ATOM     29  N   UNL     1       1.348   9.472  21.880  0.00  0.00    +0.000 N 
ATOM     30  H   UNL     1       2.148   8.979  22.278  0.00  0.00    +0.000 HD
BRANCH  29  31
ATOM     31  S   UNL     1       0.066   9.415  22.978  0.00  0.00    +0.000 S 
ATOM     32  C   UNL     1      -0.632  11.026  22.706  0.00  0.00    +0.000 C 
ATOM     33  O   UNL     1      -0.878   8.399  22.584  0.00  0.00    +0.000 OA
ATOM     34  O   UNL     1       0.689   9.416  24.283  0.00  0.00    +0.000 OA
ENDBRANCH  29  31
ENDBRANCH   5  29
TORSDOF 6
ENDMDL
MODEL 5
REMARK VINA RESULT:      -8.8      1.271      3.531
REMARK  Name = 
REMARK  8 active torsions:
REMARK  status: ('A' for Active; 'I' for Inactive)
REMARK    1  A    between atoms: C_1  and  S_2
REMARK    2  A    between atoms: S_2  and  N_5
REMARK    3  A    between atoms: N_5  and  C_6
REMARK    4  A    between atoms: C_8  and  N_9
REMARK    5  A    between atoms: N_9  and  C_10
REMARK    6  A    between atoms: C_25  and  N_26
REMARK    7  A    between atoms: N_26  and  S_27
REMARK    8  A    between atoms: S_27  and  C_28
REMARK                            x       y       z     vdW  Elec       q    Type
REMARK                         _______ _______ _______ _____ _____    ______ ____
ROOT
ATOM      1  C   UNL     1       0.027   9.676  20.460  0.00  0.00    +0.000 A 
ATOM      2  C   UNL     1       1.175   8.879  20.402  0.00  0.00    +0.000 A 
ATOM      3  C   UNL     1       1.722   8.517  19.161  0.00  0.00    +0.000 A 
ATOM      4  C   UNL     1       1.180   9.096  18.016  0.00  0.00    +0.000 A 
ATOM      5  C   UNL     1      -0.051   9.747  18.076  0.00  0.00    +0.000 A 
ATOM      6  C   UNL     1      -0.622  10.066  19.299  0.00  0.00    +0.000 A 
ENDROOT
BRANCH   1   7
ATOM      7  N   UNL     1      -0.473  10.130  21.710  0.00  0.00    +0.000 N 
ATOM      8  H   UNL     1      -1.405   9.799  21.963  0.00  0.00    +0.000 HD
BRANCH   7  10
ATOM      9  C   UNL     1      -1.790  12.379  21.014  0.00  0.00    +0.000 C 
ATOM     10  S   UNL     1      -0.424  11.800  21.999  0.00  0.00    +0.000 S 
ATOM     11  O   UNL     1       0.801  12.279  21.410  0.00  0.00    +0.000 OA
ATOM     12  O   UNL     1      -0.712  12.045  23.400  0.00  0.00    +0.000 OA
ENDBRANCH   7  10
ENDBRANCH   1   7
BRANCH   3  13
ATOM     13  N   UNL     1       2.745   7.548  19.104  0.00  0.00    +0.000 N 
ATOM     14  H   UNL     1       3.338   7.575  19.933  0.00  0.00    +0.000 HD
BRANCH  13  15
ATOM     15  C   UNL     1       2.831   6.247  18.500  0.00  0.00    +0.000 A 
ATOM     16  C   UNL     1       2.211   5.039  18.998  0.00  0.00    +0.000 A 
ATOM     17  C   UNL     1       1.649   4.774  20.272  0.00  0.00    +0.000 A 
ATOM     18  C   UNL     1       0.909   3.620  20.537  0.00  0.00    +0.000 A 
ATOM     19  C   UNL     1       0.757   2.672  19.543  0.00  0.00    +0.000 A 
ATOM     20  C   UNL     1       1.500   2.807  18.376  0.00  0.00    +0.000 A 
ATOM     21  C   UNL     1       2.319   3.911  18.179  0.00  0.00    +0.000 A 
ATOM     22  N   UNL     1       3.332   3.803  17.329  0.00  0.00    +0.000 NA
ATOM     23  C   UNL     1       4.184   4.829  17.316  0.00  0.00    +0.000 A 
ATOM     24  C   UNL     1       5.490   4.700  17.774  0.00  0.00    +0.000 A 
ATOM     25  C   UNL     1       6.332   5.814  17.862  0.00  0.00    +0.000 A 
ATOM     26  C   UNL     1       5.918   6.999  17.264  0.00  0.00    +0.000 A 
ATOM     27  C   UNL     1       4.581   7.119  16.928  0.00  0.00    +0.000 A 
ATOM     28  C   UNL     1       3.726   6.112  17.401  0.00  0.00    +0.000 A 
ENDBRANCH  13  15
ENDBRANCH   3  13
BRANCH   5  29
ATOM     29  N   UNL     1      -0.856   9.867  16.910  0.00  0.00    +0.000 N 
ATOM     30  H   UNL     1      -0.405  10.340  16.126  0.00  0.00    +0.000 HD
BRANCH  29  31
ATOM     31  S   UNL     1      -2.441  10.431  17.055  0.00  0.00    +0.000 S 
ATOM     32  C   UNL     1      -2.892  10.497  15.337  0.00  0.00    +0.000 C 
ATOM     33  O   UNL     1      -3.254   9.454  17.737  0.00  0.00    +0.000 OA
ATOM     34  O   UNL     1      -2.315  11.789  17.533  0.00  0.00    +0.000 OA
ENDBRANCH  29  31
ENDBRANCH   5  29
TORSDOF 6
ENDMDL
MODEL 6
REMARK VINA RESULT:      -8.7      1.159      4.714
REMARK  Name = 
REMARK  8 active torsions:
REMARK  status: ('A' for Active; 'I' for Inactive)
REMARK    1  A    between atoms: C_1  and  S_2
REMARK    2  A    between atoms: S_2  and  N_5
REMARK    3  A    between atoms: N_5  and  C_6
REMARK    4  A    between atoms: C_8  and  N_9
REMARK    5  A    between atoms: N_9  and  C_10
REMARK    6  A    between atoms: C_25  and  N_26
REMARK    7  A    between atoms: N_26  and  S_27
REMARK    8  A    between atoms: S_27  and  C_28
REMARK                            x       y       z     vdW  Elec       q    Type
REMARK                         _______ _______ _______ _____ _____    ______ ____
ROOT
ATOM      1  C   UNL     1       1.291   9.326  20.765  0.00  0.00    +0.000 A 
ATOM      2  C   UNL     1       1.812   8.109  20.314  0.00  0.00    +0.000 A 
ATOM      3  C   UNL     1       1.844   7.819  18.941  0.00  0.00    +0.000 A 
ATOM      4  C   UNL     1       1.487   8.831  18.053  0.00  0.00    +0.000 A 
ATOM      5  C   UNL     1       0.820   9.964  18.514  0.00  0.00    +0.000 A 
ATOM      6  C   UNL     1       0.742  10.234  19.872  0.00  0.00    +0.000 A 
ENDROOT
BRANCH   1   7
ATOM      7  N   UNL     1       1.348   9.669  22.142  0.00  0.00    +0.000 N 
ATOM      8  H   UNL     1       2.084   9.214  22.684  0.00  0.00    +0.000 HD
BRANCH   7  10
ATOM      9  C   UNL     1      -0.848  11.126  22.714  0.00  0.00    +0.000 C 
ATOM     10  S   UNL     1      -0.093   9.545  23.028  0.00  0.00    +0.000 S 
ATOM     11  O   UNL     1       0.287   9.487  24.416  0.00  0.00    +0.000 OA
ATOM     12  O   UNL     1      -0.917   8.502  22.446  0.00  0.00    +0.000 OA
ENDBRANCH   7  10
ENDBRANCH   1   7
BRANCH   3  13
ATOM     13  N   UNL     1       2.171   6.516  18.509  0.00  0.00    +0.000 N 
ATOM     14  H   UNL     1       1.834   6.337  17.563  0.00  0.00    +0.000 HD
BRANCH  13  15
ATOM     15  C   UNL     1       3.264   5.631  18.800  0.00  0.00    +0.000 A 
ATOM     16  C   UNL     1       4.478   5.500  18.025  0.00  0.00    +0.000 A 
ATOM     17  C   UNL     1       4.762   5.951  16.711  0.00  0.00    +0.000 A 
ATOM     18  C   UNL     1       6.048   5.921  16.172  0.00  0.00    +0.000 A 
ATOM     19  C   UNL     1       7.081   5.385  16.919  0.00  0.00    +0.000 A 
ATOM     20  C   UNL     1       6.773   4.725  18.103  0.00  0.00    +0.000 A 
ATOM     21  C   UNL     1       5.465   4.671  18.567  0.00  0.00    +0.000 A 
ATOM     22  N   UNL     1       5.127   3.689  19.392  0.00  0.00    +0.000 NA
ATOM     23  C   UNL     1       3.825   3.584  19.658  0.00  0.00    +0.000 A 
ATOM     24  C   UNL     1       3.072   2.503  19.213  0.00  0.00    +0.000 A 
ATOM     25  C   UNL     1       1.686   2.469  19.402  0.00  0.00    +0.000 A 
ATOM     26  C   UNL     1       1.115   3.414  20.246  0.00  0.00    +0.000 A 
ATOM     27  C   UNL     1       1.868   4.529  20.570  0.00  0.00    +0.000 A 
ATOM     28  C   UNL     1       3.066   4.700  19.859  0.00  0.00    +0.000 A 
ENDBRANCH  13  15
ENDBRANCH   3  13
BRANCH   5  29
ATOM     29  N   UNL     1      -0.001  10.720  17.633  0.00  0.00    +0.000 N 
ATOM     30  H   UNL     1       0.292  11.690  17.504  0.00  0.00    +0.000 HD
BRANCH  29  31
ATOM     31  S   UNL     1      -1.678  10.673  17.821  0.00  0.00    +0.000 S 
ATOM     32  C   UNL     1      -1.903  12.102  18.853  0.00  0.00    +0.000 C 
ATOM     33  O   UNL     1      -2.325  10.880  16.549  0.00  0.00    +0.000 OA
ATOM     34  O   UNL     1      -1.933   9.499  18.626  0.00  0.00    +0.000 OA
ENDBRANCH  29  31
ENDBRANCH   5  29
TORSDOF 6
ENDMDL
MODEL 7
REMARK VINA RESULT:      -8.6      1.356      4.768
REMARK  Name = 
REMARK  8 active torsions:
REMARK  status: ('A' for Active; 'I' for Inactive)
REMARK    1  A    between atoms: C_1  and  S_2
REMARK    2  A    between atoms: S_2  and  N_5
REMARK    3  A    between atoms: N_5  and  C_6
REMARK    4  A    between atoms: C_8  and  N_9
REMARK    5  A    between atoms: N_9  and  C_10
REMARK    6  A    between atoms: C_25  and  N_26
REMARK    7  A    between atoms: N_26  and  S_27
REMARK    8  A    between atoms: S_27  and  C_28
REMARK                            x       y       z     vdW  Elec       q    Type
REMARK                         _______ _______ _______ _____ _____    ______ ____
ROOT
ATOM      1  C   UNL     1       1.157   9.312  20.383  0.00  0.00    +0.000 A 
ATOM      2  C   UNL     1       1.970   8.321  19.824  0.00  0.00    +0.000 A 
ATOM      3  C   UNL     1       1.877   8.019  18.456  0.00  0.00    +0.000 A 
ATOM      4  C   UNL     1       1.072   8.833  17.662  0.00  0.00    +0.000 A 
ATOM      5  C   UNL     1       0.153   9.698  18.252  0.00  0.00    +0.000 A 
ATOM      6  C   UNL     1       0.207   9.965  19.613  0.00  0.00    +0.000 A 
ENDROOT
BRANCH   1   7
ATOM      7  N   UNL     1       1.316   9.693  21.742  0.00  0.00    +0.000 N 
ATOM      8  H   UNL     1       2.137   9.315  22.217  0.00  0.00    +0.000 HD
BRANCH   7  10
ATOM      9  C   UNL     1      -0.910  10.992  22.536  0.00  0.00    +0.000 C 
ATOM     10  S   UNL     1      -0.017   9.469  22.766  0.00  0.00    +0.000 S 
ATOM     11  O   UNL     1       0.503   9.442  24.110  0.00  0.00    +0.000 OA
ATOM     12  O   UNL     1      -0.818   8.369  22.265  0.00  0.00    +0.000 OA
ENDBRANCH   7  10
ENDBRANCH   1   7
BRANCH   3  13
ATOM     13  N   UNL     1       2.539   6.884  17.943  0.00  0.00    +0.000 N 
ATOM     14  H   UNL     1       2.612   6.915  16.927  0.00  0.00    +0.000 HD
BRANCH  13  15
ATOM     15  C   UNL     1       3.568   6.028  18.467  0.00  0.00    +0.000 A 
ATOM     16  C   UNL     1       4.991   6.194  18.267  0.00  0.00    +0.000 A 
ATOM     17  C   UNL     1       5.681   7.002  17.329  0.00  0.00    +0.000 A 
ATOM     18  C   UNL     1       7.060   7.206  17.389  0.00  0.00    +0.000 A 
ATOM     19  C   UNL     1       7.796   6.559  18.365  0.00  0.00    +0.000 A 
ATOM     20  C   UNL     1       7.171   5.585  19.132  0.00  0.00    +0.000 A 
ATOM     21  C   UNL     1       5.817   5.318  18.978  0.00  0.00    +0.000 A 
ATOM     22  N   UNL     1       5.359   4.129  19.348  0.00  0.00    +0.000 NA
ATOM     23  C   UNL     1       4.096   3.868  19.012  0.00  0.00    +0.000 A 
ATOM     24  C   UNL     1       3.775   2.900  18.067  0.00  0.00    +0.000 A 
ATOM     25  C   UNL     1       2.454   2.723  17.641  0.00  0.00    +0.000 A 
ATOM     26  C   UNL     1       1.445   3.363  18.351  0.00  0.00    +0.000 A 
ATOM     27  C   UNL     1       1.807   4.397  19.197  0.00  0.00    +0.000 A 
ATOM     28  C   UNL     1       3.138   4.835  19.113  0.00  0.00    +0.000 A 
ENDBRANCH  13  15
ENDBRANCH   3  13
BRANCH   5  29
ATOM     29  N   UNL     1      -0.998  10.120  17.534  0.00  0.00    +0.000 N 
ATOM     30  H   UNL     1      -1.003   9.865  16.545  0.00  0.00    +0.000 HD
BRANCH  29  31
ATOM     31  S   UNL     1      -1.534  11.713  17.692  0.00  0.00    +0.000 S 
ATOM     32  C   UNL     1      -2.568  11.539  19.126  0.00  0.00    +0.000 C 
ATOM     33  O   UNL     1      -0.422  12.582  17.992  0.00  0.00    +0.000 OA
ATOM     34  O   UNL     1      -2.393  11.936  16.550  0.00  0.00    +0.000 OA
ENDBRANCH  29  31
ENDBRANCH   5  29
TORSDOF 6
ENDMDL
MODEL 8
REMARK VINA RESULT:      -8.2      0.991      3.594
REMARK  Name = 
REMARK  8 active torsions:
REMARK  status: ('A' for Active; 'I' for Inactive)
REMARK    1  A    between atoms: C_1  and  S_2
REMARK    2  A    between atoms: S_2  and  N_5
REMARK    3  A    between atoms: N_5  and  C_6
REMARK    4  A    between atoms: C_8  and  N_9
REMARK    5  A    between atoms: N_9  and  C_10
REMARK    6  A    between atoms: C_25  and  N_26
REMARK    7  A    between atoms: N_26  and  S_27
REMARK    8  A    between atoms: S_27  and  C_28
REMARK                            x       y       z     vdW  Elec       q    Type
REMARK                         _______ _______ _______ _____ _____    ______ ____
ROOT
ATOM      1  C   UNL     1       0.066   8.964  20.501  0.00  0.00    +0.000 A 
ATOM      2  C   UNL     1       1.265   8.282  20.272  0.00  0.00    +0.000 A 
ATOM      3  C   UNL     1       1.885   8.345  19.014  0.00  0.00    +0.000 A 
ATOM      4  C   UNL     1       1.353   9.218  18.068  0.00  0.00    +0.000 A 
ATOM      5  C   UNL     1       0.080   9.756  18.250  0.00  0.00    +0.000 A 
ATOM      6  C   UNL     1      -0.560   9.657  19.477  0.00  0.00    +0.000 A 
ENDROOT
BRANCH   1   7
ATOM      7  N   UNL     1      -0.513   8.989  21.798  0.00  0.00    +0.000 N 
ATOM      8  H   UNL     1      -1.531   8.925  21.832  0.00  0.00    +0.000 HD
BRANCH   7  10
ATOM      9  C   UNL     1      -1.596  11.062  23.142  0.00  0.00    +0.000 C 
ATOM     10  S   UNL     1      -0.043  10.250  22.829  0.00  0.00    +0.000 S 
ATOM     11  O   UNL     1       0.784  11.131  22.042  0.00  0.00    +0.000 OA
ATOM     12  O   UNL     1       0.456   9.686  24.069  0.00  0.00    +0.000 OA
ENDBRANCH   7  10
ENDBRANCH   1   7
BRANCH   3  13
ATOM     13  N   UNL     1       2.971   7.492  18.726  0.00  0.00    +0.000 N 
ATOM     14  H   UNL     1       3.771   7.682  19.330  0.00  0.00    +0.000 HD
BRANCH  13  15
ATOM     15  C   UNL     1       3.057   6.145  18.232  0.00  0.00    +0.000 A 
ATOM     16  C   UNL     1       2.375   4.996  18.783  0.00  0.00    +0.000 A 
ATOM     17  C   UNL     1       1.729   4.846  20.036  0.00  0.00    +0.000 A 
ATOM     18  C   UNL     1       0.943   3.735  20.344  0.00  0.00    +0.000 A 
ATOM     19  C   UNL     1       0.825   2.714  19.419  0.00  0.00    +0.000 A 
ATOM     20  C   UNL     1       1.640   2.739  18.294  0.00  0.00    +0.000 A 
ATOM     21  C   UNL     1       2.500   3.804  18.062  0.00  0.00    +0.000 A 
ATOM     22  N   UNL     1       3.560   3.606  17.288  0.00  0.00    +0.000 NA
ATOM     23  C   UNL     1       4.439   4.607  17.249  0.00  0.00    +0.000 A 
ATOM     24  C   UNL     1       5.711   4.486  17.796  0.00  0.00    +0.000 A 
ATOM     25  C   UNL     1       6.577   5.583  17.850  0.00  0.00    +0.000 A 
ATOM     26  C   UNL     1       6.233   6.725  17.136  0.00  0.00    +0.000 A 
ATOM     27  C   UNL     1       4.923   6.850  16.709  0.00  0.00    +0.000 A 
ATOM     28  C   UNL     1       4.013   5.903  17.205  0.00  0.00    +0.000 A 
ENDBRANCH  13  15
ENDBRANCH   3  13
BRANCH   5  29
ATOM     29  N   UNL     1      -0.683  10.186  17.130  0.00  0.00    +0.000 N 
ATOM     30  H   UNL     1      -0.223  10.882  16.541  0.00  0.00    +0.000 HD
BRANCH  29  31
ATOM     31  S   UNL     1      -2.296  10.633  17.351  0.00  0.00    +0.000 S 
ATOM     32  C   UNL     1      -2.087  11.913  18.566  0.00  0.00    +0.000 C 
ATOM     33  O   UNL     1      -2.825  11.195  16.133  0.00  0.00    +0.000 OA
ATOM     34  O   UNL     1      -2.914   9.500  18.002  0.00  0.00    +0.000 OA
ENDBRANCH  29  31
ENDBRANCH   5  29
TORSDOF 6
ENDMDL
MODEL 9
REMARK VINA RESULT:      -8.2      1.290      3.656
REMARK  Name = 
REMARK  8 active torsions:
REMARK  status: ('A' for Active; 'I' for Inactive)
REMARK    1  A    between atoms: C_1  and  S_2
REMARK    2  A    between atoms: S_2  and  N_5
REMARK    3  A    between atoms: N_5  and  C_6
REMARK    4  A    between atoms: C_8  and  N_9
REMARK    5  A    between atoms: N_9  and  C_10
REMARK    6  A    between atoms: C_25  and  N_26
REMARK    7  A    between atoms: N_26  and  S_27
REMARK    8  A    between atoms: S_27  and  C_28
REMARK                            x       y       z     vdW  Elec       q    Type
REMARK                         _______ _______ _______ _____ _____    ______ ____
ROOT
ATOM      1  C   UNL     1       1.517   8.875  20.556  0.00  0.00    +0.000 A 
ATOM      2  C   UNL     1       2.015   7.707  19.970  0.00  0.00    +0.000 A 
ATOM      3  C   UNL     1       2.020   7.563  18.574  0.00  0.00    +0.000 A 
ATOM      4  C   UNL     1       1.660   8.667  17.804  0.00  0.00    +0.000 A 
ATOM      5  C   UNL     1       1.016   9.752  18.394  0.00  0.00    +0.000 A 
ATOM      6  C   UNL     1       0.964   9.878  19.774  0.00  0.00    +0.000 A 
ENDROOT
BRANCH   1   7
ATOM      7  N   UNL     1       1.602   9.070  21.961  0.00  0.00    +0.000 N 
ATOM      8  H   UNL     1       2.119   8.359  22.478  0.00  0.00    +0.000 HD
BRANCH   7  10
ATOM      9  C   UNL     1      -0.297  10.972  22.195  0.00  0.00    +0.000 C 
ATOM     10  S   UNL     1       0.149   9.354  22.789  0.00  0.00    +0.000 S 
ATOM     11  O   UNL     1       0.491   9.456  24.185  0.00  0.00    +0.000 OA
ATOM     12  O   UNL     1      -0.843   8.394  22.343  0.00  0.00    +0.000 OA
ENDBRANCH   7  10
ENDBRANCH   1   7
BRANCH   3  13
ATOM     13  N   UNL     1       2.323   6.310  18.001  0.00  0.00    +0.000 N 
ATOM     14  H   UNL     1       2.239   6.329  16.985  0.00  0.00    +0.000 HD
BRANCH  13  15
ATOM     15  C   UNL     1       3.206   5.243  18.385  0.00  0.00    +0.000 A 
ATOM     16  C   UNL     1       3.062   4.405  19.554  0.00  0.00    +0.000 A 
ATOM     17  C   UNL     1       2.252   4.590  20.702  0.00  0.00    +0.000 A 
ATOM     18  C   UNL     1       2.074   3.592  21.661  0.00  0.00    +0.000 A 
ATOM     19  C   UNL     1       2.750   2.394  21.521  0.00  0.00    +0.000 A 
ATOM     20  C   UNL     1       3.725   2.291  20.538  0.00  0.00    +0.000 A 
ATOM     21  C   UNL     1       3.965   3.342  19.661  0.00  0.00    +0.000 A 
ATOM     22  N   UNL     1       5.151   3.417  19.073  0.00  0.00    +0.000 NA
ATOM     23  C   UNL     1       5.383   4.537  18.388  0.00  0.00    +0.000 A 
ATOM     24  C   UNL     1       6.330   5.467  18.805  0.00  0.00    +0.000 A 
ATOM     25  C   UNL     1       6.477   6.689  18.139  0.00  0.00    +0.000 A 
ATOM     26  C   UNL     1       5.830   6.854  16.920  0.00  0.00    +0.000 A 
ATOM     27  C   UNL     1       4.816   5.967  16.602  0.00  0.00    +0.000 A 
ATOM     28  C   UNL     1       4.401   5.100  17.626  0.00  0.00    +0.000 A 
ENDBRANCH  13  15
ENDBRANCH   3  13
BRANCH   5  29
ATOM     29  N   UNL     1       0.189  10.606  17.613  0.00  0.00    +0.000 N 
ATOM     30  H   UNL     1       0.564  11.543  17.463  0.00  0.00    +0.000 HD
BRANCH  29  31
ATOM     31  S   UNL     1      -1.455  10.723  17.977  0.00  0.00    +0.000 S 
ATOM     32  C   UNL     1      -2.138   9.966  16.522  0.00  0.00    +0.000 C 
ATOM     33  O   UNL     1      -1.764   9.923  19.137  0.00  0.00    +0.000 OA
ATOM     34  O   UNL     1      -1.752  12.137  17.923  0.00  0.00    +0.000 OA
ENDBRANCH  29  31
ENDBRANCH   5  29
TORSDOF 6
ENDMDL
