MODEL 1
REMARK VINA RESULT:      -7.5      0.000      0.000
REMARK  Name = 
REMARK  9 active torsions:
REMARK  status: ('A' for Active; 'I' for Inactive)
REMARK    1  A    between atoms: C_1  and  C_2
REMARK    2  A    between atoms: C_2  and  C_3
REMARK    3  A    between atoms: C_2  and  C_4
REMARK    4  A    between atoms: C_2  and  O_5
REMARK    5  A    between atoms: O_5  and  C_6
REMARK    6  A    between atoms: C_6  and  C_8
REMARK    7  A    between atoms: C_8  and  C_9
REMARK    8  A    between atoms: C_9  and  C_10
REMARK    9  A    between atoms: C_10  and  C_11
REMARK                            x       y       z     vdW  Elec       q    Type
REMARK                         _______ _______ _______ _____ _____    ______ ____
ROOT
ATOM      1  C   UNL     1       2.425   7.329  19.253  0.00  0.00    +0.000 A 
ATOM      2  C   UNL     1       2.467   7.989  18.028  0.00  0.00    +0.000 A 
ATOM      3  C   UNL     1       1.804   9.210  17.869  0.00  0.00    +0.000 A 
ATOM      4  C   UNL     1       1.075   9.788  18.924  0.00  0.00    +0.000 A 
ATOM      5  C   UNL     1       1.001   9.131  20.157  0.00  0.00    +0.000 A 
ATOM      6  C   UNL     1       1.687   7.905  20.296  0.00  0.00    +0.000 A 
ATOM      7  C   UNL     1       0.327   9.629  21.398  0.00  0.00    +0.000 C 
ATOM      8  O   UNL     1       0.568   9.002  22.433  0.00  0.00    +0.000 OA
ATOM      9  C   UNL     1      -0.580  10.763  21.383  0.00  0.00    +0.000 A 
ATOM     10  S   UNL     1      -1.195  11.315  22.892  0.00  0.00    +0.000 S 
ATOM     11  C   UNL     1      -2.105  12.549  22.158  0.00  0.00    +0.000 A 
ATOM     12  C   UNL     1      -1.955  12.547  20.790  0.00  0.00    +0.000 A 
ATOM     13  C   UNL     1      -1.083  11.502  20.328  0.00  0.00    +0.000 A 
ATOM     14  C   UNL     1      -0.772  11.241  18.895  0.00  0.00    +0.000 C 
ATOM     15  O   UNL     1       0.623  11.051  18.664  0.00  0.00    +0.000 OA
ENDROOT
BRANCH   1  16
ATOM     16  C   UNL     1       3.181   6.044  19.490  0.00  0.00    +0.000 C 
BRANCH  16  17
ATOM     17  C   UNL     1       2.350   4.784  19.234  0.00  0.00    +0.000 C 
BRANCH  17  18
ATOM     18  C   UNL     1       2.372   4.358  17.770  0.00  0.00    +0.000 C 
BRANCH  18  19
ATOM     19  C   UNL     1       3.575   3.496  17.502  0.00  0.00    +0.000 C 
ATOM     20  O   UNL     1       3.864   2.529  18.197  0.00  0.00    +0.000 OA
BRANCH  19  21
ATOM     21  O   UNL     1       4.234   3.913  16.387  0.00  0.00    +0.000 OA
BRANCH  21  23
ATOM     22  C   UNL     1       6.056   4.563  17.905  0.00  0.00    +0.000 C 
ATOM     23  C   UNL     1       5.427   4.733  16.516  0.00  0.00    +0.000 C 
ATOM     24  C   UNL     1       5.128   6.200  16.187  0.00  0.00    +0.000 C 
ATOM     25  C   UNL     1       6.422   4.198  15.472  0.00  0.00    +0.000 C 
ENDBRANCH  21  23
ENDBRANCH  19  21
ENDBRANCH  18  19
ENDBRANCH  17  18
ENDBRANCH  16  17
ENDBRANCH   1  16
TORSDOF 6
ENDMDL
MODEL 2
REMARK VINA RESULT:      -7.4      1.449      1.706
REMARK  Name = 
REMARK  9 active torsions:
REMARK  status: ('A' for Active; 'I' for Inactive)
REMARK    1  A    between atoms: C_1  and  C_2
REMARK    2  A    between atoms: C_2  and  C_3
REMARK    3  A    between atoms: C_2  and  C_4
REMARK    4  A    between atoms: C_2  and  O_5
REMARK    5  A    between atoms: O_5  and  C_6
REMARK    6  A    between atoms: C_6  and  C_8
REMARK    7  A    between atoms: C_8  and  C_9
REMARK    8  A    between atoms: C_9  and  C_10
REMARK    9  A    between atoms: C_10  and  C_11
REMARK                            x       y       z     vdW  Elec       q    Type
REMARK                         _______ _______ _______ _____ _____    ______ ____
ROOT
ATOM      1  C   UNL     1       2.270   6.896  19.689  0.00  0.00    +0.000 A 
ATOM      2  C   UNL     1       2.467   7.414  18.412  0.00  0.00    +0.000 A 
ATOM      3  C   UNL     1       1.966   8.678  18.086  0.00  0.00    +0.000 A 
ATOM      4  C   UNL     1       1.249   9.443  19.023  0.00  0.00    +0.000 A 
ATOM      5  C   UNL     1       1.021   8.934  20.305  0.00  0.00    +0.000 A 
ATOM      6  C   UNL     1       1.544   7.659  20.614  0.00  0.00    +0.000 A 
ATOM      7  C   UNL     1       0.337   9.634  21.439  0.00  0.00    +0.000 C 
ATOM      8  O   UNL     1       0.436   9.096  22.545  0.00  0.00    +0.000 OA
ATOM      9  C   UNL     1      -0.424  10.855  21.246  0.00  0.00    +0.000 A 
ATOM     10  S   UNL     1      -1.060  11.630  22.645  0.00  0.00    +0.000 S 
ATOM     11  C   UNL     1      -1.768  12.874  21.728  0.00  0.00    +0.000 A 
ATOM     12  C   UNL     1      -1.536  12.711  20.381  0.00  0.00    +0.000 A 
ATOM     13  C   UNL     1      -0.769  11.531  20.089  0.00  0.00    +0.000 A 
ATOM     14  C   UNL     1      -0.404  11.086  18.716  0.00  0.00    +0.000 C 
ATOM     15  O   UNL     1       0.970  10.716  18.607  0.00  0.00    +0.000 OA
ENDROOT
BRANCH   1  16
ATOM     16  C   UNL     1       2.850   5.566  20.106  0.00  0.00    +0.000 C 
BRANCH  16  17
ATOM     17  C   UNL     1       3.440   4.761  18.945  0.00  0.00    +0.000 C 
BRANCH  17  18
ATOM     18  C   UNL     1       4.780   4.124  19.297  0.00  0.00    +0.000 C 
BRANCH  18  19
ATOM     19  C   UNL     1       5.877   5.150  19.214  0.00  0.00    +0.000 C 
ATOM     20  O   UNL     1       6.888   5.095  19.905  0.00  0.00    +0.000 OA
BRANCH  19  21
ATOM     21  O   UNL     1       5.602   6.081  18.260  0.00  0.00    +0.000 OA
BRANCH  21  23
ATOM     22  C   UNL     1       7.053   4.787  16.755  0.00  0.00    +0.000 C 
ATOM     23  C   UNL     1       6.421   6.150  17.062  0.00  0.00    +0.000 C 
ATOM     24  C   UNL     1       7.467   7.267  17.172  0.00  0.00    +0.000 C 
ATOM     25  C   UNL     1       5.461   6.502  15.914  0.00  0.00    +0.000 C 
ENDBRANCH  21  23
ENDBRANCH  19  21
ENDBRANCH  18  19
ENDBRANCH  17  18
ENDBRANCH  16  17
ENDBRANCH   1  16
TORSDOF 6
ENDMDL
MODEL 3
REMARK VINA RESULT:      -7.3      1.286      1.668
REMARK  Name = 
REMARK  9 active torsions:
REMARK  status: ('A' for Active; 'I' for Inactive)
REMARK    1  A    between atoms: C_1  and  C_2
REMARK    2  A    between atoms: C_2  and  C_3
REMARK    3  A    between atoms: C_2  and  C_4
REMARK    4  A    between atoms: C_2  and  O_5
REMARK    5  A    between atoms: O_5  and  C_6
REMARK    6  A    between atoms: C_6  and  C_8
REMARK    7  A    between atoms: C_8  and  C_9
REMARK    8  A    between atoms: C_9  and  C_10
REMARK    9  A    between atoms: C_10  and  C_11
REMARK                            x       y       z     vdW  Elec       q    Type
REMARK                         _______ _______ _______ _____ _____    ______ ____
ROOT
ATOM      1  C   UNL     1       2.195   7.286  19.429  0.00  0.00    +0.000 A 
ATOM      2  C   UNL     1       2.348   7.925  18.201  0.00  0.00    +0.000 A 
ATOM      3  C   UNL     1       1.795   9.194  18.000  0.00  0.00    +0.000 A 
ATOM      4  C   UNL     1       1.068   9.842  19.014  0.00  0.00    +0.000 A 
ATOM      5  C   UNL     1       0.883   9.210  20.248  0.00  0.00    +0.000 A 
ATOM      6  C   UNL     1       1.459   7.934  20.430  0.00  0.00    +0.000 A 
ATOM      7  C   UNL     1       0.196   9.777  21.452  0.00  0.00    +0.000 C 
ATOM      8  O   UNL     1       0.336   9.145  22.502  0.00  0.00    +0.000 OA
ATOM      9  C   UNL     1      -0.614  10.980  21.384  0.00  0.00    +0.000 A 
ATOM     10  S   UNL     1      -1.251  11.600  22.857  0.00  0.00    +0.000 S 
ATOM     11  C   UNL     1      -2.022  12.893  22.070  0.00  0.00    +0.000 A 
ATOM     12  C   UNL     1      -1.810  12.862  20.710  0.00  0.00    +0.000 A 
ATOM     13  C   UNL     1      -1.006  11.744  20.299  0.00  0.00    +0.000 A 
ATOM     14  C   UNL     1      -0.651  11.440  18.885  0.00  0.00    +0.000 C 
ATOM     15  O   UNL     1       0.733  11.135  18.721  0.00  0.00    +0.000 OA
ENDROOT
BRANCH   1  16
ATOM     16  C   UNL     1       2.833   5.948  19.712  0.00  0.00    +0.000 C 
BRANCH  16  17
ATOM     17  C   UNL     1       2.617   4.915  18.603  0.00  0.00    +0.000 C 
BRANCH  17  18
ATOM     18  C   UNL     1       3.883   4.654  17.794  0.00  0.00    +0.000 C 
BRANCH  18  19
ATOM     19  C   UNL     1       5.083   4.656  18.699  0.00  0.00    +0.000 C 
ATOM     20  O   UNL     1       5.399   3.688  19.381  0.00  0.00    +0.000 OA
BRANCH  19  21
ATOM     21  O   UNL     1       5.759   5.834  18.609  0.00  0.00    +0.000 OA
BRANCH  21  23
ATOM     22  C   UNL     1       7.473   7.189  17.480  0.00  0.00    +0.000 C 
ATOM     23  C   UNL     1       7.133   5.844  18.135  0.00  0.00    +0.000 C 
ATOM     24  C   UNL     1       7.405   4.656  17.203  0.00  0.00    +0.000 C 
ATOM     25  C   UNL     1       8.013   5.685  19.386  0.00  0.00    +0.000 C 
ENDBRANCH  21  23
ENDBRANCH  19  21
ENDBRANCH  18  19
ENDBRANCH  17  18
ENDBRANCH  16  17
ENDBRANCH   1  16
TORSDOF 6
ENDMDL
MODEL 4
REMARK VINA RESULT:      -7.2      1.711      3.391
REMARK  Name = 
REMARK  9 active torsions:
REMARK  status: ('A' for Active; 'I' for Inactive)
REMARK    1  A    between atoms: C_1  and  C_2
REMARK    2  A    between atoms: C_2  and  C_3
REMARK    3  A    between atoms: C_2  and  C_4
REMARK    4  A    between atoms: C_2  and  O_5
REMARK    5  A    between atoms: O_5  and  C_6
REMARK    6  A    between atoms: C_6  and  C_8
REMARK    7  A    between atoms: C_8  and  C_9
REMARK    8  A    between atoms: C_9  and  C_10
REMARK    9  A    between atoms: C_10  and  C_11
REMARK                            x       y       z     vdW  Elec       q    Type
REMARK                         _______ _______ _______ _____ _____    ______ ____
ROOT
ATOM      1  C   UNL     1       1.864   8.328  19.059  0.00  0.00    +0.000 A 
ATOM      2  C   UNL     1       1.894   7.581  20.234  0.00  0.00    +0.000 A 
ATOM      3  C   UNL     1       1.094   7.954  21.319  0.00  0.00    +0.000 A 
ATOM      4  C   UNL     1       0.261   9.085  21.257  0.00  0.00    +0.000 A 
ATOM      5  C   UNL     1       0.231   9.862  20.095  0.00  0.00    +0.000 A 
ATOM      6  C   UNL     1       1.040   9.461  19.010  0.00  0.00    +0.000 A 
ATOM      7  C   UNL     1      -0.638  11.054  19.835  0.00  0.00    +0.000 C 
ATOM      8  O   UNL     1      -0.668  11.458  18.670  0.00  0.00    +0.000 OA
ATOM      9  C   UNL     1      -1.379  11.715  20.895  0.00  0.00    +0.000 A 
ATOM     10  S   UNL     1      -2.438  12.997  20.451  0.00  0.00    +0.000 S 
ATOM     11  C   UNL     1      -2.911  13.267  22.061  0.00  0.00    +0.000 A 
ATOM     12  C   UNL     1      -2.278  12.407  22.929  0.00  0.00    +0.000 A 
ATOM     13  C   UNL     1      -1.373  11.512  22.263  0.00  0.00    +0.000 A 
ATOM     14  C   UNL     1      -0.527  10.502  22.959  0.00  0.00    +0.000 C 
ATOM     15  O   UNL     1      -0.574   9.222  22.332  0.00  0.00    +0.000 OA
ENDROOT
BRANCH   1  16
ATOM     16  C   UNL     1       2.658   7.924  17.841  0.00  0.00    +0.000 C 
BRANCH  16  17
ATOM     17  C   UNL     1       3.702   6.839  18.118  0.00  0.00    +0.000 C 
BRANCH  17  18
ATOM     18  C   UNL     1       3.249   5.460  17.649  0.00  0.00    +0.000 C 
BRANCH  18  19
ATOM     19  C   UNL     1       3.817   4.397  18.549  0.00  0.00    +0.000 C 
ATOM     20  O   UNL     1       4.743   3.669  18.210  0.00  0.00    +0.000 OA
BRANCH  19  21
ATOM     21  O   UNL     1       3.199   4.404  19.761  0.00  0.00    +0.000 OA
BRANCH  21  23
ATOM     22  C   UNL     1       2.601   2.720  21.450  0.00  0.00    +0.000 C 
ATOM     23  C   UNL     1       2.253   3.353  20.096  0.00  0.00    +0.000 C 
ATOM     24  C   UNL     1       2.161   2.314  18.973  0.00  0.00    +0.000 C 
ATOM     25  C   UNL     1       0.885   4.042  20.228  0.00  0.00    +0.000 C 
ENDBRANCH  21  23
ENDBRANCH  19  21
ENDBRANCH  18  19
ENDBRANCH  17  18
ENDBRANCH  16  17
ENDBRANCH   1  16
TORSDOF 6
ENDMDL
MODEL 5
REMARK VINA RESULT:      -7.1      1.587      3.199
REMARK  Name = 
REMARK  9 active torsions:
REMARK  status: ('A' for Active; 'I' for Inactive)
REMARK    1  A    between atoms: C_1  and  C_2
REMARK    2  A    between atoms: C_2  and  C_3
REMARK    3  A    between atoms: C_2  and  C_4
REMARK    4  A    between atoms: C_2  and  O_5
REMARK    5  A    between atoms: O_5  and  C_6
REMARK    6  A    between atoms: C_6  and  C_8
REMARK    7  A    between atoms: C_8  and  C_9
REMARK    8  A    between atoms: C_9  and  C_10
REMARK    9  A    between atoms: C_10  and  C_11
REMARK                            x       y       z     vdW  Elec       q    Type
REMARK                         _______ _______ _______ _____ _____    ______ ____
ROOT
ATOM      1  C   UNL     1       2.144   8.011  18.886  0.00  0.00    +0.000 A 
ATOM      2  C   UNL     1       2.104   7.192  20.011  0.00  0.00    +0.000 A 
ATOM      3  C   UNL     1       1.300   7.540  21.101  0.00  0.00    +0.000 A 
ATOM      4  C   UNL     1       0.532   8.718  21.095  0.00  0.00    +0.000 A 
ATOM      5  C   UNL     1       0.574   9.567  19.984  0.00  0.00    +0.000 A 
ATOM      6  C   UNL     1       1.385   9.190  18.893  0.00  0.00    +0.000 A 
ATOM      7  C   UNL     1      -0.221  10.820  19.784  0.00  0.00    +0.000 C 
ATOM      8  O   UNL     1      -0.200  11.298  18.647  0.00  0.00    +0.000 OA
ATOM      9  C   UNL     1      -0.950  11.455  20.868  0.00  0.00    +0.000 A 
ATOM     10  S   UNL     1      -1.925  12.820  20.485  0.00  0.00    +0.000 S 
ATOM     11  C   UNL     1      -2.421  13.015  22.099  0.00  0.00    +0.000 A 
ATOM     12  C   UNL     1      -1.858  12.068  22.924  0.00  0.00    +0.000 A 
ATOM     13  C   UNL     1      -0.988  11.166  22.221  0.00  0.00    +0.000 A 
ATOM     14  C   UNL     1      -0.216  10.068  22.867  0.00  0.00    +0.000 C 
ATOM     15  O   UNL     1      -0.320   8.835  22.158  0.00  0.00    +0.000 OA
ENDROOT
BRANCH   1  16
ATOM     16  C   UNL     1       2.944   7.640  17.661  0.00  0.00    +0.000 C 
BRANCH  16  17
ATOM     17  C   UNL     1       4.174   6.781  17.966  0.00  0.00    +0.000 C 
BRANCH  17  18
ATOM     18  C   UNL     1       3.991   5.328  17.543  0.00  0.00    +0.000 C 
BRANCH  18  19
ATOM     19  C   UNL     1       4.355   4.411  18.678  0.00  0.00    +0.000 C 
ATOM     20  O   UNL     1       5.467   3.906  18.790  0.00  0.00    +0.000 OA
BRANCH  19  21
ATOM     21  O   UNL     1       3.318   4.276  19.548  0.00  0.00    +0.000 OA
BRANCH  21  23
ATOM     22  C   UNL     1       1.469   4.015  17.947  0.00  0.00    +0.000 C 
ATOM     23  C   UNL     1       2.175   3.453  19.188  0.00  0.00    +0.000 C 
ATOM     24  C   UNL     1       1.221   3.283  20.376  0.00  0.00    +0.000 C 
ATOM     25  C   UNL     1       2.747   2.072  18.828  0.00  0.00    +0.000 C 
ENDBRANCH  21  23
ENDBRANCH  19  21
ENDBRANCH  18  19
ENDBRANCH  17  18
ENDBRANCH  16  17
ENDBRANCH   1  16
TORSDOF 6
ENDMDL
MODEL 6
REMARK VINA RESULT:      -7.1      1.324      2.750
REMARK  Name = 
REMARK  9 active torsions:
REMARK  status: ('A' for Active; 'I' for Inactive)
REMARK    1  A    between atoms: C_1  and  C_2
REMARK    2  A    between atoms: C_2  and  C_3
REMARK    3  A    between atoms: C_2  and  C_4
REMARK    4  A    between atoms: C_2  and  O_5
REMARK    5  A    between atoms: O_5  and  C_6
REMARK    6  A    between atoms: C_6  and  C_8
REMARK    7  A    between atoms: C_8  and  C_9
REMARK    8  A    between atoms: C_9  and  C_10
REMARK    9  A    between atoms: C_10  and  C_11
REMARK                            x       y       z     vdW  Elec       q    Type
REMARK                         _______ _______ _______ _____ _____    ______ ____
ROOT
ATOM      1  C   UNL     1       2.596   7.529  18.782  0.00  0.00    +0.000 A 
ATOM      2  C   UNL     1       2.528   8.314  17.634  0.00  0.00    +0.000 A 
ATOM      3  C   UNL     1       1.791   9.502  17.642  0.00  0.00    +0.000 A 
ATOM      4  C   UNL     1       1.097   9.923  18.791  0.00  0.00    +0.000 A 
ATOM      5  C   UNL     1       1.134   9.140  19.949  0.00  0.00    +0.000 A 
ATOM      6  C   UNL     1       1.892   7.949  19.919  0.00  0.00    +0.000 A 
ATOM      7  C   UNL     1       0.511   9.465  21.271  0.00  0.00    +0.000 C 
ATOM      8  O   UNL     1       0.848   8.750  22.218  0.00  0.00    +0.000 OA
ATOM      9  C   UNL     1      -0.456  10.538  21.426  0.00  0.00    +0.000 A 
ATOM     10  S   UNL     1      -1.007  10.893  23.017  0.00  0.00    +0.000 S 
ATOM     11  C   UNL     1      -2.026  12.138  22.469  0.00  0.00    +0.000 A 
ATOM     12  C   UNL     1      -1.960  12.286  21.102  0.00  0.00    +0.000 A 
ATOM     13  C   UNL     1      -1.062  11.350  20.485  0.00  0.00    +0.000 A 
ATOM     14  C   UNL     1      -0.824  11.257  19.017  0.00  0.00    +0.000 C 
ATOM     15  O   UNL     1       0.562  11.177  18.691  0.00  0.00    +0.000 OA
ENDROOT
BRANCH   1  16
ATOM     16  C   UNL     1       3.435   6.275  18.839  0.00  0.00    +0.000 C 
BRANCH  16  17
ATOM     17  C   UNL     1       3.092   5.256  17.749  0.00  0.00    +0.000 C 
BRANCH  17  18
ATOM     18  C   UNL     1       4.022   4.047  17.768  0.00  0.00    +0.000 C 
BRANCH  18  19
ATOM     19  C   UNL     1       3.417   2.943  18.590  0.00  0.00    +0.000 C 
ATOM     20  O   UNL     1       3.365   1.782  18.202  0.00  0.00    +0.000 OA
BRANCH  19  21
ATOM     21  O   UNL     1       3.000   3.408  19.799  0.00  0.00    +0.000 OA
BRANCH  21  23
ATOM     22  C   UNL     1       1.661   2.294  21.534  0.00  0.00    +0.000 C 
ATOM     23  C   UNL     1       1.646   3.134  20.251  0.00  0.00    +0.000 C 
ATOM     24  C   UNL     1       0.813   2.486  19.139  0.00  0.00    +0.000 C 
ATOM     25  C   UNL     1       1.027   4.502  20.583  0.00  0.00    +0.000 C 
ENDBRANCH  21  23
ENDBRANCH  19  21
ENDBRANCH  18  19
ENDBRANCH  17  18
ENDBRANCH  16  17
ENDBRANCH   1  16
TORSDOF 6
ENDMDL
MODEL 7
REMARK VINA RESULT:      -7.1      5.112      8.039
REMARK  Name = 
REMARK  9 active torsions:
REMARK  status: ('A' for Active; 'I' for Inactive)
REMARK    1  A    between atoms: C_1  and  C_2
REMARK    2  A    between atoms: C_2  and  C_3
REMARK    3  A    between atoms: C_2  and  C_4
REMARK    4  A    between atoms: C_2  and  O_5
REMARK    5  A    between atoms: O_5  and  C_6
REMARK    6  A    between atoms: C_6  and  C_8
REMARK    7  A    between atoms: C_8  and  C_9
REMARK    8  A    between atoms: C_9  and  C_10
REMARK    9  A    between atoms: C_10  and  C_11
REMARK                            x       y       z     vdW  Elec       q    Type
REMARK                         _______ _______ _______ _____ _____    ______ ____
ROOT
ATOM      1  C   UNL     1       6.750   6.167  16.955  0.00  0.00    +0.000 A 
ATOM      2  C   UNL     1       6.898   5.022  16.177  0.00  0.00    +0.000 A 
ATOM      3  C   UNL     1       6.006   3.956  16.327  0.00  0.00    +0.000 A 
ATOM      4  C   UNL     1       4.959   4.006  17.265  0.00  0.00    +0.000 A 
ATOM      5  C   UNL     1       4.805   5.137  18.073  0.00  0.00    +0.000 A 
ATOM      6  C   UNL     1       5.712   6.205  17.896  0.00  0.00    +0.000 A 
ATOM      7  C   UNL     1       3.717   5.384  19.071  0.00  0.00    +0.000 C 
ATOM      8  O   UNL     1       3.640   6.533  19.514  0.00  0.00    +0.000 OA
ATOM      9  C   UNL     1       2.824   4.330  19.517  0.00  0.00    +0.000 A 
ATOM     10  S   UNL     1       1.538   4.765  20.574  0.00  0.00    +0.000 S 
ATOM     11  C   UNL     1       0.970   3.166  20.667  0.00  0.00    +0.000 A 
ATOM     12  C   UNL     1       1.740   2.307  19.916  0.00  0.00    +0.000 A 
ATOM     13  C   UNL     1       2.830   2.971  19.257  0.00  0.00    +0.000 A 
ATOM     14  C   UNL     1       3.845   2.283  18.411  0.00  0.00    +0.000 C 
ATOM     15  O   UNL     1       4.082   2.961  17.179  0.00  0.00    +0.000 OA
ENDROOT
BRANCH   1  16
ATOM     16  C   UNL     1       7.647   7.368  16.779  0.00  0.00    +0.000 C 
BRANCH  16  17
ATOM     17  C   UNL     1       7.987   8.081  18.091  0.00  0.00    +0.000 C 
BRANCH  17  18
ATOM     18  C   UNL     1       8.063   9.595  17.931  0.00  0.00    +0.000 C 
BRANCH  18  19
ATOM     19  C   UNL     1       9.149  10.153  18.809  0.00  0.00    +0.000 C 
ATOM     20  O   UNL     1       9.154  10.008  20.026  0.00  0.00    +0.000 OA
BRANCH  19  21
ATOM     21  O   UNL     1      10.104  10.775  18.067  0.00  0.00    +0.000 OA
BRANCH  21  23
ATOM     22  C   UNL     1      11.141  12.804  17.143  0.00  0.00    +0.000 C 
ATOM     23  C   UNL     1      10.459  12.154  18.354  0.00  0.00    +0.000 C 
ATOM     24  C   UNL     1      11.310  12.253  19.625  0.00  0.00    +0.000 C 
ATOM     25  C   UNL     1       9.131  12.888  18.604  0.00  0.00    +0.000 C 
ENDBRANCH  21  23
ENDBRANCH  19  21
ENDBRANCH  18  19
ENDBRANCH  17  18
ENDBRANCH  16  17
ENDBRANCH   1  16
TORSDOF 6
ENDMDL
MODEL 8
REMARK VINA RESULT:      -7.1      1.981      3.623
REMARK  Name = 
REMARK  9 active torsions:
REMARK  status: ('A' for Active; 'I' for Inactive)
REMARK    1  A    between atoms: C_1  and  C_2
REMARK    2  A    between atoms: C_2  and  C_3
REMARK    3  A    between atoms: C_2  and  C_4
REMARK    4  A    between atoms: C_2  and  O_5
REMARK    5  A    between atoms: O_5  and  C_6
REMARK    6  A    between atoms: C_6  and  C_8
REMARK    7  A    between atoms: C_8  and  C_9
REMARK    8  A    between atoms: C_9  and  C_10
REMARK    9  A    between atoms: C_10  and  C_11
REMARK                            x       y       z     vdW  Elec       q    Type
REMARK                         _______ _______ _______ _____ _____    ______ ____
ROOT
ATOM      1  C   UNL     1       1.449   8.876  19.079  0.00  0.00    +0.000 A 
ATOM      2  C   UNL     1       1.651   8.206  20.283  0.00  0.00    +0.000 A 
ATOM      3  C   UNL     1       0.913   8.565  21.415  0.00  0.00    +0.000 A 
ATOM      4  C   UNL     1      -0.030   9.607  21.371  0.00  0.00    +0.000 A 
ATOM      5  C   UNL     1      -0.234  10.308  20.178  0.00  0.00    +0.000 A 
ATOM      6  C   UNL     1       0.516   9.922  19.047  0.00  0.00    +0.000 A 
ATOM      7  C   UNL     1      -1.236  11.395  19.937  0.00  0.00    +0.000 C 
ATOM      8  O   UNL     1      -1.403  11.726  18.761  0.00  0.00    +0.000 OA
ATOM      9  C   UNL     1      -1.946  12.045  21.024  0.00  0.00    +0.000 A 
ATOM     10  S   UNL     1      -3.160  13.194  20.612  0.00  0.00    +0.000 S 
ATOM     11  C   UNL     1      -3.521  13.512  22.242  0.00  0.00    +0.000 A 
ATOM     12  C   UNL     1      -2.735  12.768  23.093  0.00  0.00    +0.000 A 
ATOM     13  C   UNL     1      -1.805  11.925  22.395  0.00  0.00    +0.000 A 
ATOM     14  C   UNL     1      -0.808  11.042  23.062  0.00  0.00    +0.000 C 
ATOM     15  O   UNL     1      -0.782   9.728  22.507  0.00  0.00    +0.000 OA
ENDROOT
BRANCH   1  16
ATOM     16  C   UNL     1       2.174   8.478  17.816  0.00  0.00    +0.000 C 
BRANCH  16  17
ATOM     17  C   UNL     1       3.265   7.426  18.038  0.00  0.00    +0.000 C 
BRANCH  17  18
ATOM     18  C   UNL     1       2.746   6.002  17.871  0.00  0.00    +0.000 C 
BRANCH  18  19
ATOM     19  C   UNL     1       3.382   5.099  18.891  0.00  0.00    +0.000 C 
ATOM     20  O   UNL     1       4.233   5.490  19.682  0.00  0.00    +0.000 OA
BRANCH  19  21
ATOM     21  O   UNL     1       2.851   3.848  18.832  0.00  0.00    +0.000 OA
BRANCH  21  23
ATOM     22  C   UNL     1       1.146   4.583  20.445  0.00  0.00    +0.000 C 
ATOM     23  C   UNL     1       1.936   3.400  19.869  0.00  0.00    +0.000 C 
ATOM     24  C   UNL     1       2.676   2.609  20.954  0.00  0.00    +0.000 C 
ATOM     25  C   UNL     1       0.942   2.454  19.175  0.00  0.00    +0.000 C 
ENDBRANCH  21  23
ENDBRANCH  19  21
ENDBRANCH  18  19
ENDBRANCH  17  18
ENDBRANCH  16  17
ENDBRANCH   1  16
TORSDOF 6
ENDMDL
MODEL 9
REMARK VINA RESULT:      -7.0      2.311      4.188
REMARK  Name = 
REMARK  9 active torsions:
REMARK  status: ('A' for Active; 'I' for Inactive)
REMARK    1  A    between atoms: C_1  and  C_2
REMARK    2  A    between atoms: C_2  and  C_3
REMARK    3  A    between atoms: C_2  and  C_4
REMARK    4  A    between atoms: C_2  and  O_5
REMARK    5  A    between atoms: O_5  and  C_6
REMARK    6  A    between atoms: C_6  and  C_8
REMARK    7  A    between atoms: C_8  and  C_9
REMARK    8  A    between atoms: C_9  and  C_10
REMARK    9  A    between atoms: C_10  and  C_11
REMARK                            x       y       z     vdW  Elec       q    Type
REMARK                         _______ _______ _______ _____ _____    ______ ____
ROOT
ATOM      1  C   UNL     1       3.407   4.268  18.142  0.00  0.00    +0.000 A 
ATOM      2  C   UNL     1       2.911   3.718  19.321  0.00  0.00    +0.000 A 
ATOM      3  C   UNL     1       2.165   4.508  20.200  0.00  0.00    +0.000 A 
ATOM      4  C   UNL     1       1.911   5.864  19.927  0.00  0.00    +0.000 A 
ATOM      5  C   UNL     1       2.418   6.443  18.760  0.00  0.00    +0.000 A 
ATOM      6  C   UNL     1       3.160   5.623  17.883  0.00  0.00    +0.000 A 
ATOM      7  C   UNL     1       2.192   7.845  18.284  0.00  0.00    +0.000 C 
ATOM      8  O   UNL     1       2.543   8.086  17.125  0.00  0.00    +0.000 OA
ATOM      9  C   UNL     1       1.624   8.870  19.141  0.00  0.00    +0.000 A 
ATOM     10  S   UNL     1       1.301  10.409  18.442  0.00  0.00    +0.000 S 
ATOM     11  C   UNL     1       0.709  11.036  19.906  0.00  0.00    +0.000 A 
ATOM     12  C   UNL     1       0.756  10.102  20.917  0.00  0.00    +0.000 A 
ATOM     13  C   UNL     1       1.302   8.845  20.486  0.00  0.00    +0.000 A 
ATOM     14  C   UNL     1       1.506   7.669  21.377  0.00  0.00    +0.000 C 
ATOM     15  O   UNL     1       1.035   6.454  20.797  0.00  0.00    +0.000 OA
ENDROOT
BRANCH   1  16
ATOM     16  C   UNL     1       4.159   3.436  17.132  0.00  0.00    +0.000 C 
BRANCH  16  17
ATOM     17  C   UNL     1       4.759   4.253  15.985  0.00  0.00    +0.000 C 
BRANCH  17  18
ATOM     18  C   UNL     1       6.171   3.806  15.625  0.00  0.00    +0.000 C 
BRANCH  18  19
ATOM     19  C   UNL     1       7.161   4.878  15.987  0.00  0.00    +0.000 C 
ATOM     20  O   UNL     1       7.648   5.637  15.157  0.00  0.00    +0.000 OA
BRANCH  19  21
ATOM     21  O   UNL     1       7.383   4.903  17.329  0.00  0.00    +0.000 OA
BRANCH  21  23
ATOM     22  C   UNL     1       5.980   6.923  17.343  0.00  0.00    +0.000 C 
ATOM     23  C   UNL     1       7.009   6.076  18.102  0.00  0.00    +0.000 C 
ATOM     24  C   UNL     1       8.246   6.886  18.509  0.00  0.00    +0.000 C 
ATOM     25  C   UNL     1       6.340   5.544  19.380  0.00  0.00    +0.000 C 
ENDBRANCH  21  23
ENDBRANCH  19  21
ENDBRANCH  18  19
ENDBRANCH  17  18
ENDBRANCH  16  17
ENDBRANCH   1  16
TORSDOF 6
ENDMDL
