MODEL 1
REMARK VINA RESULT:      -8.5      0.000      0.000
REMARK  Name = 
REMARK  5 active torsions:
REMARK  status: ('A' for Active; 'I' for Inactive)
REMARK    1  A    between atoms: C_1  and  C_2
REMARK    2  A    between atoms: C_6  and  N_7
REMARK    3  A    between atoms: C_8  and  C_10
REMARK    4  A    between atoms: C_13  and  C_14
REMARK    5  A    between atoms: C_19  and  N_20
REMARK                            x       y       z     vdW  Elec       q    Type
REMARK                         _______ _______ _______ _____ _____    ______ ____
ROOT
ATOM      1  N   UNL     1       2.303   7.354  19.849  0.00  0.00    +0.000 N 
ATOM      2  C   UNL     1       2.106   6.008  20.157  0.00  0.00    +0.000 C 
ATOM      3  O   UNL     1       1.162   5.574  20.815  0.00  0.00    +0.000 OA
ATOM      4  H   UNL     1       3.060   7.559  19.205  0.00  0.00    +0.000 HD
ENDROOT
BRANCH   1  10
ATOM      5  C   UNL     1      -2.233  11.955  23.593  0.00  0.00    +0.000 C 
ATOM      6  C   UNL     1      -1.328  11.153  22.736  0.00  0.00    +0.000 A 
ATOM      7  C   UNL     1      -0.566  10.043  23.031  0.00  0.00    +0.000 A 
ATOM      8  C   UNL     1       0.098   9.640  21.841  0.00  0.00    +0.000 A 
ATOM      9  C   UNL     1       0.972   8.580  21.531  0.00  0.00    +0.000 A 
ATOM     10  C   UNL     1       1.468   8.430  20.231  0.00  0.00    +0.000 A 
ATOM     11  C   UNL     1       1.122   9.375  19.257  0.00  0.00    +0.000 A 
ATOM     12  C   UNL     1       0.245  10.438  19.540  0.00  0.00    +0.000 A 
ATOM     13  C   UNL     1      -0.254  10.539  20.842  0.00  0.00    +0.000 A 
ATOM     14  N   UNL     1      -1.125  11.445  21.407  0.00  0.00    +0.000 N 
ATOM     15  H   UNL     1      -1.559  12.209  20.908  0.00  0.00    +0.000 HD
ENDBRANCH   1  10
BRANCH   2  16
ATOM     16  C   UNL     1       3.096   5.120  19.578  0.00  0.00    +0.000 A 
ATOM     17  N   UNL     1       3.610   4.033  20.119  0.00  0.00    +0.000 NA
ATOM     18  N   UNL     1       4.545   3.564  19.212  0.00  0.00    +0.000 NA
ATOM     19  C   UNL     1       4.540   4.399  18.186  0.00  0.00    +0.000 A 
ATOM     20  O   UNL     1       3.631   5.411  18.350  0.00  0.00    +0.000 OA
BRANCH  19  21
ATOM     21  C   UNL     1       5.369   4.431  16.978  0.00  0.00    +0.000 A 
ATOM     22  C   UNL     1       4.765   4.385  15.702  0.00  0.00    +0.000 A 
ATOM     23  C   UNL     1       5.531   4.423  14.535  0.00  0.00    +0.000 A 
ATOM     24  C   UNL     1       6.915   4.495  14.621  0.00  0.00    +0.000 A 
ATOM     25  C   UNL     1       7.529   4.542  15.871  0.00  0.00    +0.000 A 
ATOM     26  C   UNL     1       6.776   4.551  17.057  0.00  0.00    +0.000 A 
BRANCH  26  27
ATOM     27  N   UNL     1       7.475   4.453  18.274  0.00  0.00    +0.000 N 
ATOM     28  H   UNL     1       7.731   3.508  18.539  0.00  0.00    +0.000 HD
ATOM     29  H   UNL     1       8.256   5.106  18.355  0.00  0.00    +0.000 HD
ENDBRANCH  26  27
ENDBRANCH  19  21
ENDBRANCH   2  16
TORSDOF 4
ENDMDL
MODEL 2
REMARK VINA RESULT:      -8.5      1.593      2.252
REMARK  Name = 
REMARK  5 active torsions:
REMARK  status: ('A' for Active; 'I' for Inactive)
REMARK    1  A    between atoms: C_1  and  C_2
REMARK    2  A    between atoms: C_6  and  N_7
REMARK    3  A    between atoms: C_8  and  C_10
REMARK    4  A    between atoms: C_13  and  C_14
REMARK    5  A    between atoms: C_19  and  N_20
REMARK                            x       y       z     vdW  Elec       q    Type
REMARK                         _______ _______ _______ _____ _____    ______ ____
ROOT
ATOM      1  N   UNL     1       2.927   6.803  17.956  0.00  0.00    +0.000 N 
ATOM      2  C   UNL     1       3.653   5.775  18.558  0.00  0.00    +0.000 C 
ATOM      3  O   UNL     1       3.773   5.624  19.773  0.00  0.00    +0.000 OA
ATOM      4  H   UNL     1       2.818   6.742  16.949  0.00  0.00    +0.000 HD
ENDROOT
BRANCH   1  10
ATOM      5  C   UNL     1      -0.843  10.836  22.984  0.00  0.00    +0.000 C 
ATOM      6  C   UNL     1      -0.093  10.167  21.895  0.00  0.00    +0.000 A 
ATOM      7  C   UNL     1       0.607   8.979  21.889  0.00  0.00    +0.000 A 
ATOM      8  C   UNL     1       1.115   8.778  20.578  0.00  0.00    +0.000 A 
ATOM      9  C   UNL     1       1.870   7.751  19.978  0.00  0.00    +0.000 A 
ATOM     10  C   UNL     1       2.220   7.830  18.626  0.00  0.00    +0.000 A 
ATOM     11  C   UNL     1       1.853   8.964  17.891  0.00  0.00    +0.000 A 
ATOM     12  C   UNL     1       1.093   9.999  18.466  0.00  0.00    +0.000 A 
ATOM     13  C   UNL     1       0.736   9.874  19.811  0.00  0.00    +0.000 A 
ATOM     14  N   UNL     1      -0.002  10.699  20.631  0.00  0.00    +0.000 N 
ATOM     15  H   UNL     1      -0.423  11.569  20.335  0.00  0.00    +0.000 HD
ENDBRANCH   1  10
BRANCH   2  16
ATOM     16  C   UNL     1       4.225   4.830  17.618  0.00  0.00    +0.000 A 
ATOM     17  N   UNL     1       4.350   3.526  17.771  0.00  0.00    +0.000 NA
ATOM     18  N   UNL     1       5.000   3.072  16.637  0.00  0.00    +0.000 NA
ATOM     19  C   UNL     1       5.231   4.128  15.875  0.00  0.00    +0.000 A 
ATOM     20  O   UNL     1       4.753   5.283  16.438  0.00  0.00    +0.000 OA
BRANCH  19  21
ATOM     21  C   UNL     1       5.943   4.249  14.599  0.00  0.00    +0.000 A 
ATOM     22  C   UNL     1       5.530   3.490  13.483  0.00  0.00    +0.000 A 
ATOM     23  C   UNL     1       6.186   3.592  12.254  0.00  0.00    +0.000 A 
ATOM     24  C   UNL     1       7.273   4.446  12.121  0.00  0.00    +0.000 A 
ATOM     25  C   UNL     1       7.694   5.204  13.212  0.00  0.00    +0.000 A 
ATOM     26  C   UNL     1       7.021   5.151  14.444  0.00  0.00    +0.000 A 
BRANCH  26  27
ATOM     27  N   UNL     1       7.597   5.835  15.532  0.00  0.00    +0.000 N 
ATOM     28  H   UNL     1       7.999   5.234  16.242  0.00  0.00    +0.000 HD
ATOM     29  H   UNL     1       8.226   6.590  15.257  0.00  0.00    +0.000 HD
ENDBRANCH  26  27
ENDBRANCH  19  21
ENDBRANCH   2  16
TORSDOF 4
ENDMDL
MODEL 3
REMARK VINA RESULT:      -8.3      5.800      7.980
REMARK  Name = 
REMARK  5 active torsions:
REMARK  status: ('A' for Active; 'I' for Inactive)
REMARK    1  A    between atoms: C_1  and  C_2
REMARK    2  A    between atoms: C_6  and  N_7
REMARK    3  A    between atoms: C_8  and  C_10
REMARK    4  A    between atoms: C_13  and  C_14
REMARK    5  A    between atoms: C_19  and  N_20
REMARK                            x       y       z     vdW  Elec       q    Type
REMARK                         _______ _______ _______ _____ _____    ______ ____
ROOT
ATOM      1  N   UNL     1       7.578   8.948  17.728  0.00  0.00    +0.000 N 
ATOM      2  C   UNL     1       7.640   7.587  18.029  0.00  0.00    +0.000 C 
ATOM      3  O   UNL     1       8.480   7.073  18.766  0.00  0.00    +0.000 OA
ATOM      4  H   UNL     1       6.767   9.251  17.198  0.00  0.00    +0.000 HD
ENDROOT
BRANCH   1  10
ATOM      5  C   UNL     1      11.884  15.012  18.399  0.00  0.00    +0.000 C 
ATOM      6  C   UNL     1      11.059  13.781  18.420  0.00  0.00    +0.000 A 
ATOM      7  C   UNL     1      10.130  13.310  17.517  0.00  0.00    +0.000 A 
ATOM      8  C   UNL     1       9.646  12.063  17.996  0.00  0.00    +0.000 A 
ATOM      9  C   UNL     1       8.722  11.125  17.496  0.00  0.00    +0.000 A 
ATOM     10  C   UNL     1       8.453   9.951  18.208  0.00  0.00    +0.000 A 
ATOM     11  C   UNL     1       9.076   9.745  19.445  0.00  0.00    +0.000 A 
ATOM     12  C   UNL     1      10.007  10.663  19.962  0.00  0.00    +0.000 A 
ATOM     13  C   UNL     1      10.274  11.811  19.210  0.00  0.00    +0.000 A 
ATOM     14  N   UNL     1      11.132  12.864  19.443  0.00  0.00    +0.000 N 
ATOM     15  H   UNL     1      11.735  12.942  20.250  0.00  0.00    +0.000 HD
ENDBRANCH   1  10
BRANCH   2  16
ATOM     16  C   UNL     1       6.572   6.804  17.439  0.00  0.00    +0.000 A 
ATOM     17  N   UNL     1       6.185   6.799  16.178  0.00  0.00    +0.000 NA
ATOM     18  N   UNL     1       5.103   5.939  16.116  0.00  0.00    +0.000 NA
ATOM     19  C   UNL     1       4.901   5.484  17.342  0.00  0.00    +0.000 A 
ATOM     20  O   UNL     1       5.809   5.989  18.234  0.00  0.00    +0.000 OA
BRANCH  19  21
ATOM     21  C   UNL     1       3.858   4.602  17.873  0.00  0.00    +0.000 A 
ATOM     22  C   UNL     1       2.501   4.849  17.574  0.00  0.00    +0.000 A 
ATOM     23  C   UNL     1       1.487   4.020  18.061  0.00  0.00    +0.000 A 
ATOM     24  C   UNL     1       1.811   2.935  18.865  0.00  0.00    +0.000 A 
ATOM     25  C   UNL     1       3.146   2.674  19.170  0.00  0.00    +0.000 A 
ATOM     26  C   UNL     1       4.184   3.469  18.654  0.00  0.00    +0.000 A 
BRANCH  26  27
ATOM     27  N   UNL     1       5.487   3.226  19.127  0.00  0.00    +0.000 N 
ATOM     28  H   UNL     1       6.224   3.627  18.557  0.00  0.00    +0.000 HD
ATOM     29  H   UNL     1       5.609   3.426  20.121  0.00  0.00    +0.000 HD
ENDBRANCH  26  27
ENDBRANCH  19  21
ENDBRANCH   2  16
TORSDOF 4
ENDMDL
MODEL 4
REMARK VINA RESULT:      -8.3      5.862      8.234
REMARK  Name = 
REMARK  5 active torsions:
REMARK  status: ('A' for Active; 'I' for Inactive)
REMARK    1  A    between atoms: C_1  and  C_2
REMARK    2  A    between atoms: C_6  and  N_7
REMARK    3  A    between atoms: C_8  and  C_10
REMARK    4  A    between atoms: C_13  and  C_14
REMARK    5  A    between atoms: C_19  and  N_20
REMARK                            x       y       z     vdW  Elec       q    Type
REMARK                         _______ _______ _______ _____ _____    ______ ____
ROOT
ATOM      1  N   UNL     1       8.485   8.621  19.128  0.00  0.00    +0.000 N 
ATOM      2  C   UNL     1       7.926   8.002  18.009  0.00  0.00    +0.000 C 
ATOM      3  O   UNL     1       7.942   8.470  16.872  0.00  0.00    +0.000 OA
ATOM      4  H   UNL     1       8.499   8.072  19.981  0.00  0.00    +0.000 HD
ENDROOT
BRANCH   1  10
ATOM      5  C   UNL     1      12.170  14.832  17.230  0.00  0.00    +0.000 C 
ATOM      6  C   UNL     1      11.426  13.662  17.753  0.00  0.00    +0.000 A 
ATOM      7  C   UNL     1      10.797  12.632  17.088  0.00  0.00    +0.000 A 
ATOM      8  C   UNL     1      10.260  11.746  18.061  0.00  0.00    +0.000 A 
ATOM      9  C   UNL     1       9.548  10.534  17.981  0.00  0.00    +0.000 A 
ATOM     10  C   UNL     1       9.152   9.869  19.147  0.00  0.00    +0.000 A 
ATOM     11  C   UNL     1       9.429  10.449  20.391  0.00  0.00    +0.000 A 
ATOM     12  C   UNL     1      10.145  11.655  20.497  0.00  0.00    +0.000 A 
ATOM     13  C   UNL     1      10.551  12.277  19.313  0.00  0.00    +0.000 A 
ATOM     14  N   UNL     1      11.265  13.436  19.100  0.00  0.00    +0.000 N 
ATOM     15  H   UNL     1      11.626  14.028  19.835  0.00  0.00    +0.000 HD
ENDBRANCH   1  10
BRANCH   2  16
ATOM     16  C   UNL     1       7.358   6.696  18.281  0.00  0.00    +0.000 A 
ATOM     17  N   UNL     1       8.008   5.580  18.550  0.00  0.00    +0.000 NA
ATOM     18  N   UNL     1       7.041   4.599  18.679  0.00  0.00    +0.000 NA
ATOM     19  C   UNL     1       5.871   5.181  18.476  0.00  0.00    +0.000 A 
ATOM     20  O   UNL     1       6.000   6.522  18.226  0.00  0.00    +0.000 OA
BRANCH  19  21
ATOM     21  C   UNL     1       4.520   4.616  18.425  0.00  0.00    +0.000 A 
ATOM     22  C   UNL     1       3.470   5.344  17.824  0.00  0.00    +0.000 A 
ATOM     23  C   UNL     1       2.174   4.825  17.754  0.00  0.00    +0.000 A 
ATOM     24  C   UNL     1       1.902   3.575  18.294  0.00  0.00    +0.000 A 
ATOM     25  C   UNL     1       2.926   2.841  18.890  0.00  0.00    +0.000 A 
ATOM     26  C   UNL     1       4.245   3.324  18.931  0.00  0.00    +0.000 A 
BRANCH  26  27
ATOM     27  N   UNL     1       5.186   2.589  19.677  0.00  0.00    +0.000 N 
ATOM     28  H   UNL     1       5.470   1.713  19.251  0.00  0.00    +0.000 HD
ATOM     29  H   UNL     1       5.981   3.143  19.998  0.00  0.00    +0.000 HD
ENDBRANCH  26  27
ENDBRANCH  19  21
ENDBRANCH   2  16
TORSDOF 4
ENDMDL
MODEL 5
REMARK VINA RESULT:      -8.2      2.300      2.959
REMARK  Name = 
REMARK  5 active torsions:
REMARK  status: ('A' for Active; 'I' for Inactive)
REMARK    1  A    between atoms: C_1  and  C_2
REMARK    2  A    between atoms: C_6  and  N_7
REMARK    3  A    between atoms: C_8  and  C_10
REMARK    4  A    between atoms: C_13  and  C_14
REMARK    5  A    between atoms: C_19  and  N_20
REMARK                            x       y       z     vdW  Elec       q    Type
REMARK                         _______ _______ _______ _____ _____    ______ ____
ROOT
ATOM      1  N   UNL     1       1.676   8.896  18.628  0.00  0.00    +0.000 N 
ATOM      2  C   UNL     1       1.794   8.061  19.739  0.00  0.00    +0.000 C 
ATOM      3  O   UNL     1       1.287   8.285  20.837  0.00  0.00    +0.000 OA
ATOM      4  H   UNL     1       2.050   8.534  17.756  0.00  0.00    +0.000 HD
ENDROOT
BRANCH   1  10
ATOM      5  C   UNL     1      -0.255  16.104  18.902  0.00  0.00    +0.000 C 
ATOM      6  C   UNL     1      -0.017  14.645  18.789  0.00  0.00    +0.000 A 
ATOM      7  C   UNL     1       1.155  13.923  18.844  0.00  0.00    +0.000 A 
ATOM      8  C   UNL     1       0.828  12.547  18.711  0.00  0.00    +0.000 A 
ATOM      9  C   UNL     1       1.592  11.363  18.717  0.00  0.00    +0.000 A 
ATOM     10  C   UNL     1       0.968  10.119  18.572  0.00  0.00    +0.000 A 
ATOM     11  C   UNL     1      -0.417  10.070  18.372  0.00  0.00    +0.000 A 
ATOM     12  C   UNL     1      -1.202  11.237  18.369  0.00  0.00    +0.000 A 
ATOM     13  C   UNL     1      -0.550  12.460  18.546  0.00  0.00    +0.000 A 
ATOM     14  N   UNL     1      -1.041  13.746  18.603  0.00  0.00    +0.000 N 
ATOM     15  H   UNL     1      -2.020  13.988  18.528  0.00  0.00    +0.000 HD
ENDBRANCH   1  10
BRANCH   2  16
ATOM     16  C   UNL     1       2.533   6.840  19.483  0.00  0.00    +0.000 A 
ATOM     17  N   UNL     1       2.480   5.713  20.167  0.00  0.00    +0.000 NA
ATOM     18  N   UNL     1       3.400   4.866  19.575  0.00  0.00    +0.000 NA
ATOM     19  C   UNL     1       3.953   5.534  18.576  0.00  0.00    +0.000 A 
ATOM     20  O   UNL     1       3.439   6.798  18.455  0.00  0.00    +0.000 OA
BRANCH  19  21
ATOM     21  C   UNL     1       5.029   5.157  17.655  0.00  0.00    +0.000 A 
ATOM     22  C   UNL     1       4.750   4.942  16.288  0.00  0.00    +0.000 A 
ATOM     23  C   UNL     1       5.759   4.590  15.388  0.00  0.00    +0.000 A 
ATOM     24  C   UNL     1       7.063   4.436  15.840  0.00  0.00    +0.000 A 
ATOM     25  C   UNL     1       7.358   4.644  17.186  0.00  0.00    +0.000 A 
ATOM     26  C   UNL     1       6.367   5.043  18.100  0.00  0.00    +0.000 A 
BRANCH  26  27
ATOM     27  N   UNL     1       6.718   5.092  19.462  0.00  0.00    +0.000 N 
ATOM     28  H   UNL     1       6.546   4.232  19.972  0.00  0.00    +0.000 HD
ATOM     29  H   UNL     1       7.651   5.468  19.634  0.00  0.00    +0.000 HD
ENDBRANCH  26  27
ENDBRANCH  19  21
ENDBRANCH   2  16
TORSDOF 4
ENDMDL
MODEL 6
REMARK VINA RESULT:      -8.2      5.929      7.861
REMARK  Name = 
REMARK  5 active torsions:
REMARK  status: ('A' for Active; 'I' for Inactive)
REMARK    1  A    between atoms: C_1  and  C_2
REMARK    2  A    between atoms: C_6  and  N_7
REMARK    3  A    between atoms: C_8  and  C_10
REMARK    4  A    between atoms: C_13  and  C_14
REMARK    5  A    between atoms: C_19  and  N_20
REMARK                            x       y       z     vdW  Elec       q    Type
REMARK                         _______ _______ _______ _____ _____    ______ ____
ROOT
ATOM      1  N   UNL     1       7.886   8.993  17.670  0.00  0.00    +0.000 N 
ATOM      2  C   UNL     1       7.993   7.674  18.113  0.00  0.00    +0.000 C 
ATOM      3  O   UNL     1       8.705   7.306  19.045  0.00  0.00    +0.000 OA
ATOM      4  H   UNL     1       7.177   9.172  16.967  0.00  0.00    +0.000 HD
ENDROOT
BRANCH   1  10
ATOM      5  C   UNL     1      10.834  15.765  18.769  0.00  0.00    +0.000 C 
ATOM      6  C   UNL     1      10.297  14.385  18.699  0.00  0.00    +0.000 A 
ATOM      7  C   UNL     1       9.413  13.813  17.810  0.00  0.00    +0.000 A 
ATOM      8  C   UNL     1       9.253  12.448  18.169  0.00  0.00    +0.000 A 
ATOM      9  C   UNL     1       8.510  11.383  17.624  0.00  0.00    +0.000 A 
ATOM     10  C   UNL     1       8.565  10.112  18.207  0.00  0.00    +0.000 A 
ATOM     11  C   UNL     1       9.328   9.926  19.366  0.00  0.00    +0.000 A 
ATOM     12  C   UNL     1      10.084  10.972  19.925  0.00  0.00    +0.000 A 
ATOM     13  C   UNL     1      10.029  12.220  19.300  0.00  0.00    +0.000 A 
ATOM     14  N   UNL     1      10.658  13.409  19.599  0.00  0.00    +0.000 N 
ATOM     15  H   UNL     1      11.302  13.538  20.367  0.00  0.00    +0.000 HD
ENDBRANCH   1  10
BRANCH   2  16
ATOM     16  C   UNL     1       7.129   6.745  17.409  0.00  0.00    +0.000 A 
ATOM     17  N   UNL     1       7.283   6.280  16.185  0.00  0.00    +0.000 NA
ATOM     18  N   UNL     1       6.183   5.476  15.944  0.00  0.00    +0.000 NA
ATOM     19  C   UNL     1       5.433   5.510  17.033  0.00  0.00    +0.000 A 
ATOM     20  O   UNL     1       5.983   6.295  18.012  0.00  0.00    +0.000 OA
BRANCH  19  21
ATOM     21  C   UNL     1       4.128   4.904  17.314  0.00  0.00    +0.000 A 
ATOM     22  C   UNL     1       3.926   3.524  17.096  0.00  0.00    +0.000 A 
ATOM     23  C   UNL     1       2.694   2.921  17.363  0.00  0.00    +0.000 A 
ATOM     24  C   UNL     1       1.640   3.687  17.842  0.00  0.00    +0.000 A 
ATOM     25  C   UNL     1       1.821   5.051  18.064  0.00  0.00    +0.000 A 
ATOM     26  C   UNL     1       3.064   5.670  17.845  0.00  0.00    +0.000 A 
BRANCH  26  27
ATOM     27  N   UNL     1       3.122   7.072  17.955  0.00  0.00    +0.000 N 
ATOM     28  H   UNL     1       4.058   7.460  17.903  0.00  0.00    +0.000 HD
ATOM     29  H   UNL     1       2.462   7.561  17.348  0.00  0.00    +0.000 HD
ENDBRANCH  26  27
ENDBRANCH  19  21
ENDBRANCH   2  16
TORSDOF 4
ENDMDL
MODEL 7
REMARK VINA RESULT:      -8.1      0.873      1.501
REMARK  Name = 
REMARK  5 active torsions:
REMARK  status: ('A' for Active; 'I' for Inactive)
REMARK    1  A    between atoms: C_1  and  C_2
REMARK    2  A    between atoms: C_6  and  N_7
REMARK    3  A    between atoms: C_8  and  C_10
REMARK    4  A    between atoms: C_13  and  C_14
REMARK    5  A    between atoms: C_19  and  N_20
REMARK                            x       y       z     vdW  Elec       q    Type
REMARK                         _______ _______ _______ _____ _____    ______ ____
ROOT
ATOM      1  N   UNL     1       2.297   7.201  20.077  0.00  0.00    +0.000 N 
ATOM      2  C   UNL     1       2.057   5.836  20.242  0.00  0.00    +0.000 C 
ATOM      3  O   UNL     1       1.069   5.364  20.800  0.00  0.00    +0.000 OA
ATOM      4  H   UNL     1       3.094   7.447  19.499  0.00  0.00    +0.000 HD
ENDROOT
BRANCH   1  10
ATOM      5  C   UNL     1      -2.188  13.163  20.395  0.00  0.00    +0.000 C 
ATOM      6  C   UNL     1      -1.323  11.963  20.488  0.00  0.00    +0.000 A 
ATOM      7  C   UNL     1      -0.819  11.144  19.501  0.00  0.00    +0.000 A 
ATOM      8  C   UNL     1      -0.017  10.150  20.124  0.00  0.00    +0.000 A 
ATOM      9  C   UNL     1       0.754   9.078  19.633  0.00  0.00    +0.000 A 
ATOM     10  C   UNL     1       1.462   8.255  20.516  0.00  0.00    +0.000 A 
ATOM     11  C   UNL     1       1.354   8.480  21.894  0.00  0.00    +0.000 A 
ATOM     12  C   UNL     1       0.596   9.547  22.408  0.00  0.00    +0.000 A 
ATOM     13  C   UNL     1      -0.075  10.367  21.496  0.00  0.00    +0.000 A 
ATOM     14  N   UNL     1      -0.867  11.477  21.692  0.00  0.00    +0.000 N 
ATOM     15  H   UNL     1      -1.074  11.879  22.596  0.00  0.00    +0.000 HD
ENDBRANCH   1  10
BRANCH   2  16
ATOM     16  C   UNL     1       3.061   4.984  19.634  0.00  0.00    +0.000 A 
ATOM     17  N   UNL     1       3.571   3.872  20.126  0.00  0.00    +0.000 NA
ATOM     18  N   UNL     1       4.524   3.455  19.213  0.00  0.00    +0.000 NA
ATOM     19  C   UNL     1       4.533   4.342  18.232  0.00  0.00    +0.000 A 
ATOM     20  O   UNL     1       3.617   5.341  18.433  0.00  0.00    +0.000 OA
BRANCH  19  21
ATOM     21  C   UNL     1       5.383   4.442  17.042  0.00  0.00    +0.000 A 
ATOM     22  C   UNL     1       4.812   4.357  15.754  0.00  0.00    +0.000 A 
ATOM     23  C   UNL     1       5.598   4.457  14.604  0.00  0.00    +0.000 A 
ATOM     24  C   UNL     1       6.971   4.632  14.720  0.00  0.00    +0.000 A 
ATOM     25  C   UNL     1       7.553   4.718  15.983  0.00  0.00    +0.000 A 
ATOM     26  C   UNL     1       6.775   4.666  17.153  0.00  0.00    +0.000 A 
BRANCH  26  27
ATOM     27  N   UNL     1       7.454   4.615  18.385  0.00  0.00    +0.000 N 
ATOM     28  H   UNL     1       8.444   4.407  18.312  0.00  0.00    +0.000 HD
ATOM     29  H   UNL     1       7.266   5.413  18.993  0.00  0.00    +0.000 HD
ENDBRANCH  26  27
ENDBRANCH  19  21
ENDBRANCH   2  16
TORSDOF 4
ENDMDL
MODEL 8
REMARK VINA RESULT:      -8.0      6.174      8.198
REMARK  Name = 
REMARK  5 active torsions:
REMARK  status: ('A' for Active; 'I' for Inactive)
REMARK    1  A    between atoms: C_1  and  C_2
REMARK    2  A    between atoms: C_6  and  N_7
REMARK    3  A    between atoms: C_8  and  C_10
REMARK    4  A    between atoms: C_13  and  C_14
REMARK    5  A    between atoms: C_19  and  N_20
REMARK                            x       y       z     vdW  Elec       q    Type
REMARK                         _______ _______ _______ _____ _____    ______ ____
ROOT
ATOM      1  N   UNL     1       8.232   9.216  17.850  0.00  0.00    +0.000 N 
ATOM      2  C   UNL     1       8.210   7.891  18.285  0.00  0.00    +0.000 C 
ATOM      3  O   UNL     1       8.823   7.467  19.263  0.00  0.00    +0.000 OA
ATOM      4  H   UNL     1       7.591   9.450  17.098  0.00  0.00    +0.000 HD
ENDROOT
BRANCH   1  10
ATOM      5  C   UNL     1      12.333  15.340  19.047  0.00  0.00    +0.000 C 
ATOM      6  C   UNL     1      11.498  14.118  18.968  0.00  0.00    +0.000 A 
ATOM      7  C   UNL     1      10.880  13.526  17.888  0.00  0.00    +0.000 A 
ATOM      8  C   UNL     1      10.226  12.351  18.348  0.00  0.00    +0.000 A 
ATOM      9  C   UNL     1       9.470  11.349  17.709  0.00  0.00    +0.000 A 
ATOM     10  C   UNL     1       8.950  10.279  18.446  0.00  0.00    +0.000 A 
ATOM     11  C   UNL     1       9.150  10.245  19.832  0.00  0.00    +0.000 A 
ATOM     12  C   UNL     1       9.907  11.230  20.491  0.00  0.00    +0.000 A 
ATOM     13  C   UNL     1      10.436  12.268  19.720  0.00  0.00    +0.000 A 
ATOM     14  N   UNL     1      11.216  13.348  20.071  0.00  0.00    +0.000 N 
ATOM     15  H   UNL     1      11.541  13.537  21.009  0.00  0.00    +0.000 HD
ENDBRANCH   1  10
BRANCH   2  16
ATOM     16  C   UNL     1       7.335   7.031  17.511  0.00  0.00    +0.000 A 
ATOM     17  N   UNL     1       7.476   6.671  16.251  0.00  0.00    +0.000 NA
ATOM     18  N   UNL     1       6.369   5.899  15.950  0.00  0.00    +0.000 NA
ATOM     19  C   UNL     1       5.627   5.844  17.044  0.00  0.00    +0.000 A 
ATOM     20  O   UNL     1       6.190   6.539  18.082  0.00  0.00    +0.000 OA
BRANCH  19  21
ATOM     21  C   UNL     1       4.320   5.225  17.281  0.00  0.00    +0.000 A 
ATOM     22  C   UNL     1       3.249   6.000  17.776  0.00  0.00    +0.000 A 
ATOM     23  C   UNL     1       1.991   5.437  18.004  0.00  0.00    +0.000 A 
ATOM     24  C   UNL     1       1.783   4.088  17.752  0.00  0.00    +0.000 A 
ATOM     25  C   UNL     1       2.828   3.307  17.262  0.00  0.00    +0.000 A 
ATOM     26  C   UNL     1       4.089   3.862  16.983  0.00  0.00    +0.000 A 
BRANCH  26  27
ATOM     27  N   UNL     1       5.127   2.979  16.630  0.00  0.00    +0.000 N 
ATOM     28  H   UNL     1       6.057   3.379  16.685  0.00  0.00    +0.000 HD
ATOM     29  H   UNL     1       5.065   2.068  17.086  0.00  0.00    +0.000 HD
ENDBRANCH  26  27
ENDBRANCH  19  21
ENDBRANCH   2  16
TORSDOF 4
ENDMDL
MODEL 9
REMARK VINA RESULT:      -8.0      6.068      8.206
REMARK  Name = 
REMARK  5 active torsions:
REMARK  status: ('A' for Active; 'I' for Inactive)
REMARK    1  A    between atoms: C_1  and  C_2
REMARK    2  A    between atoms: C_6  and  N_7
REMARK    3  A    between atoms: C_8  and  C_10
REMARK    4  A    between atoms: C_13  and  C_14
REMARK    5  A    between atoms: C_19  and  N_20
REMARK                            x       y       z     vdW  Elec       q    Type
REMARK                         _______ _______ _______ _____ _____    ______ ____
ROOT
ATOM      1  N   UNL     1       8.755   8.661  19.056  0.00  0.00    +0.000 N 
ATOM      2  C   UNL     1       7.900   8.141  18.084  0.00  0.00    +0.000 C 
ATOM      3  O   UNL     1       7.484   8.769  17.111  0.00  0.00    +0.000 OA
ATOM      4  H   UNL     1       9.108   8.000  19.740  0.00  0.00    +0.000 HD
ENDROOT
BRANCH   1  10
ATOM      5  C   UNL     1      11.938  15.178  17.278  0.00  0.00    +0.000 C 
ATOM      6  C   UNL     1      11.273  13.949  17.773  0.00  0.00    +0.000 A 
ATOM      7  C   UNL     1      10.826  12.838  17.092  0.00  0.00    +0.000 A 
ATOM      8  C   UNL     1      10.290  11.928  18.043  0.00  0.00    +0.000 A 
ATOM      9  C   UNL     1       9.721  10.644  17.942  0.00  0.00    +0.000 A 
ATOM     10  C   UNL     1       9.282   9.974  19.089  0.00  0.00    +0.000 A 
ATOM     11  C   UNL     1       9.369  10.617  20.330  0.00  0.00    +0.000 A 
ATOM     12  C   UNL     1       9.939  11.896  20.457  0.00  0.00    +0.000 A 
ATOM     13  C   UNL     1      10.395  12.524  19.295  0.00  0.00    +0.000 A 
ATOM     14  N   UNL     1      11.001  13.747  19.106  0.00  0.00    +0.000 N 
ATOM     15  H   UNL     1      11.221  14.396  19.848  0.00  0.00    +0.000 HD
ENDBRANCH   1  10
BRANCH   2  16
ATOM     16  C   UNL     1       7.571   6.742  18.277  0.00  0.00    +0.000 A 
ATOM     17  N   UNL     1       8.405   5.750  18.522  0.00  0.00    +0.000 NA
ATOM     18  N   UNL     1       7.629   4.605  18.571  0.00  0.00    +0.000 NA
ATOM     19  C   UNL     1       6.379   4.976  18.348  0.00  0.00    +0.000 A 
ATOM     20  O   UNL     1       6.269   6.328  18.161  0.00  0.00    +0.000 OA
BRANCH  19  21
ATOM     21  C   UNL     1       5.155   4.180  18.219  0.00  0.00    +0.000 A 
ATOM     22  C   UNL     1       4.654   3.466  19.329  0.00  0.00    +0.000 A 
ATOM     23  C   UNL     1       3.485   2.706  19.236  0.00  0.00    +0.000 A 
ATOM     24  C   UNL     1       2.803   2.637  18.028  0.00  0.00    +0.000 A 
ATOM     25  C   UNL     1       3.282   3.335  16.921  0.00  0.00    +0.000 A 
ATOM     26  C   UNL     1       4.430   4.141  17.005  0.00  0.00    +0.000 A 
BRANCH  26  27
ATOM     27  N   UNL     1       4.927   4.694  15.810  0.00  0.00    +0.000 N 
ATOM     28  H   UNL     1       4.260   5.263  15.300  0.00  0.00    +0.000 HD
ATOM     29  H   UNL     1       5.833   5.153  15.913  0.00  0.00    +0.000 HD
ENDBRANCH  26  27
ENDBRANCH  19  21
ENDBRANCH   2  16
TORSDOF 4
ENDMDL
