MODEL 1
REMARK VINA RESULT:      -6.2      0.000      0.000
REMARK  Name = 
REMARK  11 active torsions:
REMARK  status: ('A' for Active; 'I' for Inactive)
REMARK    1  A    between atoms: N_1  and  C_2
REMARK    2  A    between atoms: C_2  and  C_3
REMARK    3  A    between atoms: C_5  and  O_6
REMARK    4  A    between atoms: O_6  and  C_7
REMARK    5  A    between atoms: C_8  and  N_9
REMARK    6  A    between atoms: C_14  and  N_15
REMARK    7  A    between atoms: C_19  and  O_20
REMARK    8  A    between atoms: C_21  and  O_22
REMARK    9  A    between atoms: C_23  and  N_24
REMARK   10  A    between atoms: C_28  and  O_29
REMARK   11  A    between atoms: C_30  and  O_31
REMARK                            x       y       z     vdW  Elec       q    Type
REMARK                         _______ _______ _______ _____ _____    ______ ____
ROOT
ATOM      1  C   UNL     1      -0.686  13.557  22.316  0.00  0.00    +0.000 C 
ATOM      2  C   UNL     1      -1.536  12.302  22.657  0.00  0.00    +0.000 C 
ATOM      3  C   UNL     1      -2.774  12.540  23.527  0.00  0.00    +0.000 C 
ATOM      4  C   UNL     1      -3.606  13.723  23.020  0.00  0.00    +0.000 C 
ATOM      5  C   UNL     1      -2.744  14.987  23.121  0.00  0.00    +0.000 C 
ATOM      6  C   UNL     1      -1.538  14.844  22.186  0.00  0.00    +0.000 C 
ENDROOT
BRANCH   2   7
ATOM      7  N   UNL     1      -0.738  11.196  23.193  0.00  0.00    +0.000 NA
ATOM      8  C   UNL     1      -0.164  10.291  22.505  0.00  0.00    +0.000 C 
ATOM      9  N   UNL     1      -0.095  10.070  21.176  0.00  0.00    +0.000 N 
ATOM     10  N   UNL     1       0.488   9.312  23.171  0.00  0.00    +0.000 N 
ATOM     11  H   UNL     1      -0.317  10.811  20.528  0.00  0.00    +0.000 HD
ATOM     12  H   UNL     1       0.612   9.421  20.851  0.00  0.00    +0.000 HD
ATOM     13  H   UNL     1       0.282   9.412  24.162  0.00  0.00    +0.000 HD
ATOM     14  H   UNL     1       0.210   8.389  22.864  0.00  0.00    +0.000 HD
ENDBRANCH   2   7
BRANCH   4  15
ATOM     15  N   UNL     1      -4.799  13.806  23.866  0.00  0.00    +0.000 NA
ATOM     16  C   UNL     1      -5.877  13.192  23.535  0.00  0.00    +0.000 C 
ATOM     17  N   UNL     1      -6.183  12.446  22.454  0.00  0.00    +0.000 N 
ATOM     18  N   UNL     1      -6.941  13.248  24.359  0.00  0.00    +0.000 N 
ATOM     19  H   UNL     1      -5.420  12.224  21.834  0.00  0.00    +0.000 HD
ATOM     20  H   UNL     1      -6.746  11.633  22.676  0.00  0.00    +0.000 HD
ATOM     21  H   UNL     1      -6.791  13.960  25.066  0.00  0.00    +0.000 HD
ATOM     22  H   UNL     1      -7.808  13.417  23.859  0.00  0.00    +0.000 HD
ENDBRANCH   4  15
BRANCH   5  23
ATOM     23  O   UNL     1      -3.493  16.159  22.735  0.00  0.00    +0.000 OA
ATOM     24  H   UNL     1      -4.320  16.188  23.245  0.00  0.00    +0.000 HD
ENDBRANCH   5  23
BRANCH   6  25
ATOM     25  O   UNL     1      -0.718  16.019  22.273  0.00  0.00    +0.000 OA
ATOM     26  H   UNL     1       0.174  15.796  21.955  0.00  0.00    +0.000 HD
ENDBRANCH   6  25
BRANCH   1  27
ATOM     27  O   UNL     1       0.214  13.363  21.178  0.00  0.00    +0.000 OA
BRANCH  27  30
ATOM     28  C   UNL     1       1.694  15.262  19.683  0.00  0.00    +0.000 C 
ATOM     29  O   UNL     1       0.254  15.174  19.645  0.00  0.00    +0.000 OA
ATOM     30  C   UNL     1      -0.206  13.838  19.891  0.00  0.00    +0.000 C 
ATOM     31  C   UNL     1       0.270  12.981  18.685  0.00  0.00    +0.000 C 
ATOM     32  C   UNL     1       1.808  12.971  18.604  0.00  0.00    +0.000 C 
ATOM     33  C   UNL     1       2.353  14.423  18.580  0.00  0.00    +0.000 C 
BRANCH  31  34
ATOM     34  N   UNL     1      -0.284  11.624  18.733  0.00  0.00    +0.000 NA
ATOM     35  C   UNL     1      -1.277  11.333  17.972  0.00  0.00    +0.000 C 
ATOM     36  N   UNL     1      -1.905  12.082  17.045  0.00  0.00    +0.000 N 
ATOM     37  N   UNL     1      -1.860  10.121  18.086  0.00  0.00    +0.000 N 
ATOM     38  H   UNL     1      -1.401  12.846  16.609  0.00  0.00    +0.000 HD
ATOM     39  H   UNL     1      -2.560  11.621  16.434  0.00  0.00    +0.000 HD
ATOM     40  H   UNL     1      -1.313   9.528  18.706  0.00  0.00    +0.000 HD
ATOM     41  H   UNL     1      -2.064   9.649  17.219  0.00  0.00    +0.000 HD
ENDBRANCH  31  34
BRANCH  32  42
ATOM     42  O   UNL     1       2.253  12.287  17.420  0.00  0.00    +0.000 OA
ATOM     43  H   UNL     1       1.635  11.537  17.258  0.00  0.00    +0.000 HD
ENDBRANCH  32  42
BRANCH  33  44
ATOM     44  O   UNL     1       3.779  14.428  18.750  0.00  0.00    +0.000 OA
ATOM     45  H   UNL     1       4.130  15.201  18.272  0.00  0.00    +0.000 HD
ENDBRANCH  33  44
BRANCH  28  46
ATOM     46  C   UNL     1       2.052  16.763  19.664  0.00  0.00    +0.000 C 
BRANCH  46  47
ATOM     47  N   UNL     1       2.935  17.135  18.553  0.00  0.00    +0.000 NA
ATOM     48  H   UNL     1       3.898  17.117  18.879  0.00  0.00    +0.000 HD
ATOM     49  H   UNL     1       2.727  18.103  18.301  0.00  0.00    +0.000 HD
ENDBRANCH  46  47
ENDBRANCH  28  46
ENDBRANCH  27  30
ENDBRANCH   1  27
TORSDOF 11
ENDMDL
MODEL 2
REMARK VINA RESULT:      -6.2      8.248     12.191
REMARK  Name = 
REMARK  11 active torsions:
REMARK  status: ('A' for Active; 'I' for Inactive)
REMARK    1  A    between atoms: N_1  and  C_2
REMARK    2  A    between atoms: C_2  and  C_3
REMARK    3  A    between atoms: C_5  and  O_6
REMARK    4  A    between atoms: O_6  and  C_7
REMARK    5  A    between atoms: C_8  and  N_9
REMARK    6  A    between atoms: C_14  and  N_15
REMARK    7  A    between atoms: C_19  and  O_20
REMARK    8  A    between atoms: C_21  and  O_22
REMARK    9  A    between atoms: C_23  and  N_24
REMARK   10  A    between atoms: C_28  and  O_29
REMARK   11  A    between atoms: C_30  and  O_31
REMARK                            x       y       z     vdW  Elec       q    Type
REMARK                         _______ _______ _______ _____ _____    ______ ____
ROOT
ATOM      1  C   UNL     1       5.652   5.705  17.568  0.00  0.00    +0.000 C 
ATOM      2  C   UNL     1       6.127   6.611  16.399  0.00  0.00    +0.000 C 
ATOM      3  C   UNL     1       6.881   5.910  15.264  0.00  0.00    +0.000 C 
ATOM      4  C   UNL     1       6.156   4.642  14.799  0.00  0.00    +0.000 C 
ATOM      5  C   UNL     1       6.116   3.661  15.977  0.00  0.00    +0.000 C 
ATOM      6  C   UNL     1       5.283   4.273  17.107  0.00  0.00    +0.000 C 
ENDROOT
BRANCH   2   7
ATOM      7  N   UNL     1       6.867   7.792  16.852  0.00  0.00    +0.000 NA
ATOM      8  C   UNL     1       7.713   7.820  17.803  0.00  0.00    +0.000 C 
ATOM      9  N   UNL     1       8.178   6.862  18.631  0.00  0.00    +0.000 N 
ATOM     10  N   UNL     1       8.263   9.013  18.123  0.00  0.00    +0.000 N 
ATOM     11  H   UNL     1       8.061   5.888  18.394  0.00  0.00    +0.000 HD
ATOM     12  H   UNL     1       9.018   7.072  19.156  0.00  0.00    +0.000 HD
ATOM     13  H   UNL     1       7.778   9.736  17.596  0.00  0.00    +0.000 HD
ATOM     14  H   UNL     1       8.193   9.215  19.111  0.00  0.00    +0.000 HD
ENDBRANCH   2   7
BRANCH   4  15
ATOM     15  N   UNL     1       6.911   4.104  13.664  0.00  0.00    +0.000 NA
ATOM     16  C   UNL     1       6.299   3.593  12.658  0.00  0.00    +0.000 C 
ATOM     17  N   UNL     1       4.987   3.395  12.418  0.00  0.00    +0.000 N 
ATOM     18  N   UNL     1       7.020   3.152  11.609  0.00  0.00    +0.000 N 
ATOM     19  H   UNL     1       4.345   3.809  13.076  0.00  0.00    +0.000 HD
ATOM     20  H   UNL     1       4.724   3.581  11.457  0.00  0.00    +0.000 HD
ATOM     21  H   UNL     1       8.002   3.112  11.860  0.00  0.00    +0.000 HD
ATOM     22  H   UNL     1       6.699   2.249  11.273  0.00  0.00    +0.000 HD
ENDBRANCH   4  15
BRANCH   5  23
ATOM     23  O   UNL     1       5.517   2.405  15.587  0.00  0.00    +0.000 OA
ATOM     24  H   UNL     1       5.197   2.479  14.672  0.00  0.00    +0.000 HD
ENDBRANCH   5  23
BRANCH   6  25
ATOM     25  O   UNL     1       5.240   3.366  18.220  0.00  0.00    +0.000 OA
ATOM     26  H   UNL     1       5.130   3.885  19.036  0.00  0.00    +0.000 HD
ENDBRANCH   6  25
BRANCH   1  27
ATOM     27  O   UNL     1       4.609   6.314  18.394  0.00  0.00    +0.000 OA
BRANCH  27  30
ATOM     28  C   UNL     1       2.543   4.717  19.495  0.00  0.00    +0.000 C 
ATOM     29  O   UNL     1       2.613   5.066  18.096  0.00  0.00    +0.000 OA
ATOM     30  C   UNL     1       3.265   6.327  17.892  0.00  0.00    +0.000 C 
ATOM     31  C   UNL     1       2.337   7.406  18.518  0.00  0.00    +0.000 C 
ATOM     32  C   UNL     1       2.176   7.167  20.030  0.00  0.00    +0.000 C 
ATOM     33  C   UNL     1       1.699   5.716  20.297  0.00  0.00    +0.000 C 
BRANCH  31  34
ATOM     34  N   UNL     1       2.812   8.762  18.225  0.00  0.00    +0.000 NA
ATOM     35  C   UNL     1       1.951   9.669  17.932  0.00  0.00    +0.000 C 
ATOM     36  N   UNL     1       0.606   9.606  17.893  0.00  0.00    +0.000 N 
ATOM     37  N   UNL     1       2.385  10.892  17.558  0.00  0.00    +0.000 N 
ATOM     38  H   UNL     1       0.133   8.908  18.454  0.00  0.00    +0.000 HD
ATOM     39  H   UNL     1       0.098  10.471  17.800  0.00  0.00    +0.000 HD
ATOM     40  H   UNL     1       3.391  10.962  17.697  0.00  0.00    +0.000 HD
ATOM     41  H   UNL     1       1.907  11.674  17.976  0.00  0.00    +0.000 HD
ENDBRANCH  31  34
BRANCH  32  42
ATOM     42  O   UNL     1       1.222   8.082  20.593  0.00  0.00    +0.000 OA
ATOM     43  H   UNL     1       0.538   8.261  19.907  0.00  0.00    +0.000 HD
ENDBRANCH  32  42
BRANCH  33  44
ATOM     44  O   UNL     1       1.779   5.409  21.697  0.00  0.00    +0.000 OA
ATOM     45  H   UNL     1       0.901   5.095  21.981  0.00  0.00    +0.000 HD
ENDBRANCH  33  44
BRANCH  28  46
ATOM     46  C   UNL     1       2.066   3.251  19.568  0.00  0.00    +0.000 C 
BRANCH  46  47
ATOM     47  N   UNL     1       0.698   3.111  20.078  0.00  0.00    +0.000 NA
ATOM     48  H   UNL     1       0.083   2.864  19.306  0.00  0.00    +0.000 HD
ATOM     49  H   UNL     1       0.395   4.028  20.413  0.00  0.00    +0.000 HD
ENDBRANCH  46  47
ENDBRANCH  28  46
ENDBRANCH  27  30
ENDBRANCH   1  27
TORSDOF 11
ENDMDL
MODEL 3
REMARK VINA RESULT:      -6.0      2.946      6.848
REMARK  Name = 
REMARK  11 active torsions:
REMARK  status: ('A' for Active; 'I' for Inactive)
REMARK    1  A    between atoms: N_1  and  C_2
REMARK    2  A    between atoms: C_2  and  C_3
REMARK    3  A    between atoms: C_5  and  O_6
REMARK    4  A    between atoms: O_6  and  C_7
REMARK    5  A    between atoms: C_8  and  N_9
REMARK    6  A    between atoms: C_14  and  N_15
REMARK    7  A    between atoms: C_19  and  O_20
REMARK    8  A    between atoms: C_21  and  O_22
REMARK    9  A    between atoms: C_23  and  N_24
REMARK   10  A    between atoms: C_28  and  O_29
REMARK   11  A    between atoms: C_30  and  O_31
REMARK                            x       y       z     vdW  Elec       q    Type
REMARK                         _______ _______ _______ _____ _____    ______ ____
ROOT
ATOM      1  C   UNL     1      -1.598  12.540  19.838  0.00  0.00    +0.000 C 
ATOM      2  C   UNL     1      -1.899  11.316  18.931  0.00  0.00    +0.000 C 
ATOM      3  C   UNL     1      -0.718  10.385  18.637  0.00  0.00    +0.000 C 
ATOM      4  C   UNL     1       0.052  10.026  19.912  0.00  0.00    +0.000 C 
ATOM      5  C   UNL     1       0.640  11.318  20.491  0.00  0.00    +0.000 C 
ATOM      6  C   UNL     1      -0.507  12.248  20.899  0.00  0.00    +0.000 C 
ENDROOT
BRANCH   2   7
ATOM      7  N   UNL     1      -2.587  11.678  17.688  0.00  0.00    +0.000 NA
ATOM      8  C   UNL     1      -3.758  11.307  17.352  0.00  0.00    +0.000 C 
ATOM      9  N   UNL     1      -4.677  10.537  17.969  0.00  0.00    +0.000 N 
ATOM     10  N   UNL     1      -4.216  11.692  16.140  0.00  0.00    +0.000 N 
ATOM     11  H   UNL     1      -4.606  10.360  18.959  0.00  0.00    +0.000 HD
ATOM     12  H   UNL     1      -5.625  10.572  17.612  0.00  0.00    +0.000 HD
ATOM     13  H   UNL     1      -3.448  12.128  15.635  0.00  0.00    +0.000 HD
ATOM     14  H   UNL     1      -4.572  10.915  15.599  0.00  0.00    +0.000 HD
ENDBRANCH   2   7
BRANCH   4  15
ATOM     15  N   UNL     1       1.098   9.072  19.531  0.00  0.00    +0.000 NA
ATOM     16  C   UNL     1       1.538   8.215  20.378  0.00  0.00    +0.000 C 
ATOM     17  N   UNL     1       1.239   8.009  21.677  0.00  0.00    +0.000 N 
ATOM     18  N   UNL     1       2.464   7.319  19.983  0.00  0.00    +0.000 N 
ATOM     19  H   UNL     1       0.461   8.534  22.045  0.00  0.00    +0.000 HD
ATOM     20  H   UNL     1       1.193   7.028  21.927  0.00  0.00    +0.000 HD
ATOM     21  H   UNL     1       2.837   7.589  19.078  0.00  0.00    +0.000 HD
ATOM     22  H   UNL     1       3.211   7.212  20.661  0.00  0.00    +0.000 HD
ENDBRANCH   4  15
BRANCH   5  23
ATOM     23  O   UNL     1       1.452  11.045  21.654  0.00  0.00    +0.000 OA
ATOM     24  H   UNL     1       2.293  11.526  21.571  0.00  0.00    +0.000 HD
ENDBRANCH   5  23
BRANCH   6  25
ATOM     25  O   UNL     1       0.029  13.467  21.439  0.00  0.00    +0.000 OA
ATOM     26  H   UNL     1       0.998  13.431  21.376  0.00  0.00    +0.000 HD
ENDBRANCH   6  25
BRANCH   1  27
ATOM     27  O   UNL     1      -2.796  13.147  20.420  0.00  0.00    +0.000 OA
BRANCH  27  30
ATOM     28  C   UNL     1      -2.937  14.275  23.016  0.00  0.00    +0.000 C 
ATOM     29  O   UNL     1      -2.834  12.855  22.775  0.00  0.00    +0.000 OA
ATOM     30  C   UNL     1      -3.428  12.482  21.524  0.00  0.00    +0.000 C 
ATOM     31  C   UNL     1      -4.953  12.745  21.666  0.00  0.00    +0.000 C 
ATOM     32  C   UNL     1      -5.221  14.240  21.919  0.00  0.00    +0.000 C 
ATOM     33  C   UNL     1      -4.395  14.736  23.134  0.00  0.00    +0.000 C 
BRANCH  31  34
ATOM     34  N   UNL     1      -5.699  12.243  20.508  0.00  0.00    +0.000 NA
ATOM     35  C   UNL     1      -6.810  11.630  20.706  0.00  0.00    +0.000 C 
ATOM     36  N   UNL     1      -7.477  11.396  21.852  0.00  0.00    +0.000 N 
ATOM     37  N   UNL     1      -7.449  11.072  19.655  0.00  0.00    +0.000 N 
ATOM     38  H   UNL     1      -7.327  12.013  22.641  0.00  0.00    +0.000 HD
ATOM     39  H   UNL     1      -8.417  11.039  21.784  0.00  0.00    +0.000 HD
ATOM     40  H   UNL     1      -6.998  11.347  18.786  0.00  0.00    +0.000 HD
ATOM     41  H   UNL     1      -8.444  11.231  19.612  0.00  0.00    +0.000 HD
ENDBRANCH  31  34
BRANCH  32  42
ATOM     42  O   UNL     1      -6.616  14.473  22.177  0.00  0.00    +0.000 OA
ATOM     43  H   UNL     1      -6.998  14.911  21.383  0.00  0.00    +0.000 HD
ENDBRANCH  32  42
BRANCH  33  44
ATOM     44  O   UNL     1      -4.448  16.168  23.228  0.00  0.00    +0.000 OA
ATOM     45  H   UNL     1      -3.575  16.513  22.967  0.00  0.00    +0.000 HD
ENDBRANCH  33  44
BRANCH  28  46
ATOM     46  C   UNL     1      -2.051  14.586  24.241  0.00  0.00    +0.000 C 
BRANCH  46  47
ATOM     47  N   UNL     1      -0.667  14.915  23.886  0.00  0.00    +0.000 NA
ATOM     48  H   UNL     1      -0.668  15.462  23.029  0.00  0.00    +0.000 HD
ATOM     49  H   UNL     1      -0.183  14.040  23.677  0.00  0.00    +0.000 HD
ENDBRANCH  46  47
ENDBRANCH  28  46
ENDBRANCH  27  30
ENDBRANCH   1  27
TORSDOF 11
ENDMDL
MODEL 4
REMARK VINA RESULT:      -6.0      3.348      7.649
REMARK  Name = 
REMARK  11 active torsions:
REMARK  status: ('A' for Active; 'I' for Inactive)
REMARK    1  A    between atoms: N_1  and  C_2
REMARK    2  A    between atoms: C_2  and  C_3
REMARK    3  A    between atoms: C_5  and  O_6
REMARK    4  A    between atoms: O_6  and  C_7
REMARK    5  A    between atoms: C_8  and  N_9
REMARK    6  A    between atoms: C_14  and  N_15
REMARK    7  A    between atoms: C_19  and  O_20
REMARK    8  A    between atoms: C_21  and  O_22
REMARK    9  A    between atoms: C_23  and  N_24
REMARK   10  A    between atoms: C_28  and  O_29
REMARK   11  A    between atoms: C_30  and  O_31
REMARK                            x       y       z     vdW  Elec       q    Type
REMARK                         _______ _______ _______ _____ _____    ______ ____
ROOT
ATOM      1  C   UNL     1      -1.686  11.876  20.399  0.00  0.00    +0.000 C 
ATOM      2  C   UNL     1      -1.819  10.969  19.144  0.00  0.00    +0.000 C 
ATOM      3  C   UNL     1      -0.526  10.323  18.638  0.00  0.00    +0.000 C 
ATOM      4  C   UNL     1       0.271   9.677  19.777  0.00  0.00    +0.000 C 
ATOM      5  C   UNL     1       0.683  10.785  20.755  0.00  0.00    +0.000 C 
ATOM      6  C   UNL     1      -0.578  11.399  21.371  0.00  0.00    +0.000 C 
ENDROOT
BRANCH   2   7
ATOM      7  N   UNL     1      -2.534  11.616  18.041  0.00  0.00    +0.000 NA
ATOM      8  C   UNL     1      -3.717  11.340  17.659  0.00  0.00    +0.000 C 
ATOM      9  N   UNL     1      -4.629  10.450  18.103  0.00  0.00    +0.000 N 
ATOM     10  N   UNL     1      -4.202  12.001  16.584  0.00  0.00    +0.000 N 
ATOM     11  H   UNL     1      -4.534  10.046  19.022  0.00  0.00    +0.000 HD
ATOM     12  H   UNL     1      -5.585  10.573  17.790  0.00  0.00    +0.000 HD
ATOM     13  H   UNL     1      -3.442  12.540  16.175  0.00  0.00    +0.000 HD
ATOM     14  H   UNL     1      -4.580  11.374  15.886  0.00  0.00    +0.000 HD
ENDBRANCH   2   7
BRANCH   4  15
ATOM     15  N   UNL     1       1.434   9.021  19.174  0.00  0.00    +0.000 NA
ATOM     16  C   UNL     1       1.921   7.952  19.692  0.00  0.00    +0.000 C 
ATOM     17  N   UNL     1       1.579   7.260  20.798  0.00  0.00    +0.000 N 
ATOM     18  N   UNL     1       2.959   7.345  19.085  0.00  0.00    +0.000 N 
ATOM     19  H   UNL     1       0.729   7.547  21.258  0.00  0.00    +0.000 HD
ATOM     20  H   UNL     1       1.628   6.256  20.673  0.00  0.00    +0.000 HD
ATOM     21  H   UNL     1       3.348   7.958  18.376  0.00  0.00    +0.000 HD
ATOM     22  H   UNL     1       3.677   7.060  19.744  0.00  0.00    +0.000 HD
ENDBRANCH   4  15
BRANCH   5  23
ATOM     23  O   UNL     1       1.510  10.262  21.816  0.00  0.00    +0.000 OA
ATOM     24  H   UNL     1       1.234   9.351  22.012  0.00  0.00    +0.000 HD
ENDBRANCH   5  23
BRANCH   6  25
ATOM     25  O   UNL     1      -0.209  12.443  22.286  0.00  0.00    +0.000 OA
ATOM     26  H   UNL     1      -0.982  12.659  22.834  0.00  0.00    +0.000 HD
ENDBRANCH   6  25
BRANCH   1  27
ATOM     27  O   UNL     1      -2.959  12.125  21.078  0.00  0.00    +0.000 OA
BRANCH  27  30
ATOM     28  C   UNL     1      -5.721  12.675  20.767  0.00  0.00    +0.000 C 
ATOM     29  O   UNL     1      -4.681  13.542  20.268  0.00  0.00    +0.000 OA
ATOM     30  C   UNL     1      -3.489  13.458  21.061  0.00  0.00    +0.000 C 
ATOM     31  C   UNL     1      -3.849  14.042  22.457  0.00  0.00    +0.000 C 
ATOM     32  C   UNL     1      -4.953  13.201  23.124  0.00  0.00    +0.000 C 
ATOM     33  C   UNL     1      -6.175  13.071  22.178  0.00  0.00    +0.000 C 
BRANCH  31  34
ATOM     34  N   UNL     1      -2.664  14.169  23.311  0.00  0.00    +0.000 NA
ATOM     35  C   UNL     1      -2.115  15.322  23.442  0.00  0.00    +0.000 C 
ATOM     36  N   UNL     1      -2.485  16.518  22.943  0.00  0.00    +0.000 N 
ATOM     37  N   UNL     1      -0.965  15.428  24.140  0.00  0.00    +0.000 N 
ATOM     38  H   UNL     1      -3.459  16.670  22.707  0.00  0.00    +0.000 HD
ATOM     39  H   UNL     1      -2.016  17.338  23.293  0.00  0.00    +0.000 HD
ATOM     40  H   UNL     1      -0.755  14.546  24.601  0.00  0.00    +0.000 HD
ATOM     41  H   UNL     1      -0.915  16.197  24.790  0.00  0.00    +0.000 HD
ENDBRANCH  31  34
BRANCH  32  42
ATOM     42  O   UNL     1      -5.380  13.805  24.356  0.00  0.00    +0.000 OA
ATOM     43  H   UNL     1      -4.600  13.845  24.957  0.00  0.00    +0.000 HD
ENDBRANCH  32  42
BRANCH  33  44
ATOM     44  O   UNL     1      -7.101  12.098  22.684  0.00  0.00    +0.000 OA
ATOM     45  H   UNL     1      -7.091  11.337  22.075  0.00  0.00    +0.000 HD
ENDBRANCH  33  44
BRANCH  28  46
ATOM     46  C   UNL     1      -6.838  12.657  19.702  0.00  0.00    +0.000 C 
BRANCH  46  47
ATOM     47  N   UNL     1      -7.481  11.347  19.559  0.00  0.00    +0.000 NA
ATOM     48  H   UNL     1      -6.782  10.669  19.264  0.00  0.00    +0.000 HD
ATOM     49  H   UNL     1      -8.163  11.416  18.801  0.00  0.00    +0.000 HD
ENDBRANCH  46  47
ENDBRANCH  28  46
ENDBRANCH  27  30
ENDBRANCH   1  27
TORSDOF 11
ENDMDL
MODEL 5
REMARK VINA RESULT:      -6.0      3.016      7.841
REMARK  Name = 
REMARK  11 active torsions:
REMARK  status: ('A' for Active; 'I' for Inactive)
REMARK    1  A    between atoms: N_1  and  C_2
REMARK    2  A    between atoms: C_2  and  C_3
REMARK    3  A    between atoms: C_5  and  O_6
REMARK    4  A    between atoms: O_6  and  C_7
REMARK    5  A    between atoms: C_8  and  N_9
REMARK    6  A    between atoms: C_14  and  N_15
REMARK    7  A    between atoms: C_19  and  O_20
REMARK    8  A    between atoms: C_21  and  O_22
REMARK    9  A    between atoms: C_23  and  N_24
REMARK   10  A    between atoms: C_28  and  O_29
REMARK   11  A    between atoms: C_30  and  O_31
REMARK                            x       y       z     vdW  Elec       q    Type
REMARK                         _______ _______ _______ _____ _____    ______ ____
ROOT
ATOM      1  C   UNL     1      -2.413  12.245  19.784  0.00  0.00    +0.000 C 
ATOM      2  C   UNL     1      -2.632  11.206  18.650  0.00  0.00    +0.000 C 
ATOM      3  C   UNL     1      -1.377  10.744  17.904  0.00  0.00    +0.000 C 
ATOM      4  C   UNL     1      -0.249  10.365  18.871  0.00  0.00    +0.000 C 
ATOM      5  C   UNL     1       0.141  11.621  19.660  0.00  0.00    +0.000 C 
ATOM      6  C   UNL     1      -1.055  12.068  20.507  0.00  0.00    +0.000 C 
ENDROOT
BRANCH   2   7
ATOM      7  N   UNL     1      -3.674  11.605  17.699  0.00  0.00    +0.000 NA
ATOM      8  C   UNL     1      -4.912  11.321  17.791  0.00  0.00    +0.000 C 
ATOM      9  N   UNL     1      -5.618  10.631  18.711  0.00  0.00    +0.000 N 
ATOM     10  N   UNL     1      -5.727  11.725  16.791  0.00  0.00    +0.000 N 
ATOM     11  H   UNL     1      -5.228  10.461  19.625  0.00  0.00    +0.000 HD
ATOM     12  H   UNL     1      -6.626  10.735  18.693  0.00  0.00    +0.000 HD
ATOM     13  H   UNL     1      -5.148  12.095  16.041  0.00  0.00    +0.000 HD
ATOM     14  H   UNL     1      -6.297  10.971  16.432  0.00  0.00    +0.000 HD
ENDBRANCH   2   7
BRANCH   4  15
ATOM     15  N   UNL     1       0.863   9.861  18.061  0.00  0.00    +0.000 NA
ATOM     16  C   UNL     1       1.643   8.950  18.520  0.00  0.00    +0.000 C 
ATOM     17  N   UNL     1       1.680   8.326  19.715  0.00  0.00    +0.000 N 
ATOM     18  N   UNL     1       2.626   8.472  17.732  0.00  0.00    +0.000 N 
ATOM     19  H   UNL     1       0.908   8.508  20.337  0.00  0.00    +0.000 HD
ATOM     20  H   UNL     1       1.892   7.338  19.644  0.00  0.00    +0.000 HD
ATOM     21  H   UNL     1       2.731   9.067  16.917  0.00  0.00    +0.000 HD
ATOM     22  H   UNL     1       3.508   8.383  18.227  0.00  0.00    +0.000 HD
ENDBRANCH   4  15
BRANCH   5  23
ATOM     23  O   UNL     1       1.258  11.358  20.536  0.00  0.00    +0.000 OA
ATOM     24  H   UNL     1       0.920  11.104  21.412  0.00  0.00    +0.000 HD
ENDBRANCH   5  23
BRANCH   6  25
ATOM     25  O   UNL     1      -0.706  13.247  21.249  0.00  0.00    +0.000 OA
ATOM     26  H   UNL     1      -1.502  13.798  21.342  0.00  0.00    +0.000 HD
ENDBRANCH   6  25
BRANCH   1  27
ATOM     27  O   UNL     1      -3.537  12.339  20.717  0.00  0.00    +0.000 OA
BRANCH  27  30
ATOM     28  C   UNL     1      -6.228  12.414  21.602  0.00  0.00    +0.000 C 
ATOM     29  O   UNL     1      -5.718  13.258  20.547  0.00  0.00    +0.000 OA
ATOM     30  C   UNL     1      -4.322  13.540  20.716  0.00  0.00    +0.000 C 
ATOM     31  C   UNL     1      -4.203  14.406  22.002  0.00  0.00    +0.000 C 
ATOM     32  C   UNL     1      -4.706  13.623  23.228  0.00  0.00    +0.000 C 
ATOM     33  C   UNL     1      -6.141  13.092  22.975  0.00  0.00    +0.000 C 
BRANCH  31  34
ATOM     34  N   UNL     1      -2.838  14.905  22.192  0.00  0.00    +0.000 NA
ATOM     35  C   UNL     1      -2.669  16.129  22.544  0.00  0.00    +0.000 C 
ATOM     36  N   UNL     1      -3.579  17.079  22.835  0.00  0.00    +0.000 N 
ATOM     37  N   UNL     1      -1.415  16.625  22.619  0.00  0.00    +0.000 N 
ATOM     38  H   UNL     1      -4.498  16.795  23.153  0.00  0.00    +0.000 HD
ATOM     39  H   UNL     1      -3.247  17.935  23.250  0.00  0.00    +0.000 HD
ATOM     40  H   UNL     1      -0.737  15.876  22.506  0.00  0.00    +0.000 HD
ATOM     41  H   UNL     1      -1.211  17.179  23.436  0.00  0.00    +0.000 HD
ENDBRANCH  31  34
BRANCH  32  42
ATOM     42  O   UNL     1      -4.718  14.458  24.398  0.00  0.00    +0.000 OA
ATOM     43  H   UNL     1      -5.561  14.967  24.394  0.00  0.00    +0.000 HD
ENDBRANCH  32  42
BRANCH  33  44
ATOM     44  O   UNL     1      -6.523  12.164  24.002  0.00  0.00    +0.000 OA
ATOM     45  H   UNL     1      -7.478  11.999  23.910  0.00  0.00    +0.000 HD
ENDBRANCH  33  44
BRANCH  28  46
ATOM     46  C   UNL     1      -7.645  11.975  21.178  0.00  0.00    +0.000 C 
BRANCH  46  47
ATOM     47  N   UNL     1      -7.876  10.535  21.331  0.00  0.00    +0.000 NA
ATOM     48  H   UNL     1      -8.046  10.332  22.314  0.00  0.00    +0.000 HD
ATOM     49  H   UNL     1      -7.012  10.052  21.077  0.00  0.00    +0.000 HD
ENDBRANCH  46  47
ENDBRANCH  28  46
ENDBRANCH  27  30
ENDBRANCH   1  27
TORSDOF 11
ENDMDL
MODEL 6
REMARK VINA RESULT:      -5.9      2.573      7.233
REMARK  Name = 
REMARK  11 active torsions:
REMARK  status: ('A' for Active; 'I' for Inactive)
REMARK    1  A    between atoms: N_1  and  C_2
REMARK    2  A    between atoms: C_2  and  C_3
REMARK    3  A    between atoms: C_5  and  O_6
REMARK    4  A    between atoms: O_6  and  C_7
REMARK    5  A    between atoms: C_8  and  N_9
REMARK    6  A    between atoms: C_14  and  N_15
REMARK    7  A    between atoms: C_19  and  O_20
REMARK    8  A    between atoms: C_21  and  O_22
REMARK    9  A    between atoms: C_23  and  N_24
REMARK   10  A    between atoms: C_28  and  O_29
REMARK   11  A    between atoms: C_30  and  O_31
REMARK                            x       y       z     vdW  Elec       q    Type
REMARK                         _______ _______ _______ _____ _____    ______ ____
ROOT
ATOM      1  C   UNL     1      -1.858  11.893  20.857  0.00  0.00    +0.000 C 
ATOM      2  C   UNL     1      -0.506  12.142  21.581  0.00  0.00    +0.000 C 
ATOM      3  C   UNL     1       0.738  12.196  20.689  0.00  0.00    +0.000 C 
ATOM      4  C   UNL     1       0.523  13.098  19.468  0.00  0.00    +0.000 C 
ATOM      5  C   UNL     1      -0.601  12.489  18.622  0.00  0.00    +0.000 C 
ATOM      6  C   UNL     1      -1.900  12.506  19.434  0.00  0.00    +0.000 C 
ENDROOT
BRANCH   2   7
ATOM      7  N   UNL     1      -0.286  11.238  22.713  0.00  0.00    +0.000 NA
ATOM      8  C   UNL     1      -0.222   9.968  22.649  0.00  0.00    +0.000 C 
ATOM      9  N   UNL     1      -0.317   9.107  21.615  0.00  0.00    +0.000 N 
ATOM     10  N   UNL     1      -0.068   9.286  23.805  0.00  0.00    +0.000 N 
ATOM     11  H   UNL     1      -0.200   9.438  20.669  0.00  0.00    +0.000 HD
ATOM     12  H   UNL     1      -0.003   8.157  21.774  0.00  0.00    +0.000 HD
ATOM     13  H   UNL     1      -0.163   9.944  24.575  0.00  0.00    +0.000 HD
ATOM     14  H   UNL     1      -0.751   8.548  23.910  0.00  0.00    +0.000 HD
ENDBRANCH   2   7
BRANCH   4  15
ATOM     15  N   UNL     1       1.793  13.145  18.737  0.00  0.00    +0.000 NA
ATOM     16  C   UNL     1       2.331  14.271  18.439  0.00  0.00    +0.000 C 
ATOM     17  N   UNL     1       1.921  15.540  18.645  0.00  0.00    +0.000 N 
ATOM     18  N   UNL     1       3.523  14.281  17.811  0.00  0.00    +0.000 N 
ATOM     19  H   UNL     1       1.106  15.656  19.226  0.00  0.00    +0.000 HD
ATOM     20  H   UNL     1       2.673  16.166  18.908  0.00  0.00    +0.000 HD
ATOM     21  H   UNL     1       3.742  13.348  17.478  0.00  0.00    +0.000 HD
ATOM     22  H   UNL     1       3.551  14.950  17.048  0.00  0.00    +0.000 HD
ENDBRANCH   4  15
BRANCH   5  23
ATOM     23  O   UNL     1      -0.804  13.244  17.407  0.00  0.00    +0.000 OA
ATOM     24  H   UNL     1      -1.058  14.153  17.639  0.00  0.00    +0.000 HD
ENDBRANCH   5  23
BRANCH   6  25
ATOM     25  O   UNL     1      -2.963  11.934  18.656  0.00  0.00    +0.000 OA
ATOM     26  H   UNL     1      -3.142  11.038  18.991  0.00  0.00    +0.000 HD
ENDBRANCH   6  25
BRANCH   1  27
ATOM     27  O   UNL     1      -3.027  12.256  21.658  0.00  0.00    +0.000 OA
BRANCH  27  30
ATOM     28  C   UNL     1      -5.613  12.993  20.763  0.00  0.00    +0.000 C 
ATOM     29  O   UNL     1      -4.447  13.826  20.585  0.00  0.00    +0.000 OA
ATOM     30  C   UNL     1      -3.479  13.618  21.623  0.00  0.00    +0.000 C 
ATOM     31  C   UNL     1      -4.130  14.130  22.939  0.00  0.00    +0.000 C 
ATOM     32  C   UNL     1      -5.395  13.317  23.267  0.00  0.00    +0.000 C 
ATOM     33  C   UNL     1      -6.366  13.323  22.058  0.00  0.00    +0.000 C 
BRANCH  31  34
ATOM     34  N   UNL     1      -3.173  14.129  24.050  0.00  0.00    +0.000 NA
ATOM     35  C   UNL     1      -3.223  15.080  24.911  0.00  0.00    +0.000 C 
ATOM     36  N   UNL     1      -4.080  16.115  25.009  0.00  0.00    +0.000 N 
ATOM     37  N   UNL     1      -2.281  15.144  25.876  0.00  0.00    +0.000 N 
ATOM     38  H   UNL     1      -5.003  16.026  24.601  0.00  0.00    +0.000 HD
ATOM     39  H   UNL     1      -4.056  16.667  25.852  0.00  0.00    +0.000 HD
ATOM     40  H   UNL     1      -1.708  14.304  25.860  0.00  0.00    +0.000 HD
ATOM     41  H   UNL     1      -2.618  15.335  26.807  0.00  0.00    +0.000 HD
ENDBRANCH  31  34
BRANCH  32  42
ATOM     42  O   UNL     1      -6.072  13.865  24.411  0.00  0.00    +0.000 OA
ATOM     43  H   UNL     1      -6.862  14.355  24.085  0.00  0.00    +0.000 HD
ENDBRANCH  32  42
BRANCH  33  44
ATOM     44  O   UNL     1      -7.427  12.377  22.260  0.00  0.00    +0.000 OA
ATOM     45  H   UNL     1      -7.456  11.795  21.480  0.00  0.00    +0.000 HD
ENDBRANCH  33  44
BRANCH  28  46
ATOM     46  C   UNL     1      -6.450  13.113  19.472  0.00  0.00    +0.000 C 
BRANCH  46  47
ATOM     47  N   UNL     1      -5.633  13.154  18.254  0.00  0.00    +0.000 NA
ATOM     48  H   UNL     1      -4.936  13.889  18.351  0.00  0.00    +0.000 HD
ATOM     49  H   UNL     1      -6.241  13.426  17.480  0.00  0.00    +0.000 HD
ENDBRANCH  46  47
ENDBRANCH  28  46
ENDBRANCH  27  30
ENDBRANCH   1  27
TORSDOF 11
ENDMDL
MODEL 7
REMARK VINA RESULT:      -5.9      3.086      6.987
REMARK  Name = 
REMARK  11 active torsions:
REMARK  status: ('A' for Active; 'I' for Inactive)
REMARK    1  A    between atoms: N_1  and  C_2
REMARK    2  A    between atoms: C_2  and  C_3
REMARK    3  A    between atoms: C_5  and  O_6
REMARK    4  A    between atoms: O_6  and  C_7
REMARK    5  A    between atoms: C_8  and  N_9
REMARK    6  A    between atoms: C_14  and  N_15
REMARK    7  A    between atoms: C_19  and  O_20
REMARK    8  A    between atoms: C_21  and  O_22
REMARK    9  A    between atoms: C_23  and  N_24
REMARK   10  A    between atoms: C_28  and  O_29
REMARK   11  A    between atoms: C_30  and  O_31
REMARK                            x       y       z     vdW  Elec       q    Type
REMARK                         _______ _______ _______ _____ _____    ______ ____
ROOT
ATOM      1  C   UNL     1      -1.537  12.562  19.866  0.00  0.00    +0.000 C 
ATOM      2  C   UNL     1      -1.789  11.376  18.894  0.00  0.00    +0.000 C 
ATOM      3  C   UNL     1      -0.601  10.442  18.645  0.00  0.00    +0.000 C 
ATOM      4  C   UNL     1       0.078  10.025  19.954  0.00  0.00    +0.000 C 
ATOM      5  C   UNL     1       0.639  11.288  20.620  0.00  0.00    +0.000 C 
ATOM      6  C   UNL     1      -0.523  12.217  20.985  0.00  0.00    +0.000 C 
ENDROOT
BRANCH   2   7
ATOM      7  N   UNL     1      -2.389  11.793  17.623  0.00  0.00    +0.000 NA
ATOM      8  C   UNL     1      -3.058  11.048  16.838  0.00  0.00    +0.000 C 
ATOM      9  N   UNL     1      -3.417   9.749  16.906  0.00  0.00    +0.000 N 
ATOM     10  N   UNL     1      -3.492  11.586  15.676  0.00  0.00    +0.000 N 
ATOM     11  H   UNL     1      -3.385   9.262  17.788  0.00  0.00    +0.000 HD
ATOM     12  H   UNL     1      -4.146   9.437  16.275  0.00  0.00    +0.000 HD
ATOM     13  H   UNL     1      -3.072  12.507  15.578  0.00  0.00    +0.000 HD
ATOM     14  H   UNL     1      -3.246  11.020  14.875  0.00  0.00    +0.000 HD
ENDBRANCH   2   7
BRANCH   4  15
ATOM     15  N   UNL     1       1.137   9.073  19.608  0.00  0.00    +0.000 NA
ATOM     16  C   UNL     1       1.513   8.182  20.451  0.00  0.00    +0.000 C 
ATOM     17  N   UNL     1       1.130   7.935  21.720  0.00  0.00    +0.000 N 
ATOM     18  N   UNL     1       2.454   7.290  20.085  0.00  0.00    +0.000 N 
ATOM     19  H   UNL     1       0.334   8.457  22.055  0.00  0.00    +0.000 HD
ATOM     20  H   UNL     1       1.058   6.947  21.932  0.00  0.00    +0.000 HD
ATOM     21  H   UNL     1       2.887   7.586  19.216  0.00  0.00    +0.000 HD
ATOM     22  H   UNL     1       3.155   7.151  20.806  0.00  0.00    +0.000 HD
ENDBRANCH   4  15
BRANCH   5  23
ATOM     23  O   UNL     1       1.368  10.961  21.823  0.00  0.00    +0.000 OA
ATOM     24  H   UNL     1       1.973  10.224  21.635  0.00  0.00    +0.000 HD
ENDBRANCH   5  23
BRANCH   6  25
ATOM     25  O   UNL     1      -0.012  13.407  21.605  0.00  0.00    +0.000 OA
ATOM     26  H   UNL     1      -0.553  13.602  22.390  0.00  0.00    +0.000 HD
ENDBRANCH   6  25
BRANCH   1  27
ATOM     27  O   UNL     1      -2.765  13.162  20.389  0.00  0.00    +0.000 OA
BRANCH  27  30
ATOM     28  C   UNL     1      -3.952  13.588  22.927  0.00  0.00    +0.000 C 
ATOM     29  O   UNL     1      -3.729  12.276  22.368  0.00  0.00    +0.000 OA
ATOM     30  C   UNL     1      -3.768  12.292  20.935  0.00  0.00    +0.000 C 
ATOM     31  C   UNL     1      -5.230  12.643  20.540  0.00  0.00    +0.000 C 
ATOM     32  C   UNL     1      -5.610  14.039  21.065  0.00  0.00    +0.000 C 
ATOM     33  C   UNL     1      -5.346  14.130  22.591  0.00  0.00    +0.000 C 
BRANCH  31  34
ATOM     34  N   UNL     1      -5.443  12.524  19.094  0.00  0.00    +0.000 NA
ATOM     35  C   UNL     1      -6.497  11.927  18.670  0.00  0.00    +0.000 C 
ATOM     36  N   UNL     1      -7.529  11.401  19.358  0.00  0.00    +0.000 N 
ATOM     37  N   UNL     1      -6.648  11.720  17.344  0.00  0.00    +0.000 N 
ATOM     38  H   UNL     1      -7.735  11.760  20.282  0.00  0.00    +0.000 HD
ATOM     39  H   UNL     1      -8.345  11.118  18.837  0.00  0.00    +0.000 HD
ATOM     40  H   UNL     1      -5.923  12.214  16.830  0.00  0.00    +0.000 HD
ATOM     41  H   UNL     1      -7.561  11.925  16.970  0.00  0.00    +0.000 HD
ENDBRANCH  31  34
BRANCH  32  42
ATOM     42  O   UNL     1      -6.998  14.319  20.815  0.00  0.00    +0.000 OA
ATOM     43  H   UNL     1      -7.521  13.546  21.130  0.00  0.00    +0.000 HD
ENDBRANCH  32  42
BRANCH  33  44
ATOM     44  O   UNL     1      -5.465  15.487  23.043  0.00  0.00    +0.000 OA
ATOM     45  H   UNL     1      -6.170  15.514  23.715  0.00  0.00    +0.000 HD
ENDBRANCH  33  44
BRANCH  28  46
ATOM     46  C   UNL     1      -3.633  13.493  24.434  0.00  0.00    +0.000 C 
BRANCH  46  47
ATOM     47  N   UNL     1      -3.700  14.786  25.123  0.00  0.00    +0.000 NA
ATOM     48  H   UNL     1      -4.654  14.939  25.443  0.00  0.00    +0.000 HD
ATOM     49  H   UNL     1      -3.499  15.516  24.437  0.00  0.00    +0.000 HD
ENDBRANCH  46  47
ENDBRANCH  28  46
ENDBRANCH  27  30
ENDBRANCH   1  27
TORSDOF 11
ENDMDL
MODEL 8
REMARK VINA RESULT:      -5.9      0.936      1.118
REMARK  Name = 
REMARK  11 active torsions:
REMARK  status: ('A' for Active; 'I' for Inactive)
REMARK    1  A    between atoms: N_1  and  C_2
REMARK    2  A    between atoms: C_2  and  C_3
REMARK    3  A    between atoms: C_5  and  O_6
REMARK    4  A    between atoms: O_6  and  C_7
REMARK    5  A    between atoms: C_8  and  N_9
REMARK    6  A    between atoms: C_14  and  N_15
REMARK    7  A    between atoms: C_19  and  O_20
REMARK    8  A    between atoms: C_21  and  O_22
REMARK    9  A    between atoms: C_23  and  N_24
REMARK   10  A    between atoms: C_28  and  O_29
REMARK   11  A    between atoms: C_30  and  O_31
REMARK                            x       y       z     vdW  Elec       q    Type
REMARK                         _______ _______ _______ _____ _____    ______ ____
ROOT
ATOM      1  C   UNL     1      -0.275  13.299  22.054  0.00  0.00    +0.000 C 
ATOM      2  C   UNL     1      -0.793  11.837  22.127  0.00  0.00    +0.000 C 
ATOM      3  C   UNL     1      -2.125  11.627  22.854  0.00  0.00    +0.000 C 
ATOM      4  C   UNL     1      -3.188  12.630  22.392  0.00  0.00    +0.000 C 
ATOM      5  C   UNL     1      -2.701  14.038  22.757  0.00  0.00    +0.000 C 
ATOM      6  C   UNL     1      -1.420  14.340  21.973  0.00  0.00    +0.000 C 
ENDROOT
BRANCH   2   7
ATOM      7  N   UNL     1       0.214  10.894  22.621  0.00  0.00    +0.000 NA
ATOM      8  C   UNL     1       0.772   9.976  21.939  0.00  0.00    +0.000 C 
ATOM      9  N   UNL     1       0.644   9.601  20.649  0.00  0.00    +0.000 N 
ATOM     10  N   UNL     1       1.642   9.159  22.573  0.00  0.00    +0.000 N 
ATOM     11  H   UNL     1       0.227  10.228  19.979  0.00  0.00    +0.000 HD
ATOM     12  H   UNL     1       1.362   8.993  20.271  0.00  0.00    +0.000 HD
ATOM     13  H   UNL     1       1.595   9.360  23.569  0.00  0.00    +0.000 HD
ATOM     14  H   UNL     1       1.434   8.182  22.419  0.00  0.00    +0.000 HD
ENDBRANCH   2   7
BRANCH   4  15
ATOM     15  N   UNL     1      -4.435  12.287  23.083  0.00  0.00    +0.000 NA
ATOM     16  C   UNL     1      -4.635  12.667  24.292  0.00  0.00    +0.000 C 
ATOM     17  N   UNL     1      -3.855  13.349  25.155  0.00  0.00    +0.000 N 
ATOM     18  N   UNL     1      -5.812  12.379  24.882  0.00  0.00    +0.000 N 
ATOM     19  H   UNL     1      -3.003  13.734  24.777  0.00  0.00    +0.000 HD
ATOM     20  H   UNL     1      -4.367  14.023  25.712  0.00  0.00    +0.000 HD
ATOM     21  H   UNL     1      -6.320  11.704  24.321  0.00  0.00    +0.000 HD
ATOM     22  H   UNL     1      -5.694  12.040  25.831  0.00  0.00    +0.000 HD
ENDBRANCH   4  15
BRANCH   5  23
ATOM     23  O   UNL     1      -3.693  15.033  22.425  0.00  0.00    +0.000 OA
ATOM     24  H   UNL     1      -4.063  15.397  23.247  0.00  0.00    +0.000 HD
ENDBRANCH   5  23
BRANCH   6  25
ATOM     25  O   UNL     1      -0.948  15.655  22.308  0.00  0.00    +0.000 OA
ATOM     26  H   UNL     1      -1.385  16.296  21.722  0.00  0.00    +0.000 HD
ENDBRANCH   6  25
BRANCH   1  27
ATOM     27  O   UNL     1       0.745  13.508  21.025  0.00  0.00    +0.000 OA
BRANCH  27  30
ATOM     28  C   UNL     1       2.294  15.252  19.415  0.00  0.00    +0.000 C 
ATOM     29  O   UNL     1       0.850  15.246  19.412  0.00  0.00    +0.000 OA
ATOM     30  C   UNL     1       0.321  13.950  19.727  0.00  0.00    +0.000 C 
ATOM     31  C   UNL     1       0.720  13.016  18.550  0.00  0.00    +0.000 C 
ATOM     32  C   UNL     1       2.252  12.915  18.437  0.00  0.00    +0.000 C 
ATOM     33  C   UNL     1       2.877  14.331  18.337  0.00  0.00    +0.000 C 
BRANCH  31  34
ATOM     34  N   UNL     1       0.091  11.697  18.671  0.00  0.00    +0.000 NA
ATOM     35  C   UNL     1      -1.011  11.477  18.049  0.00  0.00    +0.000 C 
ATOM     36  N   UNL     1      -1.709  12.274  17.217  0.00  0.00    +0.000 N 
ATOM     37  N   UNL     1      -1.651  10.303  18.240  0.00  0.00    +0.000 N 
ATOM     38  H   UNL     1      -1.221  13.008  16.718  0.00  0.00    +0.000 HD
ATOM     39  H   UNL     1      -2.468  11.861  16.698  0.00  0.00    +0.000 HD
ATOM     40  H   UNL     1      -1.065   9.671  18.779  0.00  0.00    +0.000 HD
ATOM     41  H   UNL     1      -1.999   9.854  17.407  0.00  0.00    +0.000 HD
ENDBRANCH  31  34
BRANCH  32  42
ATOM     42  O   UNL     1       2.629  12.156  17.275  0.00  0.00    +0.000 OA
ATOM     43  H   UNL     1       3.378  12.626  16.841  0.00  0.00    +0.000 HD
ENDBRANCH  32  42
BRANCH  33  44
ATOM     44  O   UNL     1       4.305  14.261  18.475  0.00  0.00    +0.000 OA
ATOM     45  H   UNL     1       4.507  13.517  19.070  0.00  0.00    +0.000 HD
ENDBRANCH  33  44
BRANCH  28  46
ATOM     46  C   UNL     1       2.735  16.728  19.322  0.00  0.00    +0.000 C 
BRANCH  46  47
ATOM     47  N   UNL     1       3.360  17.067  18.040  0.00  0.00    +0.000 NA
ATOM     48  H   UNL     1       3.045  17.991  17.754  0.00  0.00    +0.000 HD
ATOM     49  H   UNL     1       3.013  16.409  17.340  0.00  0.00    +0.000 HD
ENDBRANCH  46  47
ENDBRANCH  28  46
ENDBRANCH  27  30
ENDBRANCH   1  27
TORSDOF 11
ENDMDL
MODEL 9
REMARK VINA RESULT:      -5.8      2.602      7.324
REMARK  Name = 
REMARK  11 active torsions:
REMARK  status: ('A' for Active; 'I' for Inactive)
REMARK    1  A    between atoms: N_1  and  C_2
REMARK    2  A    between atoms: C_2  and  C_3
REMARK    3  A    between atoms: C_5  and  O_6
REMARK    4  A    between atoms: O_6  and  C_7
REMARK    5  A    between atoms: C_8  and  N_9
REMARK    6  A    between atoms: C_14  and  N_15
REMARK    7  A    between atoms: C_19  and  O_20
REMARK    8  A    between atoms: C_21  and  O_22
REMARK    9  A    between atoms: C_23  and  N_24
REMARK   10  A    between atoms: C_28  and  O_29
REMARK   11  A    between atoms: C_30  and  O_31
REMARK                            x       y       z     vdW  Elec       q    Type
REMARK                         _______ _______ _______ _____ _____    ______ ____
ROOT
ATOM      1  C   UNL     1      -1.857  11.956  20.859  0.00  0.00    +0.000 C 
ATOM      2  C   UNL     1      -0.481  12.157  21.551  0.00  0.00    +0.000 C 
ATOM      3  C   UNL     1       0.745  12.144  20.632  0.00  0.00    +0.000 C 
ATOM      4  C   UNL     1       0.543  13.035  19.402  0.00  0.00    +0.000 C 
ATOM      5  C   UNL     1      -0.626  12.463  18.589  0.00  0.00    +0.000 C 
ATOM      6  C   UNL     1      -1.905  12.549  19.429  0.00  0.00    +0.000 C 
ENDROOT
BRANCH   2   7
ATOM      7  N   UNL     1      -0.275  11.262  22.692  0.00  0.00    +0.000 NA
ATOM      8  C   UNL     1      -0.214   9.991  22.639  0.00  0.00    +0.000 C 
ATOM      9  N   UNL     1      -0.301   9.122  21.611  0.00  0.00    +0.000 N 
ATOM     10  N   UNL     1      -0.074   9.318  23.802  0.00  0.00    +0.000 N 
ATOM     11  H   UNL     1      -0.172   9.444  20.664  0.00  0.00    +0.000 HD
ATOM     12  H   UNL     1       0.009   8.172  21.781  0.00  0.00    +0.000 HD
ATOM     13  H   UNL     1      -0.175   9.982  24.566  0.00  0.00    +0.000 HD
ATOM     14  H   UNL     1      -0.761   8.583  23.906  0.00  0.00    +0.000 HD
ENDBRANCH   2   7
BRANCH   4  15
ATOM     15  N   UNL     1       1.797  13.016  18.643  0.00  0.00    +0.000 NA
ATOM     16  C   UNL     1       2.441  14.104  18.423  0.00  0.00    +0.000 C 
ATOM     17  N   UNL     1       2.166  15.385  18.741  0.00  0.00    +0.000 N 
ATOM     18  N   UNL     1       3.616  14.047  17.766  0.00  0.00    +0.000 N 
ATOM     19  H   UNL     1       1.377  15.533  19.352  0.00  0.00    +0.000 HD
ATOM     20  H   UNL     1       2.982  15.909  19.034  0.00  0.00    +0.000 HD
ATOM     21  H   UNL     1       3.733  13.128  17.352  0.00  0.00    +0.000 HD
ATOM     22  H   UNL     1       3.698  14.771  17.059  0.00  0.00    +0.000 HD
ENDBRANCH   4  15
BRANCH   5  23
ATOM     23  O   UNL     1      -0.822  13.207  17.367  0.00  0.00    +0.000 OA
ATOM     24  H   UNL     1       0.045  13.418  16.982  0.00  0.00    +0.000 HD
ENDBRANCH   5  23
BRANCH   6  25
ATOM     25  O   UNL     1      -3.008  12.011  18.683  0.00  0.00    +0.000 OA
ATOM     26  H   UNL     1      -2.917  11.044  18.652  0.00  0.00    +0.000 HD
ENDBRANCH   6  25
BRANCH   1  27
ATOM     27  O   UNL     1      -2.992  12.382  21.680  0.00  0.00    +0.000 OA
BRANCH  27  30
ATOM     28  C   UNL     1      -5.811  12.319  21.394  0.00  0.00    +0.000 C 
ATOM     29  O   UNL     1      -4.949  13.119  20.558  0.00  0.00    +0.000 OA
ATOM     30  C   UNL     1      -3.756  13.517  21.247  0.00  0.00    +0.000 C 
ATOM     31  C   UNL     1      -4.205  14.480  22.382  0.00  0.00    +0.000 C 
ATOM     32  C   UNL     1      -5.133  13.752  23.371  0.00  0.00    +0.000 C 
ATOM     33  C   UNL     1      -6.318  13.098  22.614  0.00  0.00    +0.000 C 
BRANCH  31  34
ATOM     34  N   UNL     1      -3.056  15.093  23.057  0.00  0.00    +0.000 NA
ATOM     35  C   UNL     1      -2.705  16.282  22.725  0.00  0.00    +0.000 C 
ATOM     36  N   UNL     1      -3.267  17.138  21.849  0.00  0.00    +0.000 N 
ATOM     37  N   UNL     1      -1.587  16.813  23.264  0.00  0.00    +0.000 N 
ATOM     38  H   UNL     1      -4.252  17.041  21.634  0.00  0.00    +0.000 HD
ATOM     39  H   UNL     1      -2.939  18.091  21.847  0.00  0.00    +0.000 HD
ATOM     40  H   UNL     1      -1.234  16.207  24.001  0.00  0.00    +0.000 HD
ATOM     41  H   UNL     1      -1.664  17.765  23.585  0.00  0.00    +0.000 HD
ENDBRANCH  31  34
BRANCH  32  42
ATOM     42  O   UNL     1      -5.653  14.666  24.351  0.00  0.00    +0.000 OA
ATOM     43  H   UNL     1      -6.554  14.938  24.058  0.00  0.00    +0.000 HD
ENDBRANCH  32  42
BRANCH  33  44
ATOM     44  O   UNL     1      -7.049  12.220  23.485  0.00  0.00    +0.000 OA
ATOM     45  H   UNL     1      -7.315  12.736  24.267  0.00  0.00    +0.000 HD
ENDBRANCH  33  44
BRANCH  28  46
ATOM     46  C   UNL     1      -6.914  11.745  20.480  0.00  0.00    +0.000 C 
BRANCH  46  47
ATOM     47  N   UNL     1      -7.471  10.479  20.969  0.00  0.00    +0.000 NA
ATOM     48  H   UNL     1      -8.442  10.627  21.234  0.00  0.00    +0.000 HD
ATOM     49  H   UNL     1      -6.968  10.225  21.821  0.00  0.00    +0.000 HD
ENDBRANCH  46  47
ENDBRANCH  28  46
ENDBRANCH  27  30
ENDBRANCH   1  27
TORSDOF 11
ENDMDL
