MODEL 1
REMARK VINA RESULT:      -7.6      0.000      0.000
REMARK  Name = 
REMARK  6 active torsions:
REMARK  status: ('A' for Active; 'I' for Inactive)
REMARK    1  A    between atoms: C_1  and  C_2
REMARK    2  A    between atoms: N_4  and  C_5
REMARK    3  A    between atoms: C_6  and  N_7
REMARK    4  A    between atoms: C_9  and  C_10
REMARK    5  A    between atoms: C_10  and  O_12
REMARK    6  A    between atoms: C_14  and  N_15
REMARK                            x       y       z     vdW  Elec       q    Type
REMARK                         _______ _______ _______ _____ _____    ______ ____
ROOT
ATOM      1  C   UNL     1       3.214   4.250  18.837  0.00  0.00    +0.000 C 
ATOM      2  C   UNL     1       4.309   3.346  18.160  0.00  0.00    +0.000 C 
ATOM      3  C   UNL     1       4.637   3.899  16.756  0.00  0.00    +0.000 C 
ATOM      4  C   UNL     1       4.978   5.351  16.757  0.00  0.00    +0.000 C 
ATOM      5  C   UNL     1       4.639   6.151  17.775  0.00  0.00    +0.000 C 
ATOM      6  C   UNL     1       3.805   5.725  18.966  0.00  0.00    +0.000 C 
ENDROOT
BRANCH   6   7
ATOM      7  N   UNL     1       2.768   6.748  19.332  0.00  0.00    +0.000 NA
ATOM      8  C   UNL     1       2.000   6.320  20.527  0.00  0.00    +0.000 C 
ATOM      9  C   UNL     1       0.939   7.289  21.071  0.00  0.00    +0.000 C 
ATOM     10  C   UNL     1       1.469   8.694  21.368  0.00  0.00    +0.000 C 
ATOM     11  C   UNL     1       0.669   9.801  20.676  0.00  0.00    +0.000 C 
ATOM     12  C   UNL     1       0.602   9.718  19.147  0.00  0.00    +0.000 C 
ATOM     13  C   UNL     1       1.969   9.635  18.468  0.00  0.00    +0.000 C 
ATOM     14  C   UNL     1       2.139   8.425  17.549  0.00  0.00    +0.000 C 
ATOM     15  C   UNL     1       1.884   7.047  18.177  0.00  0.00    +0.000 C 
ENDBRANCH   6   7
BRANCH   1  19
ATOM     16  C   UNL     1       1.372   2.616  21.798  0.00  0.00    +0.000 C 
ATOM     17  C   UNL     1       1.768   2.822  20.356  0.00  0.00    +0.000 C 
ATOM     18  O   UNL     1       1.292   2.134  19.461  0.00  0.00    +0.000 OA
ATOM     19  N   UNL     1       2.719   3.803  20.166  0.00  0.00    +0.000 N 
ATOM     20  H   UNL     1       2.698   4.548  20.852  0.00  0.00    +0.000 HD
ENDBRANCH   1  19
BRANCH   2  21
ATOM     21  N   UNL     1       3.983   1.935  17.947  0.00  0.00    +0.000 NA
ATOM     22  H   UNL     1       4.683   1.517  17.326  0.00  0.00    +0.000 HD
ATOM     23  H   UNL     1       3.157   1.873  17.343  0.00  0.00    +0.000 HD
ENDBRANCH   2  21
BRANCH   4  24
ATOM     24  C   UNL     1       5.760   5.957  15.649  0.00  0.00    +0.000 C 
ATOM     25  O   UNL     1       6.853   5.552  15.288  0.00  0.00    +0.000 OA
BRANCH  24  26
ATOM     26  O   UNL     1       5.168   7.028  15.077  0.00  0.00    +0.000 OA
ATOM     27  H   UNL     1       4.217   7.138  15.250  0.00  0.00    +0.000 HD
ENDBRANCH  24  26
ENDBRANCH   4  24
TORSDOF 5
ENDMDL
MODEL 2
REMARK VINA RESULT:      -7.4      1.934      4.618
REMARK  Name = 
REMARK  6 active torsions:
REMARK  status: ('A' for Active; 'I' for Inactive)
REMARK    1  A    between atoms: C_1  and  C_2
REMARK    2  A    between atoms: N_4  and  C_5
REMARK    3  A    between atoms: C_6  and  N_7
REMARK    4  A    between atoms: C_9  and  C_10
REMARK    5  A    between atoms: C_10  and  O_12
REMARK    6  A    between atoms: C_14  and  N_15
REMARK                            x       y       z     vdW  Elec       q    Type
REMARK                         _______ _______ _______ _____ _____    ______ ____
ROOT
ATOM      1  C   UNL     1       4.082   5.504  18.491  0.00  0.00    +0.000 C 
ATOM      2  C   UNL     1       4.312   3.971  18.224  0.00  0.00    +0.000 C 
ATOM      3  C   UNL     1       3.320   3.146  19.071  0.00  0.00    +0.000 C 
ATOM      4  C   UNL     1       1.900   3.575  18.904  0.00  0.00    +0.000 C 
ATOM      5  C   UNL     1       1.584   4.777  18.408  0.00  0.00    +0.000 C 
ATOM      6  C   UNL     1       2.589   5.859  18.063  0.00  0.00    +0.000 C 
ENDROOT
BRANCH   6   7
ATOM      7  N   UNL     1       2.146   7.216  18.527  0.00  0.00    +0.000 NA
ATOM      8  C   UNL     1       2.553   8.266  17.559  0.00  0.00    +0.000 C 
ATOM      9  C   UNL     1       2.119   9.709  17.856  0.00  0.00    +0.000 C 
ATOM     10  C   UNL     1       0.614   9.877  18.082  0.00  0.00    +0.000 C 
ATOM     11  C   UNL     1       0.273  10.572  19.402  0.00  0.00    +0.000 C 
ATOM     12  C   UNL     1       0.789   9.884  20.670  0.00  0.00    +0.000 C 
ATOM     13  C   UNL     1       0.375   8.417  20.795  0.00  0.00    +0.000 C 
ATOM     14  C   UNL     1       1.545   7.449  20.971  0.00  0.00    +0.000 C 
ATOM     15  C   UNL     1       2.642   7.498  19.898  0.00  0.00    +0.000 C 
ENDBRANCH   6   7
BRANCH   1  19
ATOM     16  C   UNL     1       7.065   7.668  17.373  0.00  0.00    +0.000 C 
ATOM     17  C   UNL     1       6.350   6.588  18.150  0.00  0.00    +0.000 C 
ATOM     18  O   UNL     1       6.941   5.899  18.973  0.00  0.00    +0.000 OA
ATOM     19  N   UNL     1       5.020   6.438  17.815  0.00  0.00    +0.000 N 
ATOM     20  H   UNL     1       4.570   7.287  17.492  0.00  0.00    +0.000 HD
ENDBRANCH   1  19
BRANCH   2  21
ATOM     21  N   UNL     1       5.631   3.421  18.540  0.00  0.00    +0.000 NA
ATOM     22  H   UNL     1       6.294   3.687  17.803  0.00  0.00    +0.000 HD
ATOM     23  H   UNL     1       5.611   2.406  18.394  0.00  0.00    +0.000 HD
ENDBRANCH   2  21
BRANCH   4  24
ATOM     24  C   UNL     1       0.777   2.659  19.230  0.00  0.00    +0.000 C 
ATOM     25  O   UNL     1       0.242   1.923  18.416  0.00  0.00    +0.000 OA
BRANCH  24  26
ATOM     26  O   UNL     1       0.369   2.722  20.516  0.00  0.00    +0.000 OA
ATOM     27  H   UNL     1       0.112   1.879  20.928  0.00  0.00    +0.000 HD
ENDBRANCH  24  26
ENDBRANCH   4  24
TORSDOF 5
ENDMDL
MODEL 3
REMARK VINA RESULT:      -7.4      1.006      1.164
REMARK  Name = 
REMARK  6 active torsions:
REMARK  status: ('A' for Active; 'I' for Inactive)
REMARK    1  A    between atoms: C_1  and  C_2
REMARK    2  A    between atoms: N_4  and  C_5
REMARK    3  A    between atoms: C_6  and  N_7
REMARK    4  A    between atoms: C_9  and  C_10
REMARK    5  A    between atoms: C_10  and  O_12
REMARK    6  A    between atoms: C_14  and  N_15
REMARK                            x       y       z     vdW  Elec       q    Type
REMARK                         _______ _______ _______ _____ _____    ______ ____
ROOT
ATOM      1  C   UNL     1       3.142   4.230  18.811  0.00  0.00    +0.000 C 
ATOM      2  C   UNL     1       4.310   3.264  18.389  0.00  0.00    +0.000 C 
ATOM      3  C   UNL     1       5.118   3.906  17.240  0.00  0.00    +0.000 C 
ATOM      4  C   UNL     1       5.571   5.296  17.540  0.00  0.00    +0.000 C 
ATOM      5  C   UNL     1       4.997   6.029  18.501  0.00  0.00    +0.000 C 
ATOM      6  C   UNL     1       3.790   5.597  19.311  0.00  0.00    +0.000 C 
ENDROOT
BRANCH   6   7
ATOM      7  N   UNL     1       2.788   6.703  19.473  0.00  0.00    +0.000 NA
ATOM      8  C   UNL     1       1.919   6.462  20.652  0.00  0.00    +0.000 C 
ATOM      9  C   UNL     1       0.878   7.537  20.996  0.00  0.00    +0.000 C 
ATOM     10  C   UNL     1       1.460   8.943  21.160  0.00  0.00    +0.000 C 
ATOM     11  C   UNL     1       0.770   9.990  20.283  0.00  0.00    +0.000 C 
ATOM     12  C   UNL     1       0.801   9.722  18.774  0.00  0.00    +0.000 C 
ATOM     13  C   UNL     1       2.204   9.494  18.211  0.00  0.00    +0.000 C 
ATOM     14  C   UNL     1       2.371   8.173  17.460  0.00  0.00    +0.000 C 
ATOM     15  C   UNL     1       2.001   6.897  18.229  0.00  0.00    +0.000 C 
ENDBRANCH   6   7
BRANCH   1  19
ATOM     16  C   UNL     1       1.426   2.440  21.758  0.00  0.00    +0.000 C 
ATOM     17  C   UNL     1       2.576   2.888  20.888  0.00  0.00    +0.000 C 
ATOM     18  O   UNL     1       3.728   2.551  21.136  0.00  0.00    +0.000 OA
ATOM     19  N   UNL     1       2.210   3.721  19.852  0.00  0.00    +0.000 N 
ATOM     20  H   UNL     1       1.271   3.569  19.502  0.00  0.00    +0.000 HD
ENDBRANCH   1  19
BRANCH   2  21
ATOM     21  N   UNL     1       3.944   1.934  17.900  0.00  0.00    +0.000 NA
ATOM     22  H   UNL     1       4.577   1.668  17.138  0.00  0.00    +0.000 HD
ATOM     23  H   UNL     1       3.065   2.003  17.377  0.00  0.00    +0.000 HD
ENDBRANCH   2  21
BRANCH   4  24
ATOM     24  C   UNL     1       6.717   5.903  16.817  0.00  0.00    +0.000 C 
ATOM     25  O   UNL     1       6.934   7.103  16.772  0.00  0.00    +0.000 OA
BRANCH  24  26
ATOM     26  O   UNL     1       7.505   5.009  16.181  0.00  0.00    +0.000 OA
ATOM     27  H   UNL     1       7.286   4.070  16.313  0.00  0.00    +0.000 HD
ENDBRANCH  24  26
ENDBRANCH   4  24
TORSDOF 5
ENDMDL
MODEL 4
REMARK VINA RESULT:      -7.3      2.791      6.431
REMARK  Name = 
REMARK  6 active torsions:
REMARK  status: ('A' for Active; 'I' for Inactive)
REMARK    1  A    between atoms: C_1  and  C_2
REMARK    2  A    between atoms: N_4  and  C_5
REMARK    3  A    between atoms: C_6  and  N_7
REMARK    4  A    between atoms: C_9  and  C_10
REMARK    5  A    between atoms: C_10  and  O_12
REMARK    6  A    between atoms: C_14  and  N_15
REMARK                            x       y       z     vdW  Elec       q    Type
REMARK                         _______ _______ _______ _____ _____    ______ ____
ROOT
ATOM      1  C   UNL     1       2.243   7.457  18.158  0.00  0.00    +0.000 C 
ATOM      2  C   UNL     1       2.204   9.006  18.425  0.00  0.00    +0.000 C 
ATOM      3  C   UNL     1       1.174   9.312  19.534  0.00  0.00    +0.000 C 
ATOM      4  C   UNL     1       1.375   8.497  20.768  0.00  0.00    +0.000 C 
ATOM      5  C   UNL     1       2.090   7.367  20.754  0.00  0.00    +0.000 C 
ATOM      6  C   UNL     1       2.681   6.735  19.509  0.00  0.00    +0.000 C 
ENDROOT
BRANCH   6   7
ATOM      7  N   UNL     1       2.484   5.247  19.476  0.00  0.00    +0.000 NA
ATOM      8  C   UNL     1       1.444   4.829  20.451  0.00  0.00    +0.000 C 
ATOM      9  C   UNL     1       1.076   3.339  20.497  0.00  0.00    +0.000 C 
ATOM     10  C   UNL     1       0.671   2.752  19.143  0.00  0.00    +0.000 C 
ATOM     11  C   UNL     1       1.473   1.506  18.759  0.00  0.00    +0.000 C 
ATOM     12  C   UNL     1       2.992   1.692  18.671  0.00  0.00    +0.000 C 
ATOM     13  C   UNL     1       3.428   2.830  17.749  0.00  0.00    +0.000 C 
ATOM     14  C   UNL     1       4.322   3.873  18.419  0.00  0.00    +0.000 C 
ATOM     15  C   UNL     1       3.768   4.534  19.689  0.00  0.00    +0.000 C 
ENDBRANCH   6   7
BRANCH   1  19
ATOM     16  C   UNL     1       5.163   6.625  15.788  0.00  0.00    +0.000 C 
ATOM     17  C   UNL     1       4.502   7.067  17.073  0.00  0.00    +0.000 C 
ATOM     18  O   UNL     1       5.167   7.412  18.043  0.00  0.00    +0.000 OA
ATOM     19  N   UNL     1       3.125   7.002  17.051  0.00  0.00    +0.000 N 
ATOM     20  H   UNL     1       2.712   7.135  16.135  0.00  0.00    +0.000 HD
ENDBRANCH   1  19
BRANCH   2  21
ATOM     21  N   UNL     1       1.830   9.876  17.309  0.00  0.00    +0.000 NA
ATOM     22  H   UNL     1       0.845  10.146  17.406  0.00  0.00    +0.000 HD
ATOM     23  H   UNL     1       1.770   9.312  16.455  0.00  0.00    +0.000 HD
ENDBRANCH   2  21
BRANCH   4  24
ATOM     24  C   UNL     1       0.832   8.940  22.078  0.00  0.00    +0.000 C 
ATOM     25  O   UNL     1      -0.358   8.966  22.347  0.00  0.00    +0.000 OA
BRANCH  24  26
ATOM     26  O   UNL     1       1.775   9.343  22.958  0.00  0.00    +0.000 OA
ATOM     27  H   UNL     1       2.226   8.641  23.458  0.00  0.00    +0.000 HD
ENDBRANCH  24  26
ENDBRANCH   4  24
TORSDOF 5
ENDMDL
MODEL 5
REMARK VINA RESULT:      -7.2      0.984      1.134
REMARK  Name = 
REMARK  6 active torsions:
REMARK  status: ('A' for Active; 'I' for Inactive)
REMARK    1  A    between atoms: C_1  and  C_2
REMARK    2  A    between atoms: N_4  and  C_5
REMARK    3  A    between atoms: C_6  and  N_7
REMARK    4  A    between atoms: C_9  and  C_10
REMARK    5  A    between atoms: C_10  and  O_12
REMARK    6  A    between atoms: C_14  and  N_15
REMARK                            x       y       z     vdW  Elec       q    Type
REMARK                         _______ _______ _______ _____ _____    ______ ____
ROOT
ATOM      1  C   UNL     1       3.424   4.502  18.580  0.00  0.00    +0.000 C 
ATOM      2  C   UNL     1       4.660   3.645  18.120  0.00  0.00    +0.000 C 
ATOM      3  C   UNL     1       5.443   4.414  17.033  0.00  0.00    +0.000 C 
ATOM      4  C   UNL     1       5.797   5.807  17.433  0.00  0.00    +0.000 C 
ATOM      5  C   UNL     1       5.159   6.435  18.428  0.00  0.00    +0.000 C 
ATOM      6  C   UNL     1       3.971   5.872  19.182  0.00  0.00    +0.000 C 
ENDROOT
BRANCH   6   7
ATOM      7  N   UNL     1       2.895   6.896  19.396  0.00  0.00    +0.000 NA
ATOM      8  C   UNL     1       2.061   6.551  20.575  0.00  0.00    +0.000 C 
ATOM      9  C   UNL     1       0.951   7.536  20.970  0.00  0.00    +0.000 C 
ATOM     10  C   UNL     1       1.433   8.973  21.179  0.00  0.00    +0.000 C 
ATOM     11  C   UNL     1       0.658   9.999  20.348  0.00  0.00    +0.000 C 
ATOM     12  C   UNL     1       0.688   9.787  18.831  0.00  0.00    +0.000 C 
ATOM     13  C   UNL     1       2.096   9.681  18.245  0.00  0.00    +0.000 C 
ATOM     14  C   UNL     1       2.346   8.403  17.443  0.00  0.00    +0.000 C 
ATOM     15  C   UNL     1       2.079   7.077  18.169  0.00  0.00    +0.000 C 
ENDBRANCH   6   7
BRANCH   1  19
ATOM     16  C   UNL     1       0.594   2.642  20.416  0.00  0.00    +0.000 C 
ATOM     17  C   UNL     1       1.412   3.101  19.231  0.00  0.00    +0.000 C 
ATOM     18  O   UNL     1       1.113   2.774  18.089  0.00  0.00    +0.000 OA
ATOM     19  N   UNL     1       2.511   3.864  19.565  0.00  0.00    +0.000 N 
ATOM     20  H   UNL     1       2.405   4.405  20.415  0.00  0.00    +0.000 HD
ENDBRANCH   1  19
BRANCH   2  21
ATOM     21  N   UNL     1       4.392   2.330  17.537  0.00  0.00    +0.000 NA
ATOM     22  H   UNL     1       3.956   1.729  18.245  0.00  0.00    +0.000 HD
ATOM     23  H   UNL     1       5.280   1.833  17.414  0.00  0.00    +0.000 HD
ENDBRANCH   2  21
BRANCH   4  24
ATOM     24  C   UNL     1       6.912   6.536  16.776  0.00  0.00    +0.000 C 
ATOM     25  O   UNL     1       7.266   7.661  17.088  0.00  0.00    +0.000 OA
BRANCH  24  26
ATOM     26  O   UNL     1       7.501   5.852  15.770  0.00  0.00    +0.000 OA
ATOM     27  H   UNL     1       7.606   4.895  15.903  0.00  0.00    +0.000 HD
ENDBRANCH  24  26
ENDBRANCH   4  24
TORSDOF 5
ENDMDL
MODEL 6
REMARK VINA RESULT:      -7.1      3.498      5.826
REMARK  Name = 
REMARK  6 active torsions:
REMARK  status: ('A' for Active; 'I' for Inactive)
REMARK    1  A    between atoms: C_1  and  C_2
REMARK    2  A    between atoms: N_4  and  C_5
REMARK    3  A    between atoms: C_6  and  N_7
REMARK    4  A    between atoms: C_9  and  C_10
REMARK    5  A    between atoms: C_10  and  O_12
REMARK    6  A    between atoms: C_14  and  N_15
REMARK                            x       y       z     vdW  Elec       q    Type
REMARK                         _______ _______ _______ _____ _____    ______ ____
ROOT
ATOM      1  C   UNL     1       6.931   5.101  15.324  0.00  0.00    +0.000 C 
ATOM      2  C   UNL     1       7.467   5.326  13.862  0.00  0.00    +0.000 C 
ATOM      3  C   UNL     1       7.101   4.108  12.986  0.00  0.00    +0.000 C 
ATOM      4  C   UNL     1       5.652   3.753  13.044  0.00  0.00    +0.000 C 
ATOM      5  C   UNL     1       4.865   4.175  14.040  0.00  0.00    +0.000 C 
ATOM      6  C   UNL     1       5.346   4.953  15.249  0.00  0.00    +0.000 C 
ENDROOT
BRANCH   6   7
ATOM      7  N   UNL     1       4.737   4.453  16.527  0.00  0.00    +0.000 NA
ATOM      8  C   UNL     1       4.213   3.074  16.361  0.00  0.00    +0.000 C 
ATOM      9  C   UNL     1       3.613   2.390  17.598  0.00  0.00    +0.000 C 
ATOM     10  C   UNL     1       4.545   2.364  18.812  0.00  0.00    +0.000 C 
ATOM     11  C   UNL     1       3.910   2.950  20.075  0.00  0.00    +0.000 C 
ATOM     12  C   UNL     1       3.438   4.404  19.971  0.00  0.00    +0.000 C 
ATOM     13  C   UNL     1       4.518   5.377  19.497  0.00  0.00    +0.000 C 
ATOM     14  C   UNL     1       4.131   6.189  18.261  0.00  0.00    +0.000 C 
ATOM     15  C   UNL     1       3.697   5.389  17.024  0.00  0.00    +0.000 C 
ENDBRANCH   6   7
BRANCH   1  19
ATOM     16  C   UNL     1       7.856   7.133  18.462  0.00  0.00    +0.000 C 
ATOM     17  C   UNL     1       7.641   5.893  17.627  0.00  0.00    +0.000 C 
ATOM     18  O   UNL     1       7.820   4.774  18.093  0.00  0.00    +0.000 OA
ATOM     19  N   UNL     1       7.278   6.148  16.321  0.00  0.00    +0.000 N 
ATOM     20  H   UNL     1       6.758   7.008  16.189  0.00  0.00    +0.000 HD
ENDBRANCH   1  19
BRANCH   2  21
ATOM     21  N   UNL     1       8.911   5.498  13.691  0.00  0.00    +0.000 NA
ATOM     22  H   UNL     1       9.324   4.605  13.400  0.00  0.00    +0.000 HD
ATOM     23  H   UNL     1       9.345   5.595  14.614  0.00  0.00    +0.000 HD
ENDBRANCH   2  21
BRANCH   4  24
ATOM     24  C   UNL     1       5.013   2.959  11.963  0.00  0.00    +0.000 C 
ATOM     25  O   UNL     1       3.973   3.280  11.410  0.00  0.00    +0.000 OA
BRANCH  24  26
ATOM     26  O   UNL     1       5.670   1.822  11.651  0.00  0.00    +0.000 OA
ATOM     27  H   UNL     1       5.124   1.024  11.543  0.00  0.00    +0.000 HD
ENDBRANCH  24  26
ENDBRANCH   4  24
TORSDOF 5
ENDMDL
MODEL 7
REMARK VINA RESULT:      -7.0      1.880      2.156
REMARK  Name = 
REMARK  6 active torsions:
REMARK  status: ('A' for Active; 'I' for Inactive)
REMARK    1  A    between atoms: C_1  and  C_2
REMARK    2  A    between atoms: N_4  and  C_5
REMARK    3  A    between atoms: C_6  and  N_7
REMARK    4  A    between atoms: C_9  and  C_10
REMARK    5  A    between atoms: C_10  and  O_12
REMARK    6  A    between atoms: C_14  and  N_15
REMARK                            x       y       z     vdW  Elec       q    Type
REMARK                         _______ _______ _______ _____ _____    ______ ____
ROOT
ATOM      1  C   UNL     1       3.746   4.521  17.877  0.00  0.00    +0.000 C 
ATOM      2  C   UNL     1       5.028   3.637  17.653  0.00  0.00    +0.000 C 
ATOM      3  C   UNL     1       6.268   4.549  17.529  0.00  0.00    +0.000 C 
ATOM      4  C   UNL     1       6.401   5.521  18.654  0.00  0.00    +0.000 C 
ATOM      5  C   UNL     1       5.362   5.834  19.437  0.00  0.00    +0.000 C 
ATOM      6  C   UNL     1       3.945   5.341  19.229  0.00  0.00    +0.000 C 
ENDROOT
BRANCH   6   7
ATOM      7  N   UNL     1       2.929   6.431  19.415  0.00  0.00    +0.000 NA
ATOM      8  C   UNL     1       1.999   6.105  20.525  0.00  0.00    +0.000 C 
ATOM      9  C   UNL     1       0.935   7.152  20.888  0.00  0.00    +0.000 C 
ATOM     10  C   UNL     1       1.500   8.543  21.181  0.00  0.00    +0.000 C 
ATOM     11  C   UNL     1       0.852   9.649  20.344  0.00  0.00    +0.000 C 
ATOM     12  C   UNL     1       0.965   9.488  18.825  0.00  0.00    +0.000 C 
ATOM     13  C   UNL     1       2.398   9.302  18.323  0.00  0.00    +0.000 C 
ATOM     14  C   UNL     1       2.612   8.038  17.491  0.00  0.00    +0.000 C 
ATOM     15  C   UNL     1       2.209   6.710  18.147  0.00  0.00    +0.000 C 
ENDBRANCH   6   7
BRANCH   1  19
ATOM     16  C   UNL     1       0.776   2.196  18.654  0.00  0.00    +0.000 C 
ATOM     17  C   UNL     1       2.120   2.849  18.874  0.00  0.00    +0.000 C 
ATOM     18  O   UNL     1       2.815   2.563  19.842  0.00  0.00    +0.000 OA
ATOM     19  N   UNL     1       2.448   3.798  17.929  0.00  0.00    +0.000 N 
ATOM     20  H   UNL     1       2.050   3.632  17.011  0.00  0.00    +0.000 HD
ENDBRANCH   1  19
BRANCH   2  21
ATOM     21  N   UNL     1       5.062   2.786  16.462  0.00  0.00    +0.000 NA
ATOM     22  H   UNL     1       5.334   1.835  16.735  0.00  0.00    +0.000 HD
ATOM     23  H   UNL     1       5.876   3.042  15.894  0.00  0.00    +0.000 HD
ENDBRANCH   2  21
BRANCH   4  24
ATOM     24  C   UNL     1       7.710   6.139  18.983  0.00  0.00    +0.000 C 
ATOM     25  O   UNL     1       8.145   7.141  18.439  0.00  0.00    +0.000 OA
BRANCH  24  26
ATOM     26  O   UNL     1       8.407   5.482  19.935  0.00  0.00    +0.000 OA
ATOM     27  H   UNL     1       8.802   4.633  19.671  0.00  0.00    +0.000 HD
ENDBRANCH  24  26
ENDBRANCH   4  24
TORSDOF 5
ENDMDL
MODEL 8
REMARK VINA RESULT:      -6.9      1.500      4.706
REMARK  Name = 
REMARK  6 active torsions:
REMARK  status: ('A' for Active; 'I' for Inactive)
REMARK    1  A    between atoms: C_1  and  C_2
REMARK    2  A    between atoms: N_4  and  C_5
REMARK    3  A    between atoms: C_6  and  N_7
REMARK    4  A    between atoms: C_9  and  C_10
REMARK    5  A    between atoms: C_10  and  O_12
REMARK    6  A    between atoms: C_14  and  N_15
REMARK                            x       y       z     vdW  Elec       q    Type
REMARK                         _______ _______ _______ _____ _____    ______ ____
ROOT
ATOM      1  C   UNL     1       4.043   5.601  18.767  0.00  0.00    +0.000 C 
ATOM      2  C   UNL     1       4.391   4.069  18.850  0.00  0.00    +0.000 C 
ATOM      3  C   UNL     1       3.767   3.469  20.129  0.00  0.00    +0.000 C 
ATOM      4  C   UNL     1       2.310   3.760  20.268  0.00  0.00    +0.000 C 
ATOM      5  C   UNL     1       1.725   4.755  19.590  0.00  0.00    +0.000 C 
ATOM      6  C   UNL     1       2.458   5.743  18.706  0.00  0.00    +0.000 C 
ENDROOT
BRANCH   6   7
ATOM      7  N   UNL     1       1.981   7.153  18.910  0.00  0.00    +0.000 NA
ATOM      8  C   UNL     1       2.424   8.028  17.796  0.00  0.00    +0.000 C 
ATOM      9  C   UNL     1       1.963   9.493  17.821  0.00  0.00    +0.000 C 
ATOM     10  C   UNL     1       0.448   9.671  17.946  0.00  0.00    +0.000 C 
ATOM     11  C   UNL     1       0.038  10.576  19.110  0.00  0.00    +0.000 C 
ATOM     12  C   UNL     1       0.499  10.123  20.500  0.00  0.00    +0.000 C 
ATOM     13  C   UNL     1       0.094   8.693  20.855  0.00  0.00    +0.000 C 
ATOM     14  C   UNL     1       1.262   7.789  21.248  0.00  0.00    +0.000 C 
ATOM     15  C   UNL     1       2.409   7.673  20.233  0.00  0.00    +0.000 C 
ENDBRANCH   6   7
BRANCH   1  19
ATOM     16  C   UNL     1       5.639   6.753  15.456  0.00  0.00    +0.000 C 
ATOM     17  C   UNL     1       4.950   5.803  16.406  0.00  0.00    +0.000 C 
ATOM     18  O   UNL     1       4.667   4.660  16.066  0.00  0.00    +0.000 OA
ATOM     19  N   UNL     1       4.647   6.352  17.634  0.00  0.00    +0.000 N 
ATOM     20  H   UNL     1       5.281   7.082  17.936  0.00  0.00    +0.000 HD
ENDBRANCH   1  19
BRANCH   2  21
ATOM     21  N   UNL     1       5.806   3.699  18.908  0.00  0.00    +0.000 NA
ATOM     22  H   UNL     1       6.118   3.709  19.885  0.00  0.00    +0.000 HD
ATOM     23  H   UNL     1       6.367   4.475  18.541  0.00  0.00    +0.000 HD
ENDBRANCH   2  21
BRANCH   4  24
ATOM     24  C   UNL     1       1.437   2.918  21.126  0.00  0.00    +0.000 C 
ATOM     25  O   UNL     1       1.721   2.584  22.264  0.00  0.00    +0.000 OA
BRANCH  24  26
ATOM     26  O   UNL     1       0.291   2.524  20.528  0.00  0.00    +0.000 OA
ATOM     27  H   UNL     1       0.317   2.440  19.560  0.00  0.00    +0.000 HD
ENDBRANCH  24  26
ENDBRANCH   4  24
TORSDOF 5
ENDMDL
MODEL 9
REMARK VINA RESULT:      -6.8      7.439     10.833
REMARK  Name = 
REMARK  6 active torsions:
REMARK  status: ('A' for Active; 'I' for Inactive)
REMARK    1  A    between atoms: C_1  and  C_2
REMARK    2  A    between atoms: N_4  and  C_5
REMARK    3  A    between atoms: C_6  and  N_7
REMARK    4  A    between atoms: C_9  and  C_10
REMARK    5  A    between atoms: C_10  and  O_12
REMARK    6  A    between atoms: C_14  and  N_15
REMARK                            x       y       z     vdW  Elec       q    Type
REMARK                         _______ _______ _______ _____ _____    ______ ____
ROOT
ATOM      1  C   UNL     1      -4.723  11.782  19.218  0.00  0.00    +0.000 C 
ATOM      2  C   UNL     1      -6.262  12.107  19.218  0.00  0.00    +0.000 C 
ATOM      3  C   UNL     1      -6.827  11.928  20.645  0.00  0.00    +0.000 C 
ATOM      4  C   UNL     1      -6.058  12.675  21.683  0.00  0.00    +0.000 C 
ATOM      5  C   UNL     1      -4.809  13.101  21.460  0.00  0.00    +0.000 C 
ATOM      6  C   UNL     1      -4.005  12.801  20.210  0.00  0.00    +0.000 C 
ENDROOT
BRANCH   6   7
ATOM      7  N   UNL     1      -2.586  12.423  20.522  0.00  0.00    +0.000 NA
ATOM      8  C   UNL     1      -2.400  12.221  21.981  0.00  0.00    +0.000 C 
ATOM      9  C   UNL     1      -1.014  11.766  22.462  0.00  0.00    +0.000 C 
ATOM     10  C   UNL     1      -0.497  10.501  21.774  0.00  0.00    +0.000 C 
ATOM     11  C   UNL     1       0.890  10.676  21.150  0.00  0.00    +0.000 C 
ATOM     12  C   UNL     1       1.013  11.779  20.094  0.00  0.00    +0.000 C 
ATOM     13  C   UNL     1       0.000  11.666  18.955  0.00  0.00    +0.000 C 
ATOM     14  C   UNL     1      -0.855  12.916  18.749  0.00  0.00    +0.000 C 
ATOM     15  C   UNL     1      -1.635  13.421  19.971  0.00  0.00    +0.000 C 
ENDBRANCH   6   7
BRANCH   1  19
ATOM     16  C   UNL     1      -2.746  11.056  15.994  0.00  0.00    +0.000 C 
ATOM     17  C   UNL     1      -3.451  10.734  17.290  0.00  0.00    +0.000 C 
ATOM     18  O   UNL     1      -3.504   9.586  17.716  0.00  0.00    +0.000 OA
ATOM     19  N   UNL     1      -4.042  11.822  17.897  0.00  0.00    +0.000 N 
ATOM     20  H   UNL     1      -3.581  12.706  17.716  0.00  0.00    +0.000 HD
ENDBRANCH   1  19
BRANCH   2  21
ATOM     21  N   UNL     1      -7.125  11.292  18.362  0.00  0.00    +0.000 NA
ATOM     22  H   UNL     1      -6.979  11.559  17.383  0.00  0.00    +0.000 HD
ATOM     23  H   UNL     1      -8.096  11.599  18.481  0.00  0.00    +0.000 HD
ENDBRANCH   2  21
BRANCH   4  24
ATOM     24  C   UNL     1      -6.671  13.025  22.989  0.00  0.00    +0.000 C 
ATOM     25  O   UNL     1      -7.003  14.156  23.303  0.00  0.00    +0.000 OA
BRANCH  24  26
ATOM     26  O   UNL     1      -6.814  11.977  23.830  0.00  0.00    +0.000 OA
ATOM     27  H   UNL     1      -6.867  12.189  24.778  0.00  0.00    +0.000 HD
ENDBRANCH  24  26
ENDBRANCH   4  24
TORSDOF 5
ENDMDL
