MODEL 1
REMARK VINA RESULT:      -8.2      0.000      0.000
REMARK  Name = 
REMARK  10 active torsions:
REMARK  status: ('A' for Active; 'I' for Inactive)
REMARK    1  A    between atoms: C_1  and  C_2
REMARK    2  A    between atoms: C_2  and  C_3
REMARK    3  A    between atoms: C_8  and  O_9
REMARK    4  A    between atoms: O_9  and  S_10
REMARK    5  A    between atoms: S_10  and  N_11
REMARK    6  A    between atoms: C_20  and  C_21
REMARK    7  A    between atoms: C_25  and  C_26
REMARK    8  A    between atoms: C_26  and  C_27
REMARK    9  A    between atoms: C_27  and  O_28
REMARK   10  A    between atoms: O_28  and  C_29
REMARK                            x       y       z     vdW  Elec       q    Type
REMARK                         _______ _______ _______ _____ _____    ______ ____
ROOT
ATOM      1  C   UNL     1       0.007   9.636  21.381  0.00  0.00    +0.000 A 
ATOM      2  C   UNL     1       0.777   8.476  21.162  0.00  0.00    +0.000 A 
ATOM      3  C   UNL     1       1.491   8.246  19.978  0.00  0.00    +0.000 A 
ATOM      4  C   UNL     1       1.491   9.244  18.998  0.00  0.00    +0.000 A 
ATOM      5  C   UNL     1       0.733  10.407  19.201  0.00  0.00    +0.000 A 
ATOM      6  C   UNL     1      -0.030  10.601  20.365  0.00  0.00    +0.000 A 
ATOM      7  C   UNL     1       2.226   9.089  17.686  0.00  0.00    +0.000 C 
ATOM      8  C   UNL     1       3.254   7.957  17.690  0.00  0.00    +0.000 C 
ATOM      9  C   UNL     1       2.636   6.705  18.321  0.00  0.00    +0.000 C 
ATOM     10  C   UNL     1       2.342   6.995  19.820  0.00  0.00    +0.000 C 
ATOM     11  C   UNL     1       1.790   5.748  20.559  0.00  0.00    +0.000 C 
ATOM     12  C   UNL     1       2.630   4.483  20.335  0.00  0.00    +0.000 C 
ATOM     13  C   UNL     1       2.861   4.218  18.843  0.00  0.00    +0.000 C 
ATOM     14  C   UNL     1       1.514   3.850  18.169  0.00  0.00    +0.000 C 
ATOM     15  C   UNL     1       3.541   5.473  18.243  0.00  0.00    +0.000 C 
ATOM     16  C   UNL     1       4.037   4.999  16.884  0.00  0.00    +0.000 C 
ATOM     17  C   UNL     1       4.410   3.523  17.109  0.00  0.00    +0.000 C 
ATOM     18  C   UNL     1       3.953   3.163  18.543  0.00  0.00    +0.000 C 
ENDROOT
BRANCH   1  20
ATOM     19  C   UNL     1      -1.322  11.016  23.152  0.00  0.00    +0.000 C 
ATOM     20  C   UNL     1      -0.622   9.729  22.754  0.00  0.00    +0.000 C 
ENDBRANCH   1  20
BRANCH   6  21
ATOM     21  O   UNL     1      -0.806  11.723  20.544  0.00  0.00    +0.000 OA
BRANCH  21  22
ATOM     22  S   UNL     1      -2.017  12.092  19.516  0.00  0.00    +0.000 S 
ATOM     23  O   UNL     1      -2.312  10.930  18.703  0.00  0.00    +0.000 OA
ATOM     24  O   UNL     1      -3.046  12.825  20.211  0.00  0.00    +0.000 OA
BRANCH  22  25
ATOM     25  N   UNL     1      -1.323  13.217  18.488  0.00  0.00    +0.000 NA
ATOM     26  H   UNL     1      -1.959  13.499  17.742  0.00  0.00    +0.000 HD
ATOM     27  H   UNL     1      -0.413  12.878  18.174  0.00  0.00    +0.000 HD
ENDBRANCH  22  25
ENDBRANCH  21  22
ENDBRANCH   6  21
BRANCH  18  28
ATOM     28  C   UNL     1       3.539   1.694  18.707  0.00  0.00    +0.000 C 
BRANCH  28  29
ATOM     29  C   UNL     1       4.568   0.852  19.460  0.00  0.00    +0.000 C 
BRANCH  29  30
ATOM     30  O   UNL     1       5.138   1.610  20.524  0.00  0.00    +0.000 OA
ATOM     31  C   UNL     1       5.577   0.764  21.580  0.00  0.00    +0.000 C 
ENDBRANCH  29  30
ENDBRANCH  28  29
ENDBRANCH  18  28
TORSDOF 7
ENDMDL
MODEL 2
REMARK VINA RESULT:      -8.1      4.002      9.136
REMARK  Name = 
REMARK  10 active torsions:
REMARK  status: ('A' for Active; 'I' for Inactive)
REMARK    1  A    between atoms: C_1  and  C_2
REMARK    2  A    between atoms: C_2  and  C_3
REMARK    3  A    between atoms: C_8  and  O_9
REMARK    4  A    between atoms: O_9  and  S_10
REMARK    5  A    between atoms: S_10  and  N_11
REMARK    6  A    between atoms: C_20  and  C_21
REMARK    7  A    between atoms: C_25  and  C_26
REMARK    8  A    between atoms: C_26  and  C_27
REMARK    9  A    between atoms: C_27  and  O_28
REMARK   10  A    between atoms: O_28  and  C_29
REMARK                            x       y       z     vdW  Elec       q    Type
REMARK                         _______ _______ _______ _____ _____    ______ ____
ROOT
ATOM      1  C   UNL     1       3.949   5.625  17.449  0.00  0.00    +0.000 A 
ATOM      2  C   UNL     1       3.484   6.923  17.741  0.00  0.00    +0.000 A 
ATOM      3  C   UNL     1       2.650   7.209  18.831  0.00  0.00    +0.000 A 
ATOM      4  C   UNL     1       2.319   6.167  19.704  0.00  0.00    +0.000 A 
ATOM      5  C   UNL     1       2.776   4.870  19.431  0.00  0.00    +0.000 A 
ATOM      6  C   UNL     1       3.561   4.582  18.300  0.00  0.00    +0.000 A 
ATOM      7  C   UNL     1       1.423   6.374  20.904  0.00  0.00    +0.000 C 
ATOM      8  C   UNL     1       1.241   7.842  21.288  0.00  0.00    +0.000 C 
ATOM      9  C   UNL     1       0.959   8.670  20.030  0.00  0.00    +0.000 C 
ATOM     10  C   UNL     1       2.219   8.639  19.120  0.00  0.00    +0.000 C 
ATOM     11  C   UNL     1       2.051   9.524  17.857  0.00  0.00    +0.000 C 
ATOM     12  C   UNL     1       1.556  10.944  18.168  0.00  0.00    +0.000 C 
ATOM     13  C   UNL     1       0.292  10.922  19.034  0.00  0.00    +0.000 C 
ATOM     14  C   UNL     1      -0.884  10.329  18.217  0.00  0.00    +0.000 C 
ATOM     15  C   UNL     1       0.621  10.133  20.325  0.00  0.00    +0.000 C 
ATOM     16  C   UNL     1      -0.545  10.455  21.251  0.00  0.00    +0.000 C 
ATOM     17  C   UNL     1      -0.929  11.901  20.890  0.00  0.00    +0.000 C 
ATOM     18  C   UNL     1      -0.081  12.290  19.655  0.00  0.00    +0.000 C 
ENDROOT
BRANCH   1  20
ATOM     19  C   UNL     1       6.381   5.775  16.518  0.00  0.00    +0.000 C 
ATOM     20  C   UNL     1       4.901   5.543  16.276  0.00  0.00    +0.000 C 
ENDBRANCH   1  20
BRANCH   6  21
ATOM     21  O   UNL     1       3.973   3.302  18.012  0.00  0.00    +0.000 OA
BRANCH  21  22
ATOM     22  S   UNL     1       3.760   2.081  19.072  0.00  0.00    +0.000 S 
ATOM     23  O   UNL     1       4.738   2.205  20.133  0.00  0.00    +0.000 OA
ATOM     24  O   UNL     1       2.355   1.901  19.339  0.00  0.00    +0.000 OA
BRANCH  22  25
ATOM     25  N   UNL     1       4.195   0.724  18.192  0.00  0.00    +0.000 NA
ATOM     26  H   UNL     1       4.897   0.936  17.482  0.00  0.00    +0.000 HD
ATOM     27  H   UNL     1       3.357   0.257  17.844  0.00  0.00    +0.000 HD
ENDBRANCH  22  25
ENDBRANCH  21  22
ENDBRANCH   6  21
BRANCH  18  28
ATOM     28  C   UNL     1      -0.777  13.290  18.721  0.00  0.00    +0.000 C 
BRANCH  28  29
ATOM     29  C   UNL     1      -0.052  14.631  18.616  0.00  0.00    +0.000 C 
BRANCH  29  30
ATOM     30  O   UNL     1       1.204  14.563  19.287  0.00  0.00    +0.000 OA
ATOM     31  C   UNL     1       1.860  15.825  19.278  0.00  0.00    +0.000 C 
ENDBRANCH  29  30
ENDBRANCH  28  29
ENDBRANCH  18  28
TORSDOF 7
ENDMDL
MODEL 3
REMARK VINA RESULT:      -8.1      3.647      8.780
REMARK  Name = 
REMARK  10 active torsions:
REMARK  status: ('A' for Active; 'I' for Inactive)
REMARK    1  A    between atoms: C_1  and  C_2
REMARK    2  A    between atoms: C_2  and  C_3
REMARK    3  A    between atoms: C_8  and  O_9
REMARK    4  A    between atoms: O_9  and  S_10
REMARK    5  A    between atoms: S_10  and  N_11
REMARK    6  A    between atoms: C_20  and  C_21
REMARK    7  A    between atoms: C_25  and  C_26
REMARK    8  A    between atoms: C_26  and  C_27
REMARK    9  A    between atoms: C_27  and  O_28
REMARK   10  A    between atoms: O_28  and  C_29
REMARK                            x       y       z     vdW  Elec       q    Type
REMARK                         _______ _______ _______ _____ _____    ______ ____
ROOT
ATOM      1  C   UNL     1       3.948   4.926  19.132  0.00  0.00    +0.000 A 
ATOM      2  C   UNL     1       2.894   5.706  19.648  0.00  0.00    +0.000 A 
ATOM      3  C   UNL     1       2.524   6.946  19.108  0.00  0.00    +0.000 A 
ATOM      4  C   UNL     1       3.192   7.397  17.965  0.00  0.00    +0.000 A 
ATOM      5  C   UNL     1       4.241   6.632  17.435  0.00  0.00    +0.000 A 
ATOM      6  C   UNL     1       4.646   5.420  18.021  0.00  0.00    +0.000 A 
ATOM      7  C   UNL     1       2.869   8.722  17.312  0.00  0.00    +0.000 C 
ATOM      8  C   UNL     1       1.535   9.317  17.759  0.00  0.00    +0.000 C 
ATOM      9  C   UNL     1       1.414   9.219  19.283  0.00  0.00    +0.000 C 
ATOM     10  C   UNL     1       1.346   7.718  19.683  0.00  0.00    +0.000 C 
ATOM     11  C   UNL     1       1.139   7.527  21.208  0.00  0.00    +0.000 C 
ATOM     12  C   UNL     1      -0.016   8.364  21.777  0.00  0.00    +0.000 C 
ATOM     13  C   UNL     1       0.115   9.841  21.389  0.00  0.00    +0.000 C 
ATOM     14  C   UNL     1       1.352  10.453  22.095  0.00  0.00    +0.000 C 
ATOM     15  C   UNL     1       0.173   9.917  19.843  0.00  0.00    +0.000 C 
ATOM     16  C   UNL     1      -0.047  11.395  19.547  0.00  0.00    +0.000 C 
ATOM     17  C   UNL     1      -1.004  11.866  20.656  0.00  0.00    +0.000 C 
ATOM     18  C   UNL     1      -1.158  10.684  21.642  0.00  0.00    +0.000 C 
ENDROOT
BRANCH   1  20
ATOM     19  C   UNL     1       3.249   2.427  19.389  0.00  0.00    +0.000 C 
ATOM     20  C   UNL     1       4.135   3.585  19.807  0.00  0.00    +0.000 C 
ENDBRANCH   1  20
BRANCH   6  21
ATOM     21  O   UNL     1       5.703   4.692  17.524  0.00  0.00    +0.000 OA
BRANCH  21  22
ATOM     22  S   UNL     1       7.243   5.195  17.710  0.00  0.00    +0.000 S 
ATOM     23  O   UNL     1       7.353   5.913  18.963  0.00  0.00    +0.000 OA
ATOM     24  O   UNL     1       8.153   4.137  17.349  0.00  0.00    +0.000 OA
BRANCH  22  25
ATOM     25  N   UNL     1       7.427   6.337  16.500  0.00  0.00    +0.000 NA
ATOM     26  H   UNL     1       7.955   7.150  16.817  0.00  0.00    +0.000 HD
ATOM     27  H   UNL     1       6.517   6.548  16.087  0.00  0.00    +0.000 HD
ENDBRANCH  22  25
ENDBRANCH  21  22
ENDBRANCH   6  21
BRANCH  18  28
ATOM     28  C   UNL     1      -1.404  11.120  23.093  0.00  0.00    +0.000 C 
BRANCH  28  29
ATOM     29  C   UNL     1      -2.280  12.366  23.214  0.00  0.00    +0.000 C 
BRANCH  29  30
ATOM     30  O   UNL     1      -3.646  11.992  23.377  0.00  0.00    +0.000 OA
ATOM     31  C   UNL     1      -4.186  12.528  24.579  0.00  0.00    +0.000 C 
ENDBRANCH  29  30
ENDBRANCH  28  29
ENDBRANCH  18  28
TORSDOF 7
ENDMDL
MODEL 4
REMARK VINA RESULT:      -8.0      1.004      1.275
REMARK  Name = 
REMARK  10 active torsions:
REMARK  status: ('A' for Active; 'I' for Inactive)
REMARK    1  A    between atoms: C_1  and  C_2
REMARK    2  A    between atoms: C_2  and  C_3
REMARK    3  A    between atoms: C_8  and  O_9
REMARK    4  A    between atoms: O_9  and  S_10
REMARK    5  A    between atoms: S_10  and  N_11
REMARK    6  A    between atoms: C_20  and  C_21
REMARK    7  A    between atoms: C_25  and  C_26
REMARK    8  A    between atoms: C_26  and  C_27
REMARK    9  A    between atoms: C_27  and  O_28
REMARK   10  A    between atoms: O_28  and  C_29
REMARK                            x       y       z     vdW  Elec       q    Type
REMARK                         _______ _______ _______ _____ _____    ______ ____
ROOT
ATOM      1  C   UNL     1      -0.183   9.882  21.092  0.00  0.00    +0.000 A 
ATOM      2  C   UNL     1       0.660   8.757  20.999  0.00  0.00    +0.000 A 
ATOM      3  C   UNL     1       1.392   8.443  19.846  0.00  0.00    +0.000 A 
ATOM      4  C   UNL     1       1.331   9.324  18.761  0.00  0.00    +0.000 A 
ATOM      5  C   UNL     1       0.500  10.451  18.837  0.00  0.00    +0.000 A 
ATOM      6  C   UNL     1      -0.278  10.724  19.975  0.00  0.00    +0.000 A 
ATOM      7  C   UNL     1       2.080   9.071  17.472  0.00  0.00    +0.000 C 
ATOM      8  C   UNL     1       3.177   8.014  17.598  0.00  0.00    +0.000 C 
ATOM      9  C   UNL     1       2.638   6.803  18.365  0.00  0.00    +0.000 C 
ATOM     10  C   UNL     1       2.321   7.238  19.825  0.00  0.00    +0.000 C 
ATOM     11  C   UNL     1       1.846   6.049  20.699  0.00  0.00    +0.000 C 
ATOM     12  C   UNL     1       2.766   4.822  20.614  0.00  0.00    +0.000 C 
ATOM     13  C   UNL     1       3.019   4.409  19.160  0.00  0.00    +0.000 C 
ATOM     14  C   UNL     1       1.701   3.883  18.535  0.00  0.00    +0.000 C 
ATOM     15  C   UNL     1       3.619   5.631  18.422  0.00  0.00    +0.000 C 
ATOM     16  C   UNL     1       4.150   5.041  17.121  0.00  0.00    +0.000 C 
ATOM     17  C   UNL     1       4.615   3.626  17.508  0.00  0.00    +0.000 C 
ATOM     18  C   UNL     1       4.177   3.399  18.974  0.00  0.00    +0.000 C 
ENDROOT
BRANCH   1  20
ATOM     19  C   UNL     1      -0.087   9.597  23.683  0.00  0.00    +0.000 C 
ATOM     20  C   UNL     1      -0.822  10.086  22.448  0.00  0.00    +0.000 C 
ENDBRANCH   1  20
BRANCH   6  21
ATOM     21  O   UNL     1      -1.124  11.808  20.031  0.00  0.00    +0.000 OA
BRANCH  21  22
ATOM     22  S   UNL     1      -0.614  13.306  19.639  0.00  0.00    +0.000 S 
ATOM     23  O   UNL     1       0.499  13.662  20.496  0.00  0.00    +0.000 OA
ATOM     24  O   UNL     1      -0.554  13.446  18.206  0.00  0.00    +0.000 OA
BRANCH  22  25
ATOM     25  N   UNL     1      -1.891  14.284  20.103  0.00  0.00    +0.000 NA
ATOM     26  H   UNL     1      -2.155  14.134  21.077  0.00  0.00    +0.000 HD
ATOM     27  H   UNL     1      -2.654  14.194  19.430  0.00  0.00    +0.000 HD
ENDBRANCH  22  25
ENDBRANCH  21  22
ENDBRANCH   6  21
BRANCH  18  28
ATOM     28  C   UNL     1       3.856   1.933  19.302  0.00  0.00    +0.000 C 
BRANCH  28  29
ATOM     29  C   UNL     1       4.263   1.523  20.716  0.00  0.00    +0.000 C 
BRANCH  29  30
ATOM     30  O   UNL     1       5.590   1.003  20.713  0.00  0.00    +0.000 OA
ATOM     31  C   UNL     1       5.923   0.436  21.975  0.00  0.00    +0.000 C 
ENDBRANCH  29  30
ENDBRANCH  28  29
ENDBRANCH  18  28
TORSDOF 7
ENDMDL
MODEL 5
REMARK VINA RESULT:      -7.8      4.078      9.401
REMARK  Name = 
REMARK  10 active torsions:
REMARK  status: ('A' for Active; 'I' for Inactive)
REMARK    1  A    between atoms: C_1  and  C_2
REMARK    2  A    between atoms: C_2  and  C_3
REMARK    3  A    between atoms: C_8  and  O_9
REMARK    4  A    between atoms: O_9  and  S_10
REMARK    5  A    between atoms: S_10  and  N_11
REMARK    6  A    between atoms: C_20  and  C_21
REMARK    7  A    between atoms: C_25  and  C_26
REMARK    8  A    between atoms: C_26  and  C_27
REMARK    9  A    between atoms: C_27  and  O_28
REMARK   10  A    between atoms: O_28  and  C_29
REMARK                            x       y       z     vdW  Elec       q    Type
REMARK                         _______ _______ _______ _____ _____    ______ ____
ROOT
ATOM      1  C   UNL     1       3.389   5.663  17.861  0.00  0.00    +0.000 A 
ATOM      2  C   UNL     1       3.096   7.026  18.067  0.00  0.00    +0.000 A 
ATOM      3  C   UNL     1       2.316   7.487  19.137  0.00  0.00    +0.000 A 
ATOM      4  C   UNL     1       1.863   6.556  20.077  0.00  0.00    +0.000 A 
ATOM      5  C   UNL     1       2.148   5.196  19.890  0.00  0.00    +0.000 A 
ATOM      6  C   UNL     1       2.878   4.736  18.780  0.00  0.00    +0.000 A 
ATOM      7  C   UNL     1       1.012   6.953  21.262  0.00  0.00    +0.000 C 
ATOM      8  C   UNL     1       1.023   8.455  21.549  0.00  0.00    +0.000 C 
ATOM      9  C   UNL     1       0.837   9.228  20.239  0.00  0.00    +0.000 C 
ATOM     10  C   UNL     1       2.075   8.977  19.331  0.00  0.00    +0.000 C 
ATOM     11  C   UNL     1       2.009   9.791  18.014  0.00  0.00    +0.000 C 
ATOM     12  C   UNL     1       1.702  11.280  18.230  0.00  0.00    +0.000 C 
ATOM     13  C   UNL     1       0.454  11.477  19.098  0.00  0.00    +0.000 C 
ATOM     14  C   UNL     1      -0.796  10.987  18.323  0.00  0.00    +0.000 C 
ATOM     15  C   UNL     1       0.692  10.738  20.438  0.00  0.00    +0.000 C 
ATOM     16  C   UNL     1      -0.414  11.267  21.342  0.00  0.00    +0.000 C 
ATOM     17  C   UNL     1      -0.613  12.723  20.886  0.00  0.00    +0.000 C 
ATOM     18  C   UNL     1       0.265  12.919  19.627  0.00  0.00    +0.000 C 
ENDROOT
BRANCH   1  20
ATOM     19  C   UNL     1       5.217   6.493  16.196  0.00  0.00    +0.000 C 
ATOM     20  C   UNL     1       4.311   5.382  16.695  0.00  0.00    +0.000 C 
ENDBRANCH   1  20
BRANCH   6  21
ATOM     21  O   UNL     1       3.121   3.397  18.576  0.00  0.00    +0.000 OA
BRANCH  21  22
ATOM     22  S   UNL     1       4.134   2.560  19.542  0.00  0.00    +0.000 S 
ATOM     23  O   UNL     1       5.438   3.189  19.510  0.00  0.00    +0.000 OA
ATOM     24  O   UNL     1       3.472   2.226  20.778  0.00  0.00    +0.000 OA
BRANCH  22  25
ATOM     25  N   UNL     1       4.303   1.095  18.748  0.00  0.00    +0.000 NA
ATOM     26  H   UNL     1       3.812   1.085  17.853  0.00  0.00    +0.000 HD
ATOM     27  H   UNL     1       4.062   0.332  19.381  0.00  0.00    +0.000 HD
ENDBRANCH  22  25
ENDBRANCH  21  22
ENDBRANCH   6  21
BRANCH  18  28
ATOM     28  C   UNL     1      -0.306  13.937  18.630  0.00  0.00    +0.000 C 
BRANCH  28  29
ATOM     29  C   UNL     1      -0.477  15.337  19.219  0.00  0.00    +0.000 C 
BRANCH  29  30
ATOM     30  O   UNL     1      -0.436  16.314  18.183  0.00  0.00    +0.000 OA
ATOM     31  C   UNL     1       0.653  17.211  18.363  0.00  0.00    +0.000 C 
ENDBRANCH  29  30
ENDBRANCH  28  29
ENDBRANCH  18  28
TORSDOF 7
ENDMDL
MODEL 6
REMARK VINA RESULT:      -7.7      1.402      1.688
REMARK  Name = 
REMARK  10 active torsions:
REMARK  status: ('A' for Active; 'I' for Inactive)
REMARK    1  A    between atoms: C_1  and  C_2
REMARK    2  A    between atoms: C_2  and  C_3
REMARK    3  A    between atoms: C_8  and  O_9
REMARK    4  A    between atoms: O_9  and  S_10
REMARK    5  A    between atoms: S_10  and  N_11
REMARK    6  A    between atoms: C_20  and  C_21
REMARK    7  A    between atoms: C_25  and  C_26
REMARK    8  A    between atoms: C_26  and  C_27
REMARK    9  A    between atoms: C_27  and  O_28
REMARK   10  A    between atoms: O_28  and  C_29
REMARK                            x       y       z     vdW  Elec       q    Type
REMARK                         _______ _______ _______ _____ _____    ______ ____
ROOT
ATOM      1  C   UNL     1      -0.329  10.397  20.969  0.00  0.00    +0.000 A 
ATOM      2  C   UNL     1       0.495   9.254  20.924  0.00  0.00    +0.000 A 
ATOM      3  C   UNL     1       1.237   8.891  19.792  0.00  0.00    +0.000 A 
ATOM      4  C   UNL     1       1.207   9.738  18.679  0.00  0.00    +0.000 A 
ATOM      5  C   UNL     1       0.395  10.881  18.707  0.00  0.00    +0.000 A 
ATOM      6  C   UNL     1      -0.394  11.204  19.825  0.00  0.00    +0.000 A 
ATOM      7  C   UNL     1       1.969   9.431  17.410  0.00  0.00    +0.000 C 
ATOM      8  C   UNL     1       3.045   8.360  17.585  0.00  0.00    +0.000 C 
ATOM      9  C   UNL     1       2.474   7.183  18.382  0.00  0.00    +0.000 C 
ATOM     10  C   UNL     1       2.145   7.670  19.822  0.00  0.00    +0.000 C 
ATOM     11  C   UNL     1       1.637   6.518  20.727  0.00  0.00    +0.000 C 
ATOM     12  C   UNL     1       2.536   5.274  20.694  0.00  0.00    +0.000 C 
ATOM     13  C   UNL     1       2.801   4.810  19.258  0.00  0.00    +0.000 C 
ATOM     14  C   UNL     1       1.483   4.287  18.632  0.00  0.00    +0.000 C 
ATOM     15  C   UNL     1       3.434   5.996  18.490  0.00  0.00    +0.000 C 
ATOM     16  C   UNL     1       3.971   5.356  17.216  0.00  0.00    +0.000 C 
ATOM     17  C   UNL     1       4.406   3.946  17.654  0.00  0.00    +0.000 C 
ATOM     18  C   UNL     1       3.944   3.774  19.121  0.00  0.00    +0.000 C 
ENDROOT
BRANCH   1  20
ATOM     19  C   UNL     1      -0.552   9.823  23.504  0.00  0.00    +0.000 C 
ATOM     20  C   UNL     1      -0.982  10.655  22.309  0.00  0.00    +0.000 C 
ENDBRANCH   1  20
BRANCH   6  21
ATOM     21  O   UNL     1      -1.221  12.303  19.835  0.00  0.00    +0.000 OA
BRANCH  21  22
ATOM     22  S   UNL     1      -0.620  13.819  19.824  0.00  0.00    +0.000 S 
ATOM     23  O   UNL     1       0.317  13.960  20.920  0.00  0.00    +0.000 OA
ATOM     24  O   UNL     1      -0.290  14.209  18.476  0.00  0.00    +0.000 OA
BRANCH  22  25
ATOM     25  N   UNL     1      -1.946  14.763  20.220  0.00  0.00    +0.000 NA
ATOM     26  H   UNL     1      -1.781  15.753  20.036  0.00  0.00    +0.000 HD
ATOM     27  H   UNL     1      -2.250  14.545  21.170  0.00  0.00    +0.000 HD
ENDBRANCH  22  25
ENDBRANCH  21  22
ENDBRANCH   6  21
BRANCH  18  28
ATOM     28  C   UNL     1       3.593   2.326  19.490  0.00  0.00    +0.000 C 
BRANCH  28  29
ATOM     29  C   UNL     1       4.170   1.883  20.834  0.00  0.00    +0.000 C 
BRANCH  29  30
ATOM     30  O   UNL     1       3.290   2.253  21.892  0.00  0.00    +0.000 OA
ATOM     31  C   UNL     1       1.932   2.024  21.535  0.00  0.00    +0.000 C 
ENDBRANCH  29  30
ENDBRANCH  28  29
ENDBRANCH  18  28
TORSDOF 7
ENDMDL
MODEL 7
REMARK VINA RESULT:      -7.7      3.773      8.725
REMARK  Name = 
REMARK  10 active torsions:
REMARK  status: ('A' for Active; 'I' for Inactive)
REMARK    1  A    between atoms: C_1  and  C_2
REMARK    2  A    between atoms: C_2  and  C_3
REMARK    3  A    between atoms: C_8  and  O_9
REMARK    4  A    between atoms: O_9  and  S_10
REMARK    5  A    between atoms: S_10  and  N_11
REMARK    6  A    between atoms: C_20  and  C_21
REMARK    7  A    between atoms: C_25  and  C_26
REMARK    8  A    between atoms: C_26  and  C_27
REMARK    9  A    between atoms: C_27  and  O_28
REMARK   10  A    between atoms: O_28  and  C_29
REMARK                            x       y       z     vdW  Elec       q    Type
REMARK                         _______ _______ _______ _____ _____    ______ ____
ROOT
ATOM      1  C   UNL     1       4.045   4.867  19.258  0.00  0.00    +0.000 A 
ATOM      2  C   UNL     1       2.980   5.659  19.733  0.00  0.00    +0.000 A 
ATOM      3  C   UNL     1       2.618   6.882  19.152  0.00  0.00    +0.000 A 
ATOM      4  C   UNL     1       3.307   7.303  18.010  0.00  0.00    +0.000 A 
ATOM      5  C   UNL     1       4.367   6.527  17.521  0.00  0.00    +0.000 A 
ATOM      6  C   UNL     1       4.763   5.332  18.148  0.00  0.00    +0.000 A 
ATOM      7  C   UNL     1       2.994   8.609  17.314  0.00  0.00    +0.000 C 
ATOM      8  C   UNL     1       1.650   9.214  17.720  0.00  0.00    +0.000 C 
ATOM      9  C   UNL     1       1.501   9.158  19.243  0.00  0.00    +0.000 C 
ATOM     10  C   UNL     1       1.428   7.667  19.683  0.00  0.00    +0.000 C 
ATOM     11  C   UNL     1       1.192   7.518  21.208  0.00  0.00    +0.000 C 
ATOM     12  C   UNL     1       0.025   8.368  21.732  0.00  0.00    +0.000 C 
ATOM     13  C   UNL     1       0.161   9.834  21.306  0.00  0.00    +0.000 C 
ATOM     14  C   UNL     1       1.383  10.468  22.019  0.00  0.00    +0.000 C 
ATOM     15  C   UNL     1       0.248   9.867  19.760  0.00  0.00    +0.000 C 
ATOM     16  C   UNL     1       0.031  11.336  19.419  0.00  0.00    +0.000 C 
ATOM     17  C   UNL     1      -0.947  11.836  20.497  0.00  0.00    +0.000 C 
ATOM     18  C   UNL     1      -1.119  10.680  21.511  0.00  0.00    +0.000 C 
ENDROOT
BRANCH   1  20
ATOM     19  C   UNL     1       2.986   2.757  20.365  0.00  0.00    +0.000 C 
ATOM     20  C   UNL     1       4.221   3.546  19.974  0.00  0.00    +0.000 C 
ENDBRANCH   1  20
BRANCH   6  21
ATOM     21  O   UNL     1       5.830   4.594  17.691  0.00  0.00    +0.000 OA
BRANCH  21  22
ATOM     22  S   UNL     1       7.362   5.136  17.833  0.00  0.00    +0.000 S 
ATOM     23  O   UNL     1       8.270   4.018  17.674  0.00  0.00    +0.000 OA
ATOM     24  O   UNL     1       7.519   6.364  17.096  0.00  0.00    +0.000 OA
BRANCH  22  25
ATOM     25  N   UNL     1       7.463   5.594  19.440  0.00  0.00    +0.000 NA
ATOM     26  H   UNL     1       7.902   6.508  19.552  0.00  0.00    +0.000 HD
ATOM     27  H   UNL     1       7.886   4.842  19.985  0.00  0.00    +0.000 HD
ENDBRANCH  22  25
ENDBRANCH  21  22
ENDBRANCH   6  21
BRANCH  18  28
ATOM     28  C   UNL     1      -1.393  11.156  22.946  0.00  0.00    +0.000 C 
BRANCH  28  29
ATOM     29  C   UNL     1      -1.815  12.622  23.030  0.00  0.00    +0.000 C 
BRANCH  29  30
ATOM     30  O   UNL     1      -0.757  13.406  23.574  0.00  0.00    +0.000 OA
ATOM     31  C   UNL     1      -0.732  14.707  22.998  0.00  0.00    +0.000 C 
ENDBRANCH  29  30
ENDBRANCH  28  29
ENDBRANCH  18  28
TORSDOF 7
ENDMDL
MODEL 8
REMARK VINA RESULT:      -7.6      1.070      1.183
REMARK  Name = 
REMARK  10 active torsions:
REMARK  status: ('A' for Active; 'I' for Inactive)
REMARK    1  A    between atoms: C_1  and  C_2
REMARK    2  A    between atoms: C_2  and  C_3
REMARK    3  A    between atoms: C_8  and  O_9
REMARK    4  A    between atoms: O_9  and  S_10
REMARK    5  A    between atoms: S_10  and  N_11
REMARK    6  A    between atoms: C_20  and  C_21
REMARK    7  A    between atoms: C_25  and  C_26
REMARK    8  A    between atoms: C_26  and  C_27
REMARK    9  A    between atoms: C_27  and  O_28
REMARK   10  A    between atoms: O_28  and  C_29
REMARK                            x       y       z     vdW  Elec       q    Type
REMARK                         _______ _______ _______ _____ _____    ______ ____
ROOT
ATOM      1  C   UNL     1      -0.086   9.550  21.360  0.00  0.00    +0.000 A 
ATOM      2  C   UNL     1       0.718   8.420  21.109  0.00  0.00    +0.000 A 
ATOM      3  C   UNL     1       1.456   8.255  19.929  0.00  0.00    +0.000 A 
ATOM      4  C   UNL     1       1.444   9.290  18.988  0.00  0.00    +0.000 A 
ATOM      5  C   UNL     1       0.653  10.423  19.223  0.00  0.00    +0.000 A 
ATOM      6  C   UNL     1      -0.133  10.552  20.381  0.00  0.00    +0.000 A 
ATOM      7  C   UNL     1       2.203   9.204  17.683  0.00  0.00    +0.000 C 
ATOM      8  C   UNL     1       3.261   8.101  17.660  0.00  0.00    +0.000 C 
ATOM      9  C   UNL     1       2.667   6.809  18.232  0.00  0.00    +0.000 C 
ATOM     10  C   UNL     1       2.342   7.033  19.737  0.00  0.00    +0.000 C 
ATOM     11  C   UNL     1       1.813   5.745  20.419  0.00  0.00    +0.000 C 
ATOM     12  C   UNL     1       2.689   4.512  20.160  0.00  0.00    +0.000 C 
ATOM     13  C   UNL     1       2.950   4.311  18.663  0.00  0.00    +0.000 C 
ATOM     14  C   UNL     1       1.624   3.934  17.954  0.00  0.00    +0.000 C 
ATOM     15  C   UNL     1       3.605   5.606  18.122  0.00  0.00    +0.000 C 
ATOM     16  C   UNL     1       4.134   5.197  16.754  0.00  0.00    +0.000 C 
ATOM     17  C   UNL     1       4.543   3.724  16.929  0.00  0.00    +0.000 C 
ATOM     18  C   UNL     1       4.075   3.297  18.340  0.00  0.00    +0.000 C 
ENDROOT
BRANCH   1  20
ATOM     19  C   UNL     1      -1.216  10.901  23.285  0.00  0.00    +0.000 C 
ATOM     20  C   UNL     1      -0.738   9.573  22.725  0.00  0.00    +0.000 C 
ENDBRANCH   1  20
BRANCH   6  21
ATOM     21  O   UNL     1      -0.941  11.646  20.591  0.00  0.00    +0.000 OA
BRANCH  21  22
ATOM     22  S   UNL     1      -0.333  13.159  20.619  0.00  0.00    +0.000 S 
ATOM     23  O   UNL     1      -0.053  13.577  19.261  0.00  0.00    +0.000 OA
ATOM     24  O   UNL     1      -1.090  13.976  21.534  0.00  0.00    +0.000 OA
BRANCH  22  25
ATOM     25  N   UNL     1       1.154  12.964  21.364  0.00  0.00    +0.000 NA
ATOM     26  H   UNL     1       1.063  12.791  22.365  0.00  0.00    +0.000 HD
ATOM     27  H   UNL     1       1.767  13.742  21.114  0.00  0.00    +0.000 HD
ENDBRANCH  22  25
ENDBRANCH  21  22
ENDBRANCH   6  21
BRANCH  18  28
ATOM     28  C   UNL     1       3.697   1.812  18.441  0.00  0.00    +0.000 C 
BRANCH  28  29
ATOM     29  C   UNL     1       3.930   1.218  19.829  0.00  0.00    +0.000 C 
BRANCH  29  30
ATOM     30  O   UNL     1       5.036   1.860  20.458  0.00  0.00    +0.000 OA
ATOM     31  C   UNL     1       5.596   1.039  21.476  0.00  0.00    +0.000 C 
ENDBRANCH  29  30
ENDBRANCH  28  29
ENDBRANCH  18  28
TORSDOF 7
ENDMDL
MODEL 9
REMARK VINA RESULT:      -7.5      2.437      4.044
REMARK  Name = 
REMARK  10 active torsions:
REMARK  status: ('A' for Active; 'I' for Inactive)
REMARK    1  A    between atoms: C_1  and  C_2
REMARK    2  A    between atoms: C_2  and  C_3
REMARK    3  A    between atoms: C_8  and  O_9
REMARK    4  A    between atoms: O_9  and  S_10
REMARK    5  A    between atoms: S_10  and  N_11
REMARK    6  A    between atoms: C_20  and  C_21
REMARK    7  A    between atoms: C_25  and  C_26
REMARK    8  A    between atoms: C_26  and  C_27
REMARK    9  A    between atoms: C_27  and  O_28
REMARK   10  A    between atoms: O_28  and  C_29
REMARK                            x       y       z     vdW  Elec       q    Type
REMARK                         _______ _______ _______ _____ _____    ______ ____
ROOT
ATOM      1  C   UNL     1       1.358  10.946  19.540  0.00  0.00    +0.000 A 
ATOM      2  C   UNL     1       1.884   9.878  18.787  0.00  0.00    +0.000 A 
ATOM      3  C   UNL     1       1.936   8.560  19.263  0.00  0.00    +0.000 A 
ATOM      4  C   UNL     1       1.379   8.285  20.517  0.00  0.00    +0.000 A 
ATOM      5  C   UNL     1       0.849   9.336  21.278  0.00  0.00    +0.000 A 
ATOM      6  C   UNL     1       0.858  10.664  20.818  0.00  0.00    +0.000 A 
ATOM      7  C   UNL     1       1.390   6.898  21.118  0.00  0.00    +0.000 C 
ATOM      8  C   UNL     1       1.694   5.793  20.107  0.00  0.00    +0.000 C 
ATOM      9  C   UNL     1       2.885   6.208  19.237  0.00  0.00    +0.000 C 
ATOM     10  C   UNL     1       2.473   7.441  18.383  0.00  0.00    +0.000 C 
ATOM     11  C   UNL     1       3.596   7.878  17.407  0.00  0.00    +0.000 C 
ATOM     12  C   UNL     1       4.166   6.722  16.574  0.00  0.00    +0.000 C 
ATOM     13  C   UNL     1       4.592   5.547  17.461  0.00  0.00    +0.000 C 
ATOM     14  C   UNL     1       5.808   5.967  18.326  0.00  0.00    +0.000 C 
ATOM     15  C   UNL     1       3.357   5.107  18.284  0.00  0.00    +0.000 C 
ATOM     16  C   UNL     1       3.766   3.755  18.855  0.00  0.00    +0.000 C 
ATOM     17  C   UNL     1       4.663   3.140  17.766  0.00  0.00    +0.000 C 
ATOM     18  C   UNL     1       4.871   4.233  16.691  0.00  0.00    +0.000 C 
ENDROOT
BRANCH   1  20
ATOM     19  C   UNL     1       2.619  12.842  18.267  0.00  0.00    +0.000 C 
ATOM     20  C   UNL     1       1.322  12.274  18.816  0.00  0.00    +0.000 C 
ENDBRANCH   1  20
BRANCH   6  21
ATOM     21  O   UNL     1       0.374  11.700  21.585  0.00  0.00    +0.000 OA
BRANCH  21  22
ATOM     22  S   UNL     1      -1.211  11.821  21.948  0.00  0.00    +0.000 S 
ATOM     23  O   UNL     1      -1.977  11.788  20.718  0.00  0.00    +0.000 OA
ATOM     24  O   UNL     1      -1.525  10.974  23.071  0.00  0.00    +0.000 OA
BRANCH  22  25
ATOM     25  N   UNL     1      -1.354  13.379  22.544  0.00  0.00    +0.000 NA
ATOM     26  H   UNL     1      -0.605  13.610  23.197  0.00  0.00    +0.000 HD
ATOM     27  H   UNL     1      -2.299  13.524  22.902  0.00  0.00    +0.000 HD
ENDBRANCH  22  25
ENDBRANCH  21  22
ENDBRANCH   6  21
BRANCH  18  28
ATOM     28  C   UNL     1       6.226   4.142  15.974  0.00  0.00    +0.000 C 
BRANCH  28  29
ATOM     29  C   UNL     1       6.208   4.728  14.563  0.00  0.00    +0.000 C 
BRANCH  29  30
ATOM     30  O   UNL     1       7.470   5.316  14.260  0.00  0.00    +0.000 OA
ATOM     31  C   UNL     1       7.792   5.163  12.883  0.00  0.00    +0.000 C 
ENDBRANCH  29  30
ENDBRANCH  28  29
ENDBRANCH  18  28
TORSDOF 7
ENDMDL
