MODEL 1
REMARK VINA RESULT:      -7.9      0.000      0.000
REMARK  Name = 
REMARK  7 active torsions:
REMARK  status: ('A' for Active; 'I' for Inactive)
REMARK    1  A    between atoms: C_1  and  C_2
REMARK    2  A    between atoms: C_3  and  C_4
REMARK    3  A    between atoms: C_4  and  O_6
REMARK    4  A    between atoms: O_6  and  C_7
REMARK    5  A    between atoms: C_7  and  C_8
REMARK    6  A    between atoms: C_8  and  C_9
REMARK    7  A    between atoms: C_10  and  C_11
REMARK                            x       y       z     vdW  Elec       q    Type
REMARK                         _______ _______ _______ _____ _____    ______ ____
ROOT
ATOM      1  C   UNL     1       2.760   4.355  17.714  0.00  0.00    +0.000 A 
ATOM      2  C   UNL     1       3.371   5.565  17.884  0.00  0.00    +0.000 A 
ATOM      3  C   UNL     1       4.825   5.703  17.546  0.00  0.00    +0.000 A 
ATOM      4  C   UNL     1       5.539   6.897  17.734  0.00  0.00    +0.000 A 
ATOM      5  C   UNL     1       6.883   6.986  17.356  0.00  0.00    +0.000 A 
ATOM      6 CL   UNL     1       7.738   8.463  17.580  0.00  0.00    +0.000 Cl
ATOM      7  C   UNL     1       7.540   5.895  16.795  0.00  0.00    +0.000 A 
ATOM      8  C   UNL     1       6.850   4.701  16.613  0.00  0.00    +0.000 A 
ATOM      9  C   UNL     1       5.508   4.619  16.990  0.00  0.00    +0.000 A 
ATOM     10  N   UNL     1       4.855   3.406  16.848  0.00  0.00    +0.000 N 
ATOM     11  C   UNL     1       3.595   3.173  17.300  0.00  0.00    +0.000 A 
ATOM     12  O   UNL     1       3.215   2.007  17.349  0.00  0.00    +0.000 OA
ATOM     13  H   UNL     1       5.355   2.583  16.542  0.00  0.00    +0.000 HD
ENDROOT
BRANCH   2  14
ATOM     14  C   UNL     1       2.586   6.741  18.373  0.00  0.00    +0.000 A 
ATOM     15  C   UNL     1       2.253   7.755  17.457  0.00  0.00    +0.000 A 
ATOM     16  C   UNL     1       1.660   8.946  17.889  0.00  0.00    +0.000 A 
ATOM     17  C   UNL     1       1.379   9.139  19.240  0.00  0.00    +0.000 A 
ATOM     18  C   UNL     1       1.682   8.136  20.160  0.00  0.00    +0.000 A 
ATOM     19  C   UNL     1       2.287   6.947  19.734  0.00  0.00    +0.000 A 
ATOM     20 CL   UNL     1       2.691   5.778  20.943  0.00  0.00    +0.000 Cl
ENDBRANCH   2  14
BRANCH   1  21
ATOM     21  C   UNL     1       1.262   4.136  17.920  0.00  0.00    +0.000 C 
BRANCH  21  22
ATOM     22  C   UNL     1       0.763   3.064  18.908  0.00  0.00    +0.000 C 
BRANCH  22  23
ATOM     23  O   UNL     1       0.721   3.548  20.265  0.00  0.00    +0.000 OA
BRANCH  23  24
ATOM     24  C   UNL     1       1.312   2.774  21.190  0.00  0.00    +0.000 C 
ATOM     25  O   UNL     1       0.961   2.642  22.351  0.00  0.00    +0.000 OA
BRANCH  24  28
ATOM     26  C   UNL     1       4.945   1.798  20.395  0.00  0.00    +0.000 C 
ATOM     27  C   UNL     1       3.702   2.427  20.927  0.00  0.00    +0.000 C 
ATOM     28  C   UNL     1       2.457   2.077  20.563  0.00  0.00    +0.000 C 
ENDBRANCH  24  28
ENDBRANCH  23  24
ENDBRANCH  22  23
ENDBRANCH  21  22
ENDBRANCH   1  21
TORSDOF 6
ENDMDL
MODEL 2
REMARK VINA RESULT:      -7.8      3.284      6.117
REMARK  Name = 
REMARK  7 active torsions:
REMARK  status: ('A' for Active; 'I' for Inactive)
REMARK    1  A    between atoms: C_1  and  C_2
REMARK    2  A    between atoms: C_3  and  C_4
REMARK    3  A    between atoms: C_4  and  O_6
REMARK    4  A    between atoms: O_6  and  C_7
REMARK    5  A    between atoms: C_7  and  C_8
REMARK    6  A    between atoms: C_8  and  C_9
REMARK    7  A    between atoms: C_10  and  C_11
REMARK                            x       y       z     vdW  Elec       q    Type
REMARK                         _______ _______ _______ _____ _____    ______ ____
ROOT
ATOM      1  C   UNL     1       3.997   5.822  17.974  0.00  0.00    +0.000 A 
ATOM      2  C   UNL     1       2.925   6.076  18.782  0.00  0.00    +0.000 A 
ATOM      3  C   UNL     1       2.353   7.460  18.822  0.00  0.00    +0.000 A 
ATOM      4  C   UNL     1       1.284   7.818  19.658  0.00  0.00    +0.000 A 
ATOM      5  C   UNL     1       0.755   9.112  19.621  0.00  0.00    +0.000 A 
ATOM      6 CL   UNL     1      -0.567   9.527  20.643  0.00  0.00    +0.000 Cl
ATOM      7  C   UNL     1       1.281  10.073  18.761  0.00  0.00    +0.000 A 
ATOM      8  C   UNL     1       2.348   9.738  17.934  0.00  0.00    +0.000 A 
ATOM      9  C   UNL     1       2.870   8.444  17.975  0.00  0.00    +0.000 A 
ATOM     10  N   UNL     1       3.966   8.148  17.182  0.00  0.00    +0.000 N 
ATOM     11  C   UNL     1       4.636   6.967  17.234  0.00  0.00    +0.000 A 
ATOM     12  O   UNL     1       5.729   6.908  16.680  0.00  0.00    +0.000 OA
ATOM     13  H   UNL     1       4.418   8.868  16.637  0.00  0.00    +0.000 HD
ENDROOT
BRANCH   2  14
ATOM     14  C   UNL     1       2.318   4.975  19.593  0.00  0.00    +0.000 A 
ATOM     15  C   UNL     1       2.705   4.840  20.939  0.00  0.00    +0.000 A 
ATOM     16  C   UNL     1       2.292   3.740  21.697  0.00  0.00    +0.000 A 
ATOM     17  C   UNL     1       1.478   2.762  21.129  0.00  0.00    +0.000 A 
ATOM     18  C   UNL     1       1.067   2.890  19.802  0.00  0.00    +0.000 A 
ATOM     19  C   UNL     1       1.487   3.985  19.036  0.00  0.00    +0.000 A 
ATOM     20 CL   UNL     1       0.988   4.039  17.381  0.00  0.00    +0.000 Cl
ENDBRANCH   2  14
BRANCH   1  21
ATOM     21  C   UNL     1       4.584   4.425  17.774  0.00  0.00    +0.000 C 
BRANCH  21  22
ATOM     22  C   UNL     1       4.871   3.900  16.354  0.00  0.00    +0.000 C 
BRANCH  22  23
ATOM     23  O   UNL     1       6.278   3.912  16.042  0.00  0.00    +0.000 OA
BRANCH  23  24
ATOM     24  C   UNL     1       6.618   4.441  14.855  0.00  0.00    +0.000 C 
ATOM     25  O   UNL     1       7.620   5.096  14.617  0.00  0.00    +0.000 OA
BRANCH  24  28
ATOM     26  C   UNL     1       5.044   3.081  11.622  0.00  0.00    +0.000 C 
ATOM     27  C   UNL     1       5.973   3.517  12.703  0.00  0.00    +0.000 C 
ATOM     28  C   UNL     1       5.584   4.075  13.861  0.00  0.00    +0.000 C 
ENDBRANCH  24  28
ENDBRANCH  23  24
ENDBRANCH  22  23
ENDBRANCH  21  22
ENDBRANCH   1  21
TORSDOF 6
ENDMDL
MODEL 3
REMARK VINA RESULT:      -7.6      3.203      6.179
REMARK  Name = 
REMARK  7 active torsions:
REMARK  status: ('A' for Active; 'I' for Inactive)
REMARK    1  A    between atoms: C_1  and  C_2
REMARK    2  A    between atoms: C_3  and  C_4
REMARK    3  A    between atoms: C_4  and  O_6
REMARK    4  A    between atoms: O_6  and  C_7
REMARK    5  A    between atoms: C_7  and  C_8
REMARK    6  A    between atoms: C_8  and  C_9
REMARK    7  A    between atoms: C_10  and  C_11
REMARK                            x       y       z     vdW  Elec       q    Type
REMARK                         _______ _______ _______ _____ _____    ______ ____
ROOT
ATOM      1  C   UNL     1       3.290   5.981  18.125  0.00  0.00    +0.000 A 
ATOM      2  C   UNL     1       2.437   6.052  19.190  0.00  0.00    +0.000 A 
ATOM      3  C   UNL     1       1.864   7.380  19.579  0.00  0.00    +0.000 A 
ATOM      4  C   UNL     1       1.018   7.549  20.687  0.00  0.00    +0.000 A 
ATOM      5  C   UNL     1       0.471   8.803  20.979  0.00  0.00    +0.000 A 
ATOM      6 CL   UNL     1      -0.577   8.986  22.332  0.00  0.00    +0.000 Cl
ATOM      7  C   UNL     1       0.759   9.908  20.183  0.00  0.00    +0.000 A 
ATOM      8  C   UNL     1       1.604   9.761  19.089  0.00  0.00    +0.000 A 
ATOM      9  C   UNL     1       2.145   8.507  18.802  0.00  0.00    +0.000 A 
ATOM     10  N   UNL     1       3.026   8.394  17.739  0.00  0.00    +0.000 N 
ATOM     11  C   UNL     1       3.711   7.258  17.447  0.00  0.00    +0.000 A 
ATOM     12  O   UNL     1       4.642   7.343  16.652  0.00  0.00    +0.000 OA
ATOM     13  H   UNL     1       3.321   9.211  17.225  0.00  0.00    +0.000 HD
ENDROOT
BRANCH   2  14
ATOM     14  C   UNL     1       2.062   4.810  19.935  0.00  0.00    +0.000 A 
ATOM     15  C   UNL     1       2.551   4.638  21.243  0.00  0.00    +0.000 A 
ATOM     16  C   UNL     1       2.364   3.432  21.926  0.00  0.00    +0.000 A 
ATOM     17  C   UNL     1       1.676   2.382  21.320  0.00  0.00    +0.000 A 
ATOM     18  C   UNL     1       1.166   2.542  20.032  0.00  0.00    +0.000 A 
ATOM     19  C   UNL     1       1.361   3.744  19.340  0.00  0.00    +0.000 A 
ATOM     20 CL   UNL     1       0.753   3.842  17.723  0.00  0.00    +0.000 Cl
ENDBRANCH   2  14
BRANCH   1  21
ATOM     21  C   UNL     1       3.838   4.664  17.576  0.00  0.00    +0.000 C 
BRANCH  21  22
ATOM     22  C   UNL     1       5.324   4.304  17.769  0.00  0.00    +0.000 C 
BRANCH  22  23
ATOM     23  O   UNL     1       5.955   3.912  16.533  0.00  0.00    +0.000 OA
BRANCH  23  24
ATOM     24  C   UNL     1       6.856   4.771  16.028  0.00  0.00    +0.000 C 
ATOM     25  O   UNL     1       7.496   5.599  16.656  0.00  0.00    +0.000 OA
BRANCH  24  28
ATOM     26  C   UNL     1       5.973   3.544  12.493  0.00  0.00    +0.000 C 
ATOM     27  C   UNL     1       6.000   3.840  13.953  0.00  0.00    +0.000 C 
ATOM     28  C   UNL     1       6.970   4.534  14.571  0.00  0.00    +0.000 C 
ENDBRANCH  24  28
ENDBRANCH  23  24
ENDBRANCH  22  23
ENDBRANCH  21  22
ENDBRANCH   1  21
TORSDOF 6
ENDMDL
MODEL 4
REMARK VINA RESULT:      -7.4      3.044      5.953
REMARK  Name = 
REMARK  7 active torsions:
REMARK  status: ('A' for Active; 'I' for Inactive)
REMARK    1  A    between atoms: C_1  and  C_2
REMARK    2  A    between atoms: C_3  and  C_4
REMARK    3  A    between atoms: C_4  and  O_6
REMARK    4  A    between atoms: O_6  and  C_7
REMARK    5  A    between atoms: C_7  and  C_8
REMARK    6  A    between atoms: C_8  and  C_9
REMARK    7  A    between atoms: C_10  and  C_11
REMARK                            x       y       z     vdW  Elec       q    Type
REMARK                         _______ _______ _______ _____ _____    ______ ____
ROOT
ATOM      1  C   UNL     1       3.266   5.881  17.965  0.00  0.00    +0.000 A 
ATOM      2  C   UNL     1       2.455   5.994  19.059  0.00  0.00    +0.000 A 
ATOM      3  C   UNL     1       1.918   7.341  19.434  0.00  0.00    +0.000 A 
ATOM      4  C   UNL     1       1.117   7.552  20.567  0.00  0.00    +0.000 A 
ATOM      5  C   UNL     1       0.602   8.823  20.846  0.00  0.00    +0.000 A 
ATOM      6 CL   UNL     1      -0.392   9.058  22.231  0.00  0.00    +0.000 Cl
ATOM      7  C   UNL     1       0.877   9.902  20.011  0.00  0.00    +0.000 A 
ATOM      8  C   UNL     1       1.678   9.713  18.890  0.00  0.00    +0.000 A 
ATOM      9  C   UNL     1       2.189   8.442  18.617  0.00  0.00    +0.000 A 
ATOM     10  N   UNL     1       3.027   8.287  17.526  0.00  0.00    +0.000 N 
ATOM     11  C   UNL     1       3.683   7.132  17.239  0.00  0.00    +0.000 A 
ATOM     12  O   UNL     1       4.584   7.181  16.409  0.00  0.00    +0.000 OA
ATOM     13  H   UNL     1       3.316   9.086  16.980  0.00  0.00    +0.000 HD
ENDROOT
BRANCH   2  14
ATOM     14  C   UNL     1       2.088   4.778  19.850  0.00  0.00    +0.000 A 
ATOM     15  C   UNL     1       2.649   4.615  21.129  0.00  0.00    +0.000 A 
ATOM     16  C   UNL     1       2.467   3.428  21.847  0.00  0.00    +0.000 A 
ATOM     17  C   UNL     1       1.713   2.389  21.304  0.00  0.00    +0.000 A 
ATOM     18  C   UNL     1       1.131   2.541  20.045  0.00  0.00    +0.000 A 
ATOM     19  C   UNL     1       1.321   3.724  19.319  0.00  0.00    +0.000 A 
ATOM     20 CL   UNL     1       0.621   3.811  17.739  0.00  0.00    +0.000 Cl
ENDBRANCH   2  14
BRANCH   1  21
ATOM     21  C   UNL     1       3.773   4.541  17.432  0.00  0.00    +0.000 C 
BRANCH  21  22
ATOM     22  C   UNL     1       5.241   4.126  17.648  0.00  0.00    +0.000 C 
BRANCH  22  23
ATOM     23  O   UNL     1       5.893   4.930  18.652  0.00  0.00    +0.000 OA
BRANCH  23  24
ATOM     24  C   UNL     1       7.169   5.269  18.404  0.00  0.00    +0.000 C 
ATOM     25  O   UNL     1       8.145   4.546  18.526  0.00  0.00    +0.000 OA
BRANCH  24  28
ATOM     26  C   UNL     1       8.314   8.917  18.004  0.00  0.00    +0.000 C 
ATOM     27  C   UNL     1       8.150   7.492  18.408  0.00  0.00    +0.000 C 
ATOM     28  C   UNL     1       7.202   6.670  17.928  0.00  0.00    +0.000 C 
ENDBRANCH  24  28
ENDBRANCH  23  24
ENDBRANCH  22  23
ENDBRANCH  21  22
ENDBRANCH   1  21
TORSDOF 6
ENDMDL
MODEL 5
REMARK VINA RESULT:      -7.3      3.033      6.212
REMARK  Name = 
REMARK  7 active torsions:
REMARK  status: ('A' for Active; 'I' for Inactive)
REMARK    1  A    between atoms: C_1  and  C_2
REMARK    2  A    between atoms: C_3  and  C_4
REMARK    3  A    between atoms: C_4  and  O_6
REMARK    4  A    between atoms: O_6  and  C_7
REMARK    5  A    between atoms: C_7  and  C_8
REMARK    6  A    between atoms: C_8  and  C_9
REMARK    7  A    between atoms: C_10  and  C_11
REMARK                            x       y       z     vdW  Elec       q    Type
REMARK                         _______ _______ _______ _____ _____    ______ ____
ROOT
ATOM      1  C   UNL     1       3.944   5.612  17.097  0.00  0.00    +0.000 A 
ATOM      2  C   UNL     1       3.121   5.657  18.186  0.00  0.00    +0.000 A 
ATOM      3  C   UNL     1       2.575   6.979  18.634  0.00  0.00    +0.000 A 
ATOM      4  C   UNL     1       1.761   7.120  19.769  0.00  0.00    +0.000 A 
ATOM      5  C   UNL     1       1.237   8.371  20.115  0.00  0.00    +0.000 A 
ATOM      6 CL   UNL     1       0.227   8.521  21.501  0.00  0.00    +0.000 Cl
ATOM      7  C   UNL     1       1.516   9.498  19.348  0.00  0.00    +0.000 A 
ATOM      8  C   UNL     1       2.330   9.377  18.227  0.00  0.00    +0.000 A 
ATOM      9  C   UNL     1       2.849   8.126  17.886  0.00  0.00    +0.000 A 
ATOM     10  N   UNL     1       3.699   8.038  16.796  0.00  0.00    +0.000 N 
ATOM     11  C   UNL     1       4.363   6.905  16.450  0.00  0.00    +0.000 A 
ATOM     12  O   UNL     1       5.273   7.005  15.633  0.00  0.00    +0.000 OA
ATOM     13  H   UNL     1       3.991   8.869  16.301  0.00  0.00    +0.000 HD
ENDROOT
BRANCH   2  14
ATOM     14  C   UNL     1       2.751   4.396  18.902  0.00  0.00    +0.000 A 
ATOM     15  C   UNL     1       1.419   3.950  18.832  0.00  0.00    +0.000 A 
ATOM     16  C   UNL     1       0.983   2.870  19.606  0.00  0.00    +0.000 A 
ATOM     17  C   UNL     1       1.871   2.209  20.452  0.00  0.00    +0.000 A 
ATOM     18  C   UNL     1       3.201   2.624  20.518  0.00  0.00    +0.000 A 
ATOM     19  C   UNL     1       3.639   3.713  19.754  0.00  0.00    +0.000 A 
ATOM     20 CL   UNL     1       5.287   4.207  19.939  0.00  0.00    +0.000 Cl
ENDBRANCH   2  14
BRANCH   1  21
ATOM     21  C   UNL     1       4.462   4.307  16.492  0.00  0.00    +0.000 C 
BRANCH  21  22
ATOM     22  C   UNL     1       5.975   4.093  16.291  0.00  0.00    +0.000 C 
BRANCH  22  23
ATOM     23  O   UNL     1       6.270   3.402  15.060  0.00  0.00    +0.000 OA
BRANCH  23  24
ATOM     24  C   UNL     1       6.617   4.172  14.015  0.00  0.00    +0.000 C 
ATOM     25  O   UNL     1       7.248   5.215  14.065  0.00  0.00    +0.000 OA
BRANCH  24  28
ATOM     26  C   UNL     1       4.212   3.109  11.210  0.00  0.00    +0.000 C 
ATOM     27  C   UNL     1       4.836   3.679  12.438  0.00  0.00    +0.000 C 
ATOM     28  C   UNL     1       6.128   3.531  12.774  0.00  0.00    +0.000 C 
ENDBRANCH  24  28
ENDBRANCH  23  24
ENDBRANCH  22  23
ENDBRANCH  21  22
ENDBRANCH   1  21
TORSDOF 6
ENDMDL
MODEL 6
REMARK VINA RESULT:      -7.3      3.134      6.484
REMARK  Name = 
REMARK  7 active torsions:
REMARK  status: ('A' for Active; 'I' for Inactive)
REMARK    1  A    between atoms: C_1  and  C_2
REMARK    2  A    between atoms: C_3  and  C_4
REMARK    3  A    between atoms: C_4  and  O_6
REMARK    4  A    between atoms: O_6  and  C_7
REMARK    5  A    between atoms: C_7  and  C_8
REMARK    6  A    between atoms: C_8  and  C_9
REMARK    7  A    between atoms: C_10  and  C_11
REMARK                            x       y       z     vdW  Elec       q    Type
REMARK                         _______ _______ _______ _____ _____    ______ ____
ROOT
ATOM      1  C   UNL     1       3.252   6.652  18.867  0.00  0.00    +0.000 A 
ATOM      2  C   UNL     1       3.983   5.508  18.716  0.00  0.00    +0.000 A 
ATOM      3  C   UNL     1       3.727   4.352  19.634  0.00  0.00    +0.000 A 
ATOM      4  C   UNL     1       4.464   3.158  19.578  0.00  0.00    +0.000 A 
ATOM      5  C   UNL     1       4.152   2.091  20.427  0.00  0.00    +0.000 A 
ATOM      6 CL   UNL     1       5.057   0.630  20.332  0.00  0.00    +0.000 Cl
ATOM      7  C   UNL     1       3.112   2.192  21.347  0.00  0.00    +0.000 A 
ATOM      8  C   UNL     1       2.380   3.371  21.423  0.00  0.00    +0.000 A 
ATOM      9  C   UNL     1       2.695   4.432  20.572  0.00  0.00    +0.000 A 
ATOM     10  N   UNL     1       1.987   5.616  20.701  0.00  0.00    +0.000 N 
ATOM     11  C   UNL     1       2.291   6.752  20.021  0.00  0.00    +0.000 A 
ATOM     12  O   UNL     1       1.767   7.796  20.395  0.00  0.00    +0.000 OA
ATOM     13  H   UNL     1       1.305   5.732  21.437  0.00  0.00    +0.000 HD
ENDROOT
BRANCH   2  14
ATOM     14  C   UNL     1       5.005   5.407  17.627  0.00  0.00    +0.000 A 
ATOM     15  C   UNL     1       4.568   5.125  16.321  0.00  0.00    +0.000 A 
ATOM     16  C   UNL     1       5.487   4.865  15.298  0.00  0.00    +0.000 A 
ATOM     17  C   UNL     1       6.855   4.894  15.560  0.00  0.00    +0.000 A 
ATOM     18  C   UNL     1       7.307   5.193  16.846  0.00  0.00    +0.000 A 
ATOM     19  C   UNL     1       6.390   5.442  17.875  0.00  0.00    +0.000 A 
ATOM     20 CL   UNL     1       7.027   5.742  19.455  0.00  0.00    +0.000 Cl
ENDBRANCH   2  14
BRANCH   1  21
ATOM     21  C   UNL     1       3.354   7.843  17.915  0.00  0.00    +0.000 C 
BRANCH  21  22
ATOM     22  C   UNL     1       2.077   8.534  17.398  0.00  0.00    +0.000 C 
BRANCH  22  23
ATOM     23  O   UNL     1       2.086   9.954  17.647  0.00  0.00    +0.000 OA
BRANCH  23  24
ATOM     24  C   UNL     1       1.081  10.431  18.400  0.00  0.00    +0.000 C 
ATOM     25  O   UNL     1       1.175  11.273  19.278  0.00  0.00    +0.000 OA
BRANCH  24  28
ATOM     26  C   UNL     1      -2.673   9.926  17.745  0.00  0.00    +0.000 C 
ATOM     27  C   UNL     1      -1.335  10.445  18.146  0.00  0.00    +0.000 C 
ATOM     28  C   UNL     1      -0.179   9.783  17.973  0.00  0.00    +0.000 C 
ENDBRANCH  24  28
ENDBRANCH  23  24
ENDBRANCH  22  23
ENDBRANCH  21  22
ENDBRANCH   1  21
TORSDOF 6
ENDMDL
MODEL 7
REMARK VINA RESULT:      -7.2      3.194      5.893
REMARK  Name = 
REMARK  7 active torsions:
REMARK  status: ('A' for Active; 'I' for Inactive)
REMARK    1  A    between atoms: C_1  and  C_2
REMARK    2  A    between atoms: C_3  and  C_4
REMARK    3  A    between atoms: C_4  and  O_6
REMARK    4  A    between atoms: O_6  and  C_7
REMARK    5  A    between atoms: C_7  and  C_8
REMARK    6  A    between atoms: C_8  and  C_9
REMARK    7  A    between atoms: C_10  and  C_11
REMARK                            x       y       z     vdW  Elec       q    Type
REMARK                         _______ _______ _______ _____ _____    ______ ____
ROOT
ATOM      1  C   UNL     1       3.215   5.851  17.990  0.00  0.00    +0.000 A 
ATOM      2  C   UNL     1       2.419   5.974  19.093  0.00  0.00    +0.000 A 
ATOM      3  C   UNL     1       1.925   7.332  19.489  0.00  0.00    +0.000 A 
ATOM      4  C   UNL     1       1.141   7.552  20.633  0.00  0.00    +0.000 A 
ATOM      5  C   UNL     1       0.665   8.833  20.932  0.00  0.00    +0.000 A 
ATOM      6 CL   UNL     1      -0.307   9.080  22.330  0.00  0.00    +0.000 Cl
ATOM      7  C   UNL     1       0.962   9.914  20.106  0.00  0.00    +0.000 A 
ATOM      8  C   UNL     1       1.746   9.715  18.975  0.00  0.00    +0.000 A 
ATOM      9  C   UNL     1       2.217   8.434  18.683  0.00  0.00    +0.000 A 
ATOM     10  N   UNL     1       3.040   8.268  17.581  0.00  0.00    +0.000 N 
ATOM     11  C   UNL     1       3.660   7.099  17.274  0.00  0.00    +0.000 A 
ATOM     12  O   UNL     1       4.554   7.131  16.434  0.00  0.00    +0.000 OA
ATOM     13  H   UNL     1       3.346   9.064  17.040  0.00  0.00    +0.000 HD
ENDROOT
BRANCH   2  14
ATOM     14  C   UNL     1       2.026   4.760  19.875  0.00  0.00    +0.000 A 
ATOM     15  C   UNL     1       2.541   4.602  21.174  0.00  0.00    +0.000 A 
ATOM     16  C   UNL     1       2.335   3.416  21.888  0.00  0.00    +0.000 A 
ATOM     17  C   UNL     1       1.603   2.375  21.321  0.00  0.00    +0.000 A 
ATOM     18  C   UNL     1       1.067   2.522  20.042  0.00  0.00    +0.000 A 
ATOM     19  C   UNL     1       1.280   3.703  19.319  0.00  0.00    +0.000 A 
ATOM     20 CL   UNL     1       0.638   3.784  17.716  0.00  0.00    +0.000 Cl
ENDBRANCH   2  14
BRANCH   1  21
ATOM     21  C   UNL     1       3.678   4.504  17.436  0.00  0.00    +0.000 C 
BRANCH  21  22
ATOM     22  C   UNL     1       5.141   4.054  17.615  0.00  0.00    +0.000 C 
BRANCH  22  23
ATOM     23  O   UNL     1       5.859   4.020  16.366  0.00  0.00    +0.000 OA
BRANCH  23  24
ATOM     24  C   UNL     1       7.015   4.703  16.326  0.00  0.00    +0.000 C 
ATOM     25  O   UNL     1       7.476   5.286  15.358  0.00  0.00    +0.000 OA
BRANCH  24  28
ATOM     26  C   UNL     1       8.182   5.864  19.800  0.00  0.00    +0.000 C 
ATOM     27  C   UNL     1       7.615   5.769  18.425  0.00  0.00    +0.000 C 
ATOM     28  C   UNL     1       7.636   4.659  17.669  0.00  0.00    +0.000 C 
ENDBRANCH  24  28
ENDBRANCH  23  24
ENDBRANCH  22  23
ENDBRANCH  21  22
ENDBRANCH   1  21
TORSDOF 6
ENDMDL
MODEL 8
REMARK VINA RESULT:      -7.2      3.159      5.901
REMARK  Name = 
REMARK  7 active torsions:
REMARK  status: ('A' for Active; 'I' for Inactive)
REMARK    1  A    between atoms: C_1  and  C_2
REMARK    2  A    between atoms: C_3  and  C_4
REMARK    3  A    between atoms: C_4  and  O_6
REMARK    4  A    between atoms: O_6  and  C_7
REMARK    5  A    between atoms: C_7  and  C_8
REMARK    6  A    between atoms: C_8  and  C_9
REMARK    7  A    between atoms: C_10  and  C_11
REMARK                            x       y       z     vdW  Elec       q    Type
REMARK                         _______ _______ _______ _____ _____    ______ ____
ROOT
ATOM      1  C   UNL     1       4.469   5.406  16.823  0.00  0.00    +0.000 A 
ATOM      2  C   UNL     1       3.757   5.397  17.989  0.00  0.00    +0.000 A 
ATOM      3  C   UNL     1       3.069   6.651  18.434  0.00  0.00    +0.000 A 
ATOM      4  C   UNL     1       2.356   6.741  19.640  0.00  0.00    +0.000 A 
ATOM      5  C   UNL     1       1.691   7.922  19.986  0.00  0.00    +0.000 A 
ATOM      6 CL   UNL     1       0.809   8.007  21.461  0.00  0.00    +0.000 Cl
ATOM      7  C   UNL     1       1.727   9.032  19.146  0.00  0.00    +0.000 A 
ATOM      8  C   UNL     1       2.438   8.964  17.953  0.00  0.00    +0.000 A 
ATOM      9  C   UNL     1       3.099   7.782  17.614  0.00  0.00    +0.000 A 
ATOM     10  N   UNL     1       3.844   7.753  16.447  0.00  0.00    +0.000 N 
ATOM     11  C   UNL     1       4.630   6.706  16.082  0.00  0.00    +0.000 A 
ATOM     12  O   UNL     1       5.433   6.887  15.172  0.00  0.00    +0.000 OA
ATOM     13  H   UNL     1       3.962   8.586  15.889  0.00  0.00    +0.000 HD
ENDROOT
BRANCH   2  14
ATOM     14  C   UNL     1       3.646   4.139  18.792  0.00  0.00    +0.000 A 
ATOM     15  C   UNL     1       4.764   3.714  19.532  0.00  0.00    +0.000 A 
ATOM     16  C   UNL     1       4.770   2.469  20.171  0.00  0.00    +0.000 A 
ATOM     17  C   UNL     1       3.657   1.635  20.092  0.00  0.00    +0.000 A 
ATOM     18  C   UNL     1       2.531   2.049  19.380  0.00  0.00    +0.000 A 
ATOM     19  C   UNL     1       2.525   3.289  18.729  0.00  0.00    +0.000 A 
ATOM     20 CL   UNL     1       1.117   3.704  17.814  0.00  0.00    +0.000 Cl
ENDBRANCH   2  14
BRANCH   1  21
ATOM     21  C   UNL     1       5.112   4.155  16.224  0.00  0.00    +0.000 C 
BRANCH  21  22
ATOM     22  C   UNL     1       6.608   4.153  15.857  0.00  0.00    +0.000 C 
BRANCH  22  23
ATOM     23  O   UNL     1       7.311   5.278  16.422  0.00  0.00    +0.000 OA
BRANCH  23  24
ATOM     24  C   UNL     1       7.585   5.207  17.736  0.00  0.00    +0.000 C 
ATOM     25  O   UNL     1       7.812   4.191  18.372  0.00  0.00    +0.000 OA
BRANCH  24  28
ATOM     26  C   UNL     1       7.932   9.033  17.892  0.00  0.00    +0.000 C 
ATOM     27  C   UNL     1       7.904   7.602  17.476  0.00  0.00    +0.000 C 
ATOM     28  C   UNL     1       7.594   6.579  18.291  0.00  0.00    +0.000 C 
ENDBRANCH  24  28
ENDBRANCH  23  24
ENDBRANCH  22  23
ENDBRANCH  21  22
ENDBRANCH   1  21
TORSDOF 6
ENDMDL
MODEL 9
REMARK VINA RESULT:      -7.1      3.051      5.914
REMARK  Name = 
REMARK  7 active torsions:
REMARK  status: ('A' for Active; 'I' for Inactive)
REMARK    1  A    between atoms: C_1  and  C_2
REMARK    2  A    between atoms: C_3  and  C_4
REMARK    3  A    between atoms: C_4  and  O_6
REMARK    4  A    between atoms: O_6  and  C_7
REMARK    5  A    between atoms: C_7  and  C_8
REMARK    6  A    between atoms: C_8  and  C_9
REMARK    7  A    between atoms: C_10  and  C_11
REMARK                            x       y       z     vdW  Elec       q    Type
REMARK                         _______ _______ _______ _____ _____    ______ ____
ROOT
ATOM      1  C   UNL     1       3.229   5.964  18.157  0.00  0.00    +0.000 A 
ATOM      2  C   UNL     1       2.391   6.041  19.233  0.00  0.00    +0.000 A 
ATOM      3  C   UNL     1       1.827   7.372  19.627  0.00  0.00    +0.000 A 
ATOM      4  C   UNL     1       0.997   7.546  20.745  0.00  0.00    +0.000 A 
ATOM      5  C   UNL     1       0.458   8.803  21.041  0.00  0.00    +0.000 A 
ATOM      6 CL   UNL     1      -0.570   8.993  22.408  0.00  0.00    +0.000 Cl
ATOM      7  C   UNL     1       0.739   9.905  20.239  0.00  0.00    +0.000 A 
ATOM      8  C   UNL     1       1.569   9.753  19.134  0.00  0.00    +0.000 A 
ATOM      9  C   UNL     1       2.102   8.495  18.843  0.00  0.00    +0.000 A 
ATOM     10  N   UNL     1       2.968   8.377  17.768  0.00  0.00    +0.000 N 
ATOM     11  C   UNL     1       3.645   7.238  17.470  0.00  0.00    +0.000 A 
ATOM     12  O   UNL     1       4.565   7.318  16.662  0.00  0.00    +0.000 OA
ATOM     13  H   UNL     1       3.259   9.192  17.248  0.00  0.00    +0.000 HD
ENDROOT
BRANCH   2  14
ATOM     14  C   UNL     1       2.022   4.802  19.987  0.00  0.00    +0.000 A 
ATOM     15  C   UNL     1       2.530   4.630  21.287  0.00  0.00    +0.000 A 
ATOM     16  C   UNL     1       2.348   3.426  21.975  0.00  0.00    +0.000 A 
ATOM     17  C   UNL     1       1.646   2.379  21.382  0.00  0.00    +0.000 A 
ATOM     18  C   UNL     1       1.117   2.538  20.101  0.00  0.00    +0.000 A 
ATOM     19  C   UNL     1       1.306   3.738  19.404  0.00  0.00    +0.000 A 
ATOM     20 CL   UNL     1       0.675   3.836  17.797  0.00  0.00    +0.000 Cl
ENDBRANCH   2  14
BRANCH   1  21
ATOM     21  C   UNL     1       3.765   4.644  17.604  0.00  0.00    +0.000 C 
BRANCH  21  22
ATOM     22  C   UNL     1       5.054   4.028  18.184  0.00  0.00    +0.000 C 
BRANCH  22  23
ATOM     23  O   UNL     1       5.869   5.005  18.860  0.00  0.00    +0.000 OA
BRANCH  23  24
ATOM     24  C   UNL     1       7.047   5.297  18.284  0.00  0.00    +0.000 C 
ATOM     25  O   UNL     1       7.919   6.015  18.746  0.00  0.00    +0.000 OA
BRANCH  24  28
ATOM     26  C   UNL     1       7.100   4.694  14.487  0.00  0.00    +0.000 C 
ATOM     27  C   UNL     1       7.014   5.281  15.854  0.00  0.00    +0.000 C 
ATOM     28  C   UNL     1       7.132   4.578  16.993  0.00  0.00    +0.000 C 
ENDBRANCH  24  28
ENDBRANCH  23  24
ENDBRANCH  22  23
ENDBRANCH  21  22
ENDBRANCH   1  21
TORSDOF 6
ENDMDL
