MODEL 1
REMARK VINA RESULT:      -7.0      0.000      0.000
REMARK  Name = 
REMARK  5 active torsions:
REMARK  status: ('A' for Active; 'I' for Inactive)
REMARK    1  A    between atoms: C_2  and  C_11
REMARK    2  A    between atoms: N_3  and  C_4
REMARK    3  A    between atoms: C_4  and  C_5
REMARK    4  A    between atoms: C_5  and  N_6
REMARK    5  A    between atoms: C_13  and  C_14
REMARK                            x       y       z     vdW  Elec       q    Type
REMARK                         _______ _______ _______ _____ _____    ______ ____
ROOT
ATOM      1  O   UNL     1       7.522   4.722  17.049  0.00  0.00    +0.000 OA
ATOM      2  C   UNL     1       6.511   4.804  17.737  0.00  0.00    +0.000 C 
ATOM      3  N   UNL     1       5.990   3.689  18.343  0.00  0.00    +0.000 N 
ATOM      4  H   UNL     1       6.516   2.841  18.163  0.00  0.00    +0.000 HD
ENDROOT
BRANCH   2   5
ATOM      5  C   UNL     1       5.825   6.105  17.951  0.00  0.00    +0.000 C 
ATOM      6  C   UNL     1       5.722   7.113  16.841  0.00  0.00    +0.000 C 
ATOM      7  C   UNL     1       4.482   6.373  17.294  0.00  0.00    +0.000 C 
BRANCH   7   8
ATOM      8  C   UNL     1       3.416   7.091  18.090  0.00  0.00    +0.000 A 
ATOM      9  C   UNL     1       2.963   6.584  19.317  0.00  0.00    +0.000 A 
ATOM     10  C   UNL     1       1.972   7.239  20.053  0.00  0.00    +0.000 A 
ATOM     11  C   UNL     1       1.415   8.422  19.575  0.00  0.00    +0.000 A 
ATOM     12  C   UNL     1       1.855   8.953  18.365  0.00  0.00    +0.000 A 
ATOM     13  C   UNL     1       2.849   8.295  17.640  0.00  0.00    +0.000 A 
ENDBRANCH   7   8
ENDBRANCH   2   5
BRANCH   3  14
ATOM     14  C   UNL     1       4.851   3.625  19.245  0.00  0.00    +0.000 C 
BRANCH  14  15
ATOM     15  C   UNL     1       3.601   3.015  18.575  0.00  0.00    +0.000 C 
BRANCH  15  16
ATOM     16  N   UNL     1       2.754   2.244  19.503  0.00  0.00    +0.000 NA
ATOM     17  C   UNL     1       1.330   2.355  19.142  0.00  0.00    +0.000 C 
ATOM     18  C   UNL     1       0.809   3.543  19.927  0.00  0.00    +0.000 C 
ATOM     19  C   UNL     1       1.542   3.422  21.245  0.00  0.00    +0.000 C 
ATOM     20  C   UNL     1       2.848   2.717  20.899  0.00  0.00    +0.000 C 
ENDBRANCH  15  16
ENDBRANCH  14  15
ENDBRANCH   3  14
TORSDOF 5
ENDMDL
MODEL 2
REMARK VINA RESULT:      -6.8      1.854      4.435
REMARK  Name = 
REMARK  5 active torsions:
REMARK  status: ('A' for Active; 'I' for Inactive)
REMARK    1  A    between atoms: C_2  and  C_11
REMARK    2  A    between atoms: N_3  and  C_4
REMARK    3  A    between atoms: C_4  and  C_5
REMARK    4  A    between atoms: C_5  and  N_6
REMARK    5  A    between atoms: C_13  and  C_14
REMARK                            x       y       z     vdW  Elec       q    Type
REMARK                         _______ _______ _______ _____ _____    ______ ____
ROOT
ATOM      1  O   UNL     1       3.719   2.400  20.527  0.00  0.00    +0.000 OA
ATOM      2  C   UNL     1       3.599   3.121  19.543  0.00  0.00    +0.000 C 
ATOM      3  N   UNL     1       4.433   2.971  18.464  0.00  0.00    +0.000 N 
ATOM      4  H   UNL     1       5.117   2.232  18.575  0.00  0.00    +0.000 HD
ENDROOT
BRANCH   2   5
ATOM      5  C   UNL     1       2.546   4.169  19.477  0.00  0.00    +0.000 C 
ATOM      6  C   UNL     1       1.617   4.401  20.635  0.00  0.00    +0.000 C 
ATOM      7  C   UNL     1       2.677   5.432  20.309  0.00  0.00    +0.000 C 
BRANCH   7   8
ATOM      8  C   UNL     1       2.288   6.754  19.688  0.00  0.00    +0.000 A 
ATOM      9  C   UNL     1       2.547   7.023  18.336  0.00  0.00    +0.000 A 
ATOM     10  C   UNL     1       2.196   8.246  17.759  0.00  0.00    +0.000 A 
ATOM     11  C   UNL     1       1.572   9.227  18.525  0.00  0.00    +0.000 A 
ATOM     12  C   UNL     1       1.293   8.980  19.867  0.00  0.00    +0.000 A 
ATOM     13  C   UNL     1       1.641   7.754  20.434  0.00  0.00    +0.000 A 
ENDBRANCH   7   8
ENDBRANCH   2   5
BRANCH   3  14
ATOM     14  C   UNL     1       4.378   3.687  17.200  0.00  0.00    +0.000 C 
BRANCH  14  15
ATOM     15  C   UNL     1       5.604   4.602  16.986  0.00  0.00    +0.000 C 
BRANCH  15  16
ATOM     16  N   UNL     1       5.687   5.710  17.955  0.00  0.00    +0.000 NA
ATOM     17  C   UNL     1       6.046   6.974  17.289  0.00  0.00    +0.000 C 
ATOM     18  C   UNL     1       7.560   7.040  17.344  0.00  0.00    +0.000 C 
ATOM     19  C   UNL     1       7.872   6.456  18.705  0.00  0.00    +0.000 C 
ATOM     20  C   UNL     1       6.721   5.497  18.987  0.00  0.00    +0.000 C 
ENDBRANCH  15  16
ENDBRANCH  14  15
ENDBRANCH   3  14
TORSDOF 5
ENDMDL
MODEL 3
REMARK VINA RESULT:      -6.6      2.805      4.804
REMARK  Name = 
REMARK  5 active torsions:
REMARK  status: ('A' for Active; 'I' for Inactive)
REMARK    1  A    between atoms: C_2  and  C_11
REMARK    2  A    between atoms: N_3  and  C_4
REMARK    3  A    between atoms: C_4  and  C_5
REMARK    4  A    between atoms: C_5  and  N_6
REMARK    5  A    between atoms: C_13  and  C_14
REMARK                            x       y       z     vdW  Elec       q    Type
REMARK                         _______ _______ _______ _____ _____    ______ ____
ROOT
ATOM      1  O   UNL     1       6.770   4.941  19.245  0.00  0.00    +0.000 OA
ATOM      2  C   UNL     1       5.992   4.406  18.464  0.00  0.00    +0.000 C 
ATOM      3  N   UNL     1       5.264   3.309  18.849  0.00  0.00    +0.000 N 
ATOM      4  H   UNL     1       5.438   3.016  19.804  0.00  0.00    +0.000 HD
ENDROOT
BRANCH   2   5
ATOM      5  C   UNL     1       5.799   4.928  17.085  0.00  0.00    +0.000 C 
ATOM      6  C   UNL     1       6.195   6.333  16.732  0.00  0.00    +0.000 C 
ATOM      7  C   UNL     1       7.001   5.173  16.190  0.00  0.00    +0.000 C 
BRANCH   7   8
ATOM      8  C   UNL     1       6.906   4.796  14.730  0.00  0.00    +0.000 A 
ATOM      9  C   UNL     1       7.735   5.398  13.771  0.00  0.00    +0.000 A 
ATOM     10  C   UNL     1       7.646   5.060  12.418  0.00  0.00    +0.000 A 
ATOM     11  C   UNL     1       6.725   4.104  11.996  0.00  0.00    +0.000 A 
ATOM     12  C   UNL     1       5.899   3.484  12.929  0.00  0.00    +0.000 A 
ATOM     13  C   UNL     1       5.998   3.823  14.279  0.00  0.00    +0.000 A 
ENDBRANCH   7   8
ENDBRANCH   2   5
BRANCH   3  14
ATOM     14  C   UNL     1       4.252   2.605  18.078  0.00  0.00    +0.000 C 
BRANCH  14  15
ATOM     15  C   UNL     1       3.141   2.006  18.968  0.00  0.00    +0.000 C 
BRANCH  15  16
ATOM     16  N   UNL     1       1.825   2.640  18.771  0.00  0.00    +0.000 NA
ATOM     17  C   UNL     1       1.966   4.001  18.224  0.00  0.00    +0.000 C 
ATOM     18  C   UNL     1       2.034   4.914  19.432  0.00  0.00    +0.000 C 
ATOM     19  C   UNL     1       1.053   4.275  20.391  0.00  0.00    +0.000 C 
ATOM     20  C   UNL     1       1.066   2.795  20.029  0.00  0.00    +0.000 C 
ENDBRANCH  15  16
ENDBRANCH  14  15
ENDBRANCH   3  14
TORSDOF 5
ENDMDL
MODEL 4
REMARK VINA RESULT:      -6.6      1.911      4.562
REMARK  Name = 
REMARK  5 active torsions:
REMARK  status: ('A' for Active; 'I' for Inactive)
REMARK    1  A    between atoms: C_2  and  C_11
REMARK    2  A    between atoms: N_3  and  C_4
REMARK    3  A    between atoms: C_4  and  C_5
REMARK    4  A    between atoms: C_5  and  N_6
REMARK    5  A    between atoms: C_13  and  C_14
REMARK                            x       y       z     vdW  Elec       q    Type
REMARK                         _______ _______ _______ _____ _____    ______ ____
ROOT
ATOM      1  O   UNL     1       3.452   2.164  21.035  0.00  0.00    +0.000 OA
ATOM      2  C   UNL     1       3.618   2.985  20.140  0.00  0.00    +0.000 C 
ATOM      3  N   UNL     1       4.771   2.982  19.397  0.00  0.00    +0.000 N 
ATOM      4  H   UNL     1       5.427   2.256  19.663  0.00  0.00    +0.000 HD
ENDROOT
BRANCH   2   5
ATOM      5  C   UNL     1       2.579   4.000  19.820  0.00  0.00    +0.000 C 
ATOM      6  C   UNL     1       1.402   4.211  20.730  0.00  0.00    +0.000 C 
ATOM      7  C   UNL     1       2.479   5.271  20.645  0.00  0.00    +0.000 C 
BRANCH   7   8
ATOM      8  C   UNL     1       2.206   6.577  19.935  0.00  0.00    +0.000 A 
ATOM      9  C   UNL     1       2.646   6.793  18.620  0.00  0.00    +0.000 A 
ATOM     10  C   UNL     1       2.403   8.001  17.962  0.00  0.00    +0.000 A 
ATOM     11  C   UNL     1       1.708   9.020  18.607  0.00  0.00    +0.000 A 
ATOM     12  C   UNL     1       1.251   8.828  19.908  0.00  0.00    +0.000 A 
ATOM     13  C   UNL     1       1.492   7.616  20.556  0.00  0.00    +0.000 A 
ENDBRANCH   7   8
ENDBRANCH   2   5
BRANCH   3  14
ATOM     14  C   UNL     1       5.092   3.831  18.261  0.00  0.00    +0.000 C 
BRANCH  14  15
ATOM     15  C   UNL     1       5.991   5.024  18.651  0.00  0.00    +0.000 C 
BRANCH  15  16
ATOM     16  N   UNL     1       6.773   5.564  17.524  0.00  0.00    +0.000 NA
ATOM     17  C   UNL     1       6.256   6.876  17.097  0.00  0.00    +0.000 C 
ATOM     18  C   UNL     1       5.233   6.573  16.020  0.00  0.00    +0.000 C 
ATOM     19  C   UNL     1       5.861   5.411  15.280  0.00  0.00    +0.000 C 
ATOM     20  C   UNL     1       6.720   4.707  16.323  0.00  0.00    +0.000 C 
ENDBRANCH  15  16
ENDBRANCH  14  15
ENDBRANCH   3  14
TORSDOF 5
ENDMDL
MODEL 5
REMARK VINA RESULT:      -6.6      2.363      4.280
REMARK  Name = 
REMARK  5 active torsions:
REMARK  status: ('A' for Active; 'I' for Inactive)
REMARK    1  A    between atoms: C_2  and  C_11
REMARK    2  A    between atoms: N_3  and  C_4
REMARK    3  A    between atoms: C_4  and  C_5
REMARK    4  A    between atoms: C_5  and  N_6
REMARK    5  A    between atoms: C_13  and  C_14
REMARK                            x       y       z     vdW  Elec       q    Type
REMARK                         _______ _______ _______ _____ _____    ______ ____
ROOT
ATOM      1  O   UNL     1       1.713   8.286  20.025  0.00  0.00    +0.000 OA
ATOM      2  C   UNL     1       2.150   7.178  19.740  0.00  0.00    +0.000 C 
ATOM      3  N   UNL     1       2.096   6.153  20.650  0.00  0.00    +0.000 N 
ATOM      4  H   UNL     1       1.671   6.411  21.533  0.00  0.00    +0.000 HD
ENDROOT
BRANCH   2   5
ATOM      5  C   UNL     1       2.741   6.901  18.404  0.00  0.00    +0.000 C 
ATOM      6  C   UNL     1       3.078   8.022  17.463  0.00  0.00    +0.000 C 
ATOM      7  C   UNL     1       4.194   7.246  18.129  0.00  0.00    +0.000 C 
BRANCH   7   8
ATOM      8  C   UNL     1       5.030   6.276  17.326  0.00  0.00    +0.000 A 
ATOM      9  C   UNL     1       5.842   5.323  17.958  0.00  0.00    +0.000 A 
ATOM     10  C   UNL     1       6.623   4.429  17.221  0.00  0.00    +0.000 A 
ATOM     11  C   UNL     1       6.604   4.468  15.830  0.00  0.00    +0.000 A 
ATOM     12  C   UNL     1       5.797   5.397  15.177  0.00  0.00    +0.000 A 
ATOM     13  C   UNL     1       5.016   6.282  15.921  0.00  0.00    +0.000 A 
ENDBRANCH   7   8
ENDBRANCH   2   5
BRANCH   3  14
ATOM     14  C   UNL     1       2.500   4.771  20.448  0.00  0.00    +0.000 C 
BRANCH  14  15
ATOM     15  C   UNL     1       1.294   3.807  20.380  0.00  0.00    +0.000 C 
BRANCH  15  16
ATOM     16  N   UNL     1       1.112   3.187  19.055  0.00  0.00    +0.000 NA
ATOM     17  C   UNL     1       1.583   1.790  19.052  0.00  0.00    +0.000 C 
ATOM     18  C   UNL     1       3.037   1.858  18.631  0.00  0.00    +0.000 C 
ATOM     19  C   UNL     1       3.034   2.956  17.590  0.00  0.00    +0.000 C 
ATOM     20  C   UNL     1       1.878   3.866  17.990  0.00  0.00    +0.000 C 
ENDBRANCH  15  16
ENDBRANCH  14  15
ENDBRANCH   3  14
TORSDOF 5
ENDMDL
MODEL 6
REMARK VINA RESULT:      -6.6      1.988      4.519
REMARK  Name = 
REMARK  5 active torsions:
REMARK  status: ('A' for Active; 'I' for Inactive)
REMARK    1  A    between atoms: C_2  and  C_11
REMARK    2  A    between atoms: N_3  and  C_4
REMARK    3  A    between atoms: C_4  and  C_5
REMARK    4  A    between atoms: C_5  and  N_6
REMARK    5  A    between atoms: C_13  and  C_14
REMARK                            x       y       z     vdW  Elec       q    Type
REMARK                         _______ _______ _______ _____ _____    ______ ____
ROOT
ATOM      1  O   UNL     1       3.153   2.371  20.121  0.00  0.00    +0.000 OA
ATOM      2  C   UNL     1       3.125   3.275  19.294  0.00  0.00    +0.000 C 
ATOM      3  N   UNL     1       3.963   3.252  18.209  0.00  0.00    +0.000 N 
ATOM      4  H   UNL     1       4.569   2.441  18.176  0.00  0.00    +0.000 HD
ENDROOT
BRANCH   2   5
ATOM      5  C   UNL     1       2.181   4.417  19.429  0.00  0.00    +0.000 C 
ATOM      6  C   UNL     1       1.554   4.745  20.754  0.00  0.00    +0.000 C 
ATOM      7  C   UNL     1       2.604   5.669  20.177  0.00  0.00    +0.000 C 
BRANCH   7   8
ATOM      8  C   UNL     1       2.208   7.016  19.618  0.00  0.00    +0.000 A 
ATOM      9  C   UNL     1       1.541   7.962  20.412  0.00  0.00    +0.000 A 
ATOM     10  C   UNL     1       1.166   9.206  19.898  0.00  0.00    +0.000 A 
ATOM     11  C   UNL     1       1.456   9.532  18.576  0.00  0.00    +0.000 A 
ATOM     12  C   UNL     1       2.128   8.615  17.771  0.00  0.00    +0.000 A 
ATOM     13  C   UNL     1       2.504   7.378  18.293  0.00  0.00    +0.000 A 
ENDBRANCH   7   8
ENDBRANCH   2   5
BRANCH   3  14
ATOM     14  C   UNL     1       4.005   4.199  17.106  0.00  0.00    +0.000 C 
BRANCH  14  15
ATOM     15  C   UNL     1       5.193   3.942  16.152  0.00  0.00    +0.000 C 
BRANCH  15  16
ATOM     16  N   UNL     1       5.814   5.178  15.642  0.00  0.00    +0.000 NA
ATOM     17  C   UNL     1       7.229   5.267  16.043  0.00  0.00    +0.000 C 
ATOM     18  C   UNL     1       7.226   6.017  17.360  0.00  0.00    +0.000 C 
ATOM     19  C   UNL     1       6.135   7.047  17.157  0.00  0.00    +0.000 C 
ATOM     20  C   UNL     1       5.176   6.403  16.163  0.00  0.00    +0.000 C 
ENDBRANCH  15  16
ENDBRANCH  14  15
ENDBRANCH   3  14
TORSDOF 5
ENDMDL
MODEL 7
REMARK VINA RESULT:      -6.5      2.621      4.771
REMARK  Name = 
REMARK  5 active torsions:
REMARK  status: ('A' for Active; 'I' for Inactive)
REMARK    1  A    between atoms: C_2  and  C_11
REMARK    2  A    between atoms: N_3  and  C_4
REMARK    3  A    between atoms: C_4  and  C_5
REMARK    4  A    between atoms: C_5  and  N_6
REMARK    5  A    between atoms: C_13  and  C_14
REMARK                            x       y       z     vdW  Elec       q    Type
REMARK                         _______ _______ _______ _____ _____    ______ ____
ROOT
ATOM      1  O   UNL     1       6.725   5.215  19.892  0.00  0.00    +0.000 OA
ATOM      2  C   UNL     1       5.822   5.447  19.098  0.00  0.00    +0.000 C 
ATOM      3  N   UNL     1       4.511   5.388  19.498  0.00  0.00    +0.000 N 
ATOM      4  H   UNL     1       4.391   5.146  20.475  0.00  0.00    +0.000 HD
ENDROOT
BRANCH   2   5
ATOM      5  C   UNL     1       6.110   5.812  17.685  0.00  0.00    +0.000 C 
ATOM      6  C   UNL     1       7.398   6.486  17.311  0.00  0.00    +0.000 C 
ATOM      7  C   UNL     1       7.164   5.048  16.903  0.00  0.00    +0.000 C 
BRANCH   7   8
ATOM      8  C   UNL     1       6.886   4.703  15.458  0.00  0.00    +0.000 A 
ATOM      9  C   UNL     1       7.680   5.221  14.424  0.00  0.00    +0.000 A 
ATOM     10  C   UNL     1       7.424   4.911  13.086  0.00  0.00    +0.000 A 
ATOM     11  C   UNL     1       6.366   4.069  12.755  0.00  0.00    +0.000 A 
ATOM     12  C   UNL     1       5.570   3.531  13.763  0.00  0.00    +0.000 A 
ATOM     13  C   UNL     1       5.837   3.841  15.097  0.00  0.00    +0.000 A 
ENDBRANCH   7   8
ENDBRANCH   2   5
BRANCH   3  14
ATOM     14  C   UNL     1       3.332   5.705  18.708  0.00  0.00    +0.000 C 
BRANCH  14  15
ATOM     15  C   UNL     1       2.053   5.041  19.264  0.00  0.00    +0.000 C 
BRANCH  15  16
ATOM     16  N   UNL     1       1.493   4.007  18.374  0.00  0.00    +0.000 NA
ATOM     17  C   UNL     1       1.142   2.790  19.127  0.00  0.00    +0.000 C 
ATOM     18  C   UNL     1       2.380   1.917  19.078  0.00  0.00    +0.000 C 
ATOM     19  C   UNL     1       2.907   2.160  17.680  0.00  0.00    +0.000 C 
ATOM     20  C   UNL     1       2.442   3.569  17.331  0.00  0.00    +0.000 C 
ENDBRANCH  15  16
ENDBRANCH  14  15
ENDBRANCH   3  14
TORSDOF 5
ENDMDL
MODEL 8
REMARK VINA RESULT:      -6.5      1.961      4.540
REMARK  Name = 
REMARK  5 active torsions:
REMARK  status: ('A' for Active; 'I' for Inactive)
REMARK    1  A    between atoms: C_2  and  C_11
REMARK    2  A    between atoms: N_3  and  C_4
REMARK    3  A    between atoms: C_4  and  C_5
REMARK    4  A    between atoms: C_5  and  N_6
REMARK    5  A    between atoms: C_13  and  C_14
REMARK                            x       y       z     vdW  Elec       q    Type
REMARK                         _______ _______ _______ _____ _____    ______ ____
ROOT
ATOM      1  O   UNL     1       3.315   2.283  21.115  0.00  0.00    +0.000 OA
ATOM      2  C   UNL     1       3.498   3.045  20.173  0.00  0.00    +0.000 C 
ATOM      3  N   UNL     1       4.633   2.946  19.409  0.00  0.00    +0.000 N 
ATOM      4  H   UNL     1       5.261   2.206  19.702  0.00  0.00    +0.000 HD
ENDROOT
BRANCH   2   5
ATOM      5  C   UNL     1       2.501   4.089  19.818  0.00  0.00    +0.000 C 
ATOM      6  C   UNL     1       1.344   4.391  20.727  0.00  0.00    +0.000 C 
ATOM      7  C   UNL     1       2.464   5.398  20.586  0.00  0.00    +0.000 C 
BRANCH   7   8
ATOM      8  C   UNL     1       2.241   6.683  19.822  0.00  0.00    +0.000 A 
ATOM      9  C   UNL     1       1.516   7.745  20.384  0.00  0.00    +0.000 A 
ATOM     10  C   UNL     1       1.300   8.931  19.679  0.00  0.00    +0.000 A 
ATOM     11  C   UNL     1       1.810   9.081  18.392  0.00  0.00    +0.000 A 
ATOM     12  C   UNL     1       2.543   8.047  17.815  0.00  0.00    +0.000 A 
ATOM     13  C   UNL     1       2.759   6.868  18.529  0.00  0.00    +0.000 A 
ENDBRANCH   7   8
ENDBRANCH   2   5
BRANCH   3  14
ATOM     14  C   UNL     1       4.968   3.716  18.222  0.00  0.00    +0.000 C 
BRANCH  14  15
ATOM     15  C   UNL     1       6.223   4.594  18.421  0.00  0.00    +0.000 C 
BRANCH  15  16
ATOM     16  N   UNL     1       6.929   4.904  17.164  0.00  0.00    +0.000 NA
ATOM     17  C   UNL     1       6.823   6.336  16.834  0.00  0.00    +0.000 C 
ATOM     18  C   UNL     1       5.584   6.457  15.968  0.00  0.00    +0.000 C 
ATOM     19  C   UNL     1       5.636   5.197  15.131  0.00  0.00    +0.000 C 
ATOM     20  C   UNL     1       6.374   4.186  15.999  0.00  0.00    +0.000 C 
ENDBRANCH  15  16
ENDBRANCH  14  15
ENDBRANCH   3  14
TORSDOF 5
ENDMDL
MODEL 9
REMARK VINA RESULT:      -6.5      2.136      4.418
REMARK  Name = 
REMARK  5 active torsions:
REMARK  status: ('A' for Active; 'I' for Inactive)
REMARK    1  A    between atoms: C_2  and  C_11
REMARK    2  A    between atoms: N_3  and  C_4
REMARK    3  A    between atoms: C_4  and  C_5
REMARK    4  A    between atoms: C_5  and  N_6
REMARK    5  A    between atoms: C_13  and  C_14
REMARK                            x       y       z     vdW  Elec       q    Type
REMARK                         _______ _______ _______ _____ _____    ______ ____
ROOT
ATOM      1  O   UNL     1       2.050   7.983  20.372  0.00  0.00    +0.000 OA
ATOM      2  C   UNL     1       2.065   6.829  19.962  0.00  0.00    +0.000 C 
ATOM      3  N   UNL     1       1.496   5.821  20.697  0.00  0.00    +0.000 N 
ATOM      4  H   UNL     1       1.081   6.134  21.568  0.00  0.00    +0.000 HD
ENDROOT
BRANCH   2   5
ATOM      5  C   UNL     1       2.688   6.481  18.656  0.00  0.00    +0.000 C 
ATOM      6  C   UNL     1       2.745   7.483  17.539  0.00  0.00    +0.000 C 
ATOM      7  C   UNL     1       4.018   7.097  18.260  0.00  0.00    +0.000 C 
BRANCH   7   8
ATOM      8  C   UNL     1       5.046   6.225  17.576  0.00  0.00    +0.000 A 
ATOM      9  C   UNL     1       4.999   6.000  16.192  0.00  0.00    +0.000 A 
ATOM     10  C   UNL     1       5.942   5.189  15.556  0.00  0.00    +0.000 A 
ATOM     11  C   UNL     1       6.958   4.588  16.294  0.00  0.00    +0.000 A 
ATOM     12  C   UNL     1       7.034   4.804  17.667  0.00  0.00    +0.000 A 
ATOM     13  C   UNL     1       6.091   5.620  18.294  0.00  0.00    +0.000 A 
ENDBRANCH   7   8
ENDBRANCH   2   5
BRANCH   3  14
ATOM     14  C   UNL     1       1.364   4.422  20.324  0.00  0.00    +0.000 C 
BRANCH  14  15
ATOM     15  C   UNL     1       2.553   3.566  20.812  0.00  0.00    +0.000 C 
BRANCH  15  16
ATOM     16  N   UNL     1       2.710   2.302  20.071  0.00  0.00    +0.000 NA
ATOM     17  C   UNL     1       4.033   2.223  19.427  0.00  0.00    +0.000 C 
ATOM     18  C   UNL     1       3.842   2.811  18.043  0.00  0.00    +0.000 C 
ATOM     19  C   UNL     1       2.465   2.316  17.656  0.00  0.00    +0.000 C 
ATOM     20  C   UNL     1       1.728   2.147  18.979  0.00  0.00    +0.000 C 
ENDBRANCH  15  16
ENDBRANCH  14  15
ENDBRANCH   3  14
TORSDOF 5
ENDMDL
