MODEL 1
REMARK VINA RESULT:      -7.7      0.000      0.000
REMARK  Name = 
REMARK  1 active torsions:
REMARK  status: ('A' for Active; 'I' for Inactive)
REMARK    1  A    between atoms: C_2  and  C_3
REMARK                            x       y       z     vdW  Elec       q    Type
REMARK                         _______ _______ _______ _____ _____    ______ ____
ROOT
ATOM      1  O   UNL     1       2.563   3.639  16.114  0.00  0.00    +0.000 OA
ATOM      2  C   UNL     1       3.344   3.572  17.071  0.00  0.00    +0.000 C 
ATOM      3  N   UNL     1       2.883   3.198  18.345  0.00  0.00    +0.000 N 
ATOM      4  C   UNL     1       1.476   2.804  18.520  0.00  0.00    +0.000 C 
ATOM      5  C   UNL     1       0.728   3.525  19.656  0.00  0.00    +0.000 C 
ATOM      6  O   UNL     1       1.339   3.400  20.947  0.00  0.00    +0.000 OA
ATOM      7  C   UNL     1       2.316   4.388  21.299  0.00  0.00    +0.000 C 
ATOM      8  C   UNL     1       1.819   5.854  21.221  0.00  0.00    +0.000 C 
ATOM      9  N   UNL     1       2.315   6.277  19.921  0.00  0.00    +0.000 N 
ATOM     10  C   UNL     1       2.019   7.500  19.363  0.00  0.00    +0.000 A 
ATOM     11  C   UNL     1       2.470   7.868  18.076  0.00  0.00    +0.000 A 
ATOM     12  N   UNL     1       2.208   9.049  17.467  0.00  0.00    +0.000 NA
ATOM     13  C   UNL     1       1.423   9.877  18.179  0.00  0.00    +0.000 A 
ATOM     14  C   UNL     1       0.945   9.535  19.431  0.00  0.00    +0.000 A 
ATOM     15  N   UNL     1       1.233   8.356  20.041  0.00  0.00    +0.000 NA
ATOM     16  C   UNL     1       3.624   5.695  19.719  0.00  0.00    +0.000 C 
ATOM     17  C   UNL     1       3.595   4.329  20.440  0.00  0.00    +0.000 C 
ATOM     18  C   UNL     1       3.681   3.078  19.552  0.00  0.00    +0.000 C 
ENDROOT
BRANCH   2  19
ATOM     19  C   UNL     1       4.799   3.908  16.781  0.00  0.00    +0.000 A 
ATOM     20  C   UNL     1       5.789   4.224  17.723  0.00  0.00    +0.000 A 
ATOM     21  C   UNL     1       7.099   4.553  17.378  0.00  0.00    +0.000 A 
ATOM     22  C   UNL     1       7.462   4.569  16.044  0.00  0.00    +0.000 A 
ATOM     23  C   UNL     1       6.504   4.283  15.074  0.00  0.00    +0.000 A 
ATOM     24  C   UNL     1       5.184   3.969  15.434  0.00  0.00    +0.000 A 
ENDBRANCH   2  19
TORSDOF 1
ENDMDL
MODEL 2
REMARK VINA RESULT:      -7.3      1.004      1.274
REMARK  Name = 
REMARK  1 active torsions:
REMARK  status: ('A' for Active; 'I' for Inactive)
REMARK    1  A    between atoms: C_2  and  C_3
REMARK                            x       y       z     vdW  Elec       q    Type
REMARK                         _______ _______ _______ _____ _____    ______ ____
ROOT
ATOM      1  O   UNL     1       2.203   3.734  16.073  0.00  0.00    +0.000 OA
ATOM      2  C   UNL     1       3.138   3.530  16.858  0.00  0.00    +0.000 C 
ATOM      3  N   UNL     1       2.921   2.846  18.066  0.00  0.00    +0.000 N 
ATOM      4  C   UNL     1       1.587   2.296  18.359  0.00  0.00    +0.000 C 
ATOM      5  C   UNL     1       1.004   2.680  19.731  0.00  0.00    +0.000 C 
ATOM      6  O   UNL     1       1.831   2.331  20.849  0.00  0.00    +0.000 OA
ATOM      7  C   UNL     1       2.799   3.303  21.266  0.00  0.00    +0.000 C 
ATOM      8  C   UNL     1       2.217   4.699  21.606  0.00  0.00    +0.000 C 
ATOM      9  N   UNL     1       2.461   5.440  20.379  0.00  0.00    +0.000 N 
ATOM     10  C   UNL     1       2.010   6.723  20.170  0.00  0.00    +0.000 A 
ATOM     11  C   UNL     1       2.215   7.404  18.950  0.00  0.00    +0.000 A 
ATOM     12  N   UNL     1       1.790   8.660  18.678  0.00  0.00    +0.000 NA
ATOM     13  C   UNL     1       1.094   9.237  19.673  0.00  0.00    +0.000 A 
ATOM     14  C   UNL     1       0.854   8.587  20.870  0.00  0.00    +0.000 A 
ATOM     15  N   UNL     1       1.304   7.334  21.139  0.00  0.00    +0.000 NA
ATOM     16  C   UNL     1       3.747   5.038  19.850  0.00  0.00    +0.000 C 
ATOM     17  C   UNL     1       3.915   3.551  20.231  0.00  0.00    +0.000 C 
ATOM     18  C   UNL     1       3.917   2.537  19.077  0.00  0.00    +0.000 C 
ENDROOT
BRANCH   2  19
ATOM     19  C   UNL     1       4.502   4.053  16.434  0.00  0.00    +0.000 A 
ATOM     20  C   UNL     1       5.527   3.315  15.822  0.00  0.00    +0.000 A 
ATOM     21  C   UNL     1       6.767   3.858  15.490  0.00  0.00    +0.000 A 
ATOM     22  C   UNL     1       7.017   5.190  15.764  0.00  0.00    +0.000 A 
ATOM     23  C   UNL     1       6.035   5.953  16.391  0.00  0.00    +0.000 A 
ATOM     24  C   UNL     1       4.796   5.390  16.735  0.00  0.00    +0.000 A 
ENDBRANCH   2  19
TORSDOF 1
ENDMDL
MODEL 3
REMARK VINA RESULT:      -6.9      7.525      9.939
REMARK  Name = 
REMARK  1 active torsions:
REMARK  status: ('A' for Active; 'I' for Inactive)
REMARK    1  A    between atoms: C_2  and  C_3
REMARK                            x       y       z     vdW  Elec       q    Type
REMARK                         _______ _______ _______ _____ _____    ______ ____
ROOT
ATOM      1  O   UNL     1      -0.673   9.849  19.689  0.00  0.00    +0.000 OA
ATOM      2  C   UNL     1      -0.822  10.885  19.027  0.00  0.00    +0.000 C 
ATOM      3  N   UNL     1       0.092  11.945  19.144  0.00  0.00    +0.000 N 
ATOM      4  C   UNL     1       1.281  11.787  19.997  0.00  0.00    +0.000 C 
ATOM      5  C   UNL     1       1.508  12.914  21.022  0.00  0.00    +0.000 C 
ATOM      6  O   UNL     1       1.598  14.227  20.455  0.00  0.00    +0.000 OA
ATOM      7  C   UNL     1       0.371  14.952  20.303  0.00  0.00    +0.000 C 
ATOM      8  C   UNL     1      -0.451  15.124  21.606  0.00  0.00    +0.000 C 
ATOM      9  N   UNL     1      -1.431  14.055  21.493  0.00  0.00    +0.000 N 
ATOM     10  C   UNL     1      -2.327  13.744  22.490  0.00  0.00    +0.000 A 
ATOM     11  C   UNL     1      -3.235  12.669  22.378  0.00  0.00    +0.000 A 
ATOM     12  N   UNL     1      -4.133  12.306  23.324  0.00  0.00    +0.000 NA
ATOM     13  C   UNL     1      -4.083  13.043  24.447  0.00  0.00    +0.000 A 
ATOM     14  C   UNL     1      -3.188  14.087  24.597  0.00  0.00    +0.000 A 
ATOM     15  N   UNL     1      -2.306  14.455  23.633  0.00  0.00    +0.000 NA
ATOM     16  C   UNL     1      -1.837  13.950  20.107  0.00  0.00    +0.000 C 
ATOM     17  C   UNL     1      -0.594  14.330  19.273  0.00  0.00    +0.000 C 
ATOM     18  C   UNL     1       0.044  13.211  18.434  0.00  0.00    +0.000 C 
ENDROOT
BRANCH   2  19
ATOM     19  C   UNL     1      -2.028  10.926  18.100  0.00  0.00    +0.000 A 
ATOM     20  C   UNL     1      -3.270  11.520  18.370  0.00  0.00    +0.000 A 
ATOM     21  C   UNL     1      -4.343  11.491  17.481  0.00  0.00    +0.000 A 
ATOM     22  C   UNL     1      -4.193  10.854  16.263  0.00  0.00    +0.000 A 
ATOM     23  C   UNL     1      -2.983  10.232  15.964  0.00  0.00    +0.000 A 
ATOM     24  C   UNL     1      -1.916  10.254  16.875  0.00  0.00    +0.000 A 
ENDBRANCH   2  19
TORSDOF 1
ENDMDL
MODEL 4
REMARK VINA RESULT:      -6.8      7.090     10.486
REMARK  Name = 
REMARK  1 active torsions:
REMARK  status: ('A' for Active; 'I' for Inactive)
REMARK    1  A    between atoms: C_2  and  C_3
REMARK                            x       y       z     vdW  Elec       q    Type
REMARK                         _______ _______ _______ _____ _____    ______ ____
ROOT
ATOM      1  O   UNL     1      -0.287  10.814  23.212  0.00  0.00    +0.000 OA
ATOM      2  C   UNL     1      -1.026  11.518  22.511  0.00  0.00    +0.000 C 
ATOM      3  N   UNL     1      -1.110  11.306  21.125  0.00  0.00    +0.000 N 
ATOM      4  C   UNL     1      -0.376  10.185  20.517  0.00  0.00    +0.000 C 
ATOM      5  C   UNL     1       0.505  10.554  19.309  0.00  0.00    +0.000 C 
ATOM      6  O   UNL     1      -0.193  11.199  18.236  0.00  0.00    +0.000 OA
ATOM      7  C   UNL     1      -0.284  12.629  18.291  0.00  0.00    +0.000 C 
ATOM      8  C   UNL     1       1.076  13.365  18.397  0.00  0.00    +0.000 C 
ATOM      9  N   UNL     1       1.172  13.628  19.824  0.00  0.00    +0.000 N 
ATOM     10  C   UNL     1       2.283  14.181  20.417  0.00  0.00    +0.000 A 
ATOM     11  C   UNL     1       2.373  14.380  21.812  0.00  0.00    +0.000 A 
ATOM     12  N   UNL     1       3.440  14.909  22.457  0.00  0.00    +0.000 NA
ATOM     13  C   UNL     1       4.474  15.217  21.655  0.00  0.00    +0.000 A 
ATOM     14  C   UNL     1       4.427  15.011  20.288  0.00  0.00    +0.000 A 
ATOM     15  N   UNL     1       3.343  14.499  19.650  0.00  0.00    +0.000 NA
ATOM     16  C   UNL     1      -0.147  13.968  20.316  0.00  0.00    +0.000 C 
ATOM     17  C   UNL     1      -1.141  13.152  19.462  0.00  0.00    +0.000 C 
ATOM     18  C   UNL     1      -1.930  12.049  20.184  0.00  0.00    +0.000 C 
ENDROOT
BRANCH   2  19
ATOM     19  C   UNL     1      -1.819  12.595  23.236  0.00  0.00    +0.000 A 
ATOM     20  C   UNL     1      -1.354  13.862  23.618  0.00  0.00    +0.000 A 
ATOM     21  C   UNL     1      -2.133  14.788  24.310  0.00  0.00    +0.000 A 
ATOM     22  C   UNL     1      -3.435  14.462  24.641  0.00  0.00    +0.000 A 
ATOM     23  C   UNL     1      -3.930  13.205  24.301  0.00  0.00    +0.000 A 
ATOM     24  C   UNL     1      -3.130  12.275  23.619  0.00  0.00    +0.000 A 
ENDBRANCH   2  19
TORSDOF 1
ENDMDL
MODEL 5
REMARK VINA RESULT:      -6.6      4.612      7.753
REMARK  Name = 
REMARK  1 active torsions:
REMARK  status: ('A' for Active; 'I' for Inactive)
REMARK    1  A    between atoms: C_2  and  C_3
REMARK                            x       y       z     vdW  Elec       q    Type
REMARK                         _______ _______ _______ _____ _____    ______ ____
ROOT
ATOM      1  O   UNL     1      -0.715   8.117  21.537  0.00  0.00    +0.000 OA
ATOM      2  C   UNL     1       0.035   9.046  21.210  0.00  0.00    +0.000 C 
ATOM      3  N   UNL     1       0.017  10.261  21.915  0.00  0.00    +0.000 N 
ATOM      4  C   UNL     1      -0.842  10.397  23.102  0.00  0.00    +0.000 C 
ATOM      5  C   UNL     1      -1.762  11.632  23.110  0.00  0.00    +0.000 C 
ATOM      6  O   UNL     1      -1.081  12.885  22.966  0.00  0.00    +0.000 OA
ATOM      7  C   UNL     1      -0.871  13.359  21.630  0.00  0.00    +0.000 C 
ATOM      8  C   UNL     1      -2.158  13.491  20.775  0.00  0.00    +0.000 C 
ATOM      9  N   UNL     1      -2.144  12.256  20.007  0.00  0.00    +0.000 N 
ATOM     10  C   UNL     1      -3.169  11.877  19.172  0.00  0.00    +0.000 A 
ATOM     11  C   UNL     1      -3.157  10.648  18.475  0.00  0.00    +0.000 A 
ATOM     12  N   UNL     1      -4.136  10.212  17.647  0.00  0.00    +0.000 NA
ATOM     13  C   UNL     1      -5.190  11.042  17.550  0.00  0.00    +0.000 A 
ATOM     14  C   UNL     1      -5.243  12.241  18.239  0.00  0.00    +0.000 A 
ATOM     15  N   UNL     1      -4.245  12.677  19.050  0.00  0.00    +0.000 NA
ATOM     16  C   UNL     1      -0.775  11.958  19.643  0.00  0.00    +0.000 C 
ATOM     17  C   UNL     1       0.095  12.483  20.806  0.00  0.00    +0.000 C 
ATOM     18  C   UNL     1       0.835  11.430  21.645  0.00  0.00    +0.000 C 
ENDROOT
BRANCH   2  19
ATOM     19  C   UNL     1       0.955   8.786  20.027  0.00  0.00    +0.000 A 
ATOM     20  C   UNL     1       0.997   9.509  18.825  0.00  0.00    +0.000 A 
ATOM     21  C   UNL     1       1.850   9.191  17.769  0.00  0.00    +0.000 A 
ATOM     22  C   UNL     1       2.709   8.115  17.896  0.00  0.00    +0.000 A 
ATOM     23  C   UNL     1       2.685   7.357  19.064  0.00  0.00    +0.000 A 
ATOM     24  C   UNL     1       1.810   7.677  20.113  0.00  0.00    +0.000 A 
ENDBRANCH   2  19
TORSDOF 1
ENDMDL
MODEL 6
REMARK VINA RESULT:      -6.6      9.770     11.505
REMARK  Name = 
REMARK  1 active torsions:
REMARK  status: ('A' for Active; 'I' for Inactive)
REMARK    1  A    between atoms: C_2  and  C_3
REMARK                            x       y       z     vdW  Elec       q    Type
REMARK                         _______ _______ _______ _____ _____    ______ ____
ROOT
ATOM      1  O   UNL     1       8.365  12.458  21.794  0.00  0.00    +0.000 OA
ATOM      2  C   UNL     1       9.199  13.232  21.305  0.00  0.00    +0.000 C 
ATOM      3  N   UNL     1       9.390  14.513  21.850  0.00  0.00    +0.000 N 
ATOM      4  C   UNL     1       8.652  14.903  23.062  0.00  0.00    +0.000 C 
ATOM      5  C   UNL     1       7.899  16.243  22.969  0.00  0.00    +0.000 C 
ATOM      6  O   UNL     1       8.720  17.367  22.626  0.00  0.00    +0.000 OA
ATOM      7  C   UNL     1       8.882  17.647  21.229  0.00  0.00    +0.000 C 
ATOM      8  C   UNL     1       7.560  17.851  20.447  0.00  0.00    +0.000 C 
ATOM      9  N   UNL     1       7.356  16.544  19.843  0.00  0.00    +0.000 N 
ATOM     10  C   UNL     1       6.229  16.210  19.128  0.00  0.00    +0.000 A 
ATOM     11  C   UNL     1       6.030  14.918  18.594  0.00  0.00    +0.000 A 
ATOM     12  N   UNL     1       4.942  14.525  17.891  0.00  0.00    +0.000 NA
ATOM     13  C   UNL     1       3.998  15.472  17.754  0.00  0.00    +0.000 A 
ATOM     14  C   UNL     1       4.151  16.739  18.288  0.00  0.00    +0.000 A 
ATOM     15  N   UNL     1       5.257  17.129  18.973  0.00  0.00    +0.000 NA
ATOM     16  C   UNL     1       8.643  16.022  19.435  0.00  0.00    +0.000 C 
ATOM     17  C   UNL     1       9.662  16.558  20.465  0.00  0.00    +0.000 C 
ATOM     18  C   UNL     1      10.326  15.520  21.383  0.00  0.00    +0.000 C 
ENDROOT
BRANCH   2  19
ATOM     19  C   UNL     1       9.983  12.712  20.110  0.00  0.00    +0.000 A 
ATOM     20  C   UNL     1       9.544  12.663  18.778  0.00  0.00    +0.000 A 
ATOM     21  C   UNL     1      10.310  12.143  17.737  0.00  0.00    +0.000 A 
ATOM     22  C   UNL     1      11.573  11.649  18.009  0.00  0.00    +0.000 A 
ATOM     23  C   UNL     1      12.039  11.658  19.322  0.00  0.00    +0.000 A 
ATOM     24  C   UNL     1      11.251  12.170  20.364  0.00  0.00    +0.000 A 
ENDBRANCH   2  19
TORSDOF 1
ENDMDL
MODEL 7
REMARK VINA RESULT:      -6.6      9.837     11.879
REMARK  Name = 
REMARK  1 active torsions:
REMARK  status: ('A' for Active; 'I' for Inactive)
REMARK    1  A    between atoms: C_2  and  C_3
REMARK                            x       y       z     vdW  Elec       q    Type
REMARK                         _______ _______ _______ _____ _____    ______ ____
ROOT
ATOM      1  O   UNL     1      11.184  14.963  19.428  0.00  0.00    +0.000 OA
ATOM      2  C   UNL     1      10.096  14.562  18.994  0.00  0.00    +0.000 C 
ATOM      3  N   UNL     1       9.165  15.467  18.454  0.00  0.00    +0.000 N 
ATOM      4  C   UNL     1       9.525  16.889  18.330  0.00  0.00    +0.000 C 
ATOM      5  C   UNL     1       8.506  17.878  18.924  0.00  0.00    +0.000 C 
ATOM      6  O   UNL     1       7.178  17.757  18.398  0.00  0.00    +0.000 OA
ATOM      7  C   UNL     1       6.300  16.839  19.062  0.00  0.00    +0.000 C 
ATOM      8  C   UNL     1       6.117  17.094  20.580  0.00  0.00    +0.000 C 
ATOM      9  N   UNL     1       7.048  16.143  21.166  0.00  0.00    +0.000 N 
ATOM     10  C   UNL     1       7.313  16.078  22.514  0.00  0.00    +0.000 A 
ATOM     11  C   UNL     1       8.260  15.180  23.054  0.00  0.00    +0.000 A 
ATOM     12  N   UNL     1       8.573  15.074  24.367  0.00  0.00    +0.000 NA
ATOM     13  C   UNL     1       7.924  15.942  25.163  0.00  0.00    +0.000 A 
ATOM     14  C   UNL     1       7.010  16.851  24.662  0.00  0.00    +0.000 A 
ATOM     15  N   UNL     1       6.689  16.934  23.345  0.00  0.00    +0.000 NA
ATOM     16  C   UNL     1       7.009  14.924  20.384  0.00  0.00    +0.000 C 
ATOM     17  C   UNL     1       6.729  15.364  18.930  0.00  0.00    +0.000 C 
ATOM     18  C   UNL     1       7.858  15.142  17.912  0.00  0.00    +0.000 C 
ENDROOT
BRANCH   2  19
ATOM     19  C   UNL     1       9.845  13.065  19.078  0.00  0.00    +0.000 A 
ATOM     20  C   UNL     1       9.619  12.192  18.003  0.00  0.00    +0.000 A 
ATOM     21  C   UNL     1       9.364  10.831  18.161  0.00  0.00    +0.000 A 
ATOM     22  C   UNL     1       9.333  10.293  19.434  0.00  0.00    +0.000 A 
ATOM     23  C   UNL     1       9.530  11.128  20.532  0.00  0.00    +0.000 A 
ATOM     24  C   UNL     1       9.770  12.500  20.360  0.00  0.00    +0.000 A 
ENDBRANCH   2  19
TORSDOF 1
ENDMDL
MODEL 8
REMARK VINA RESULT:      -6.6      9.641     11.373
REMARK  Name = 
REMARK  1 active torsions:
REMARK  status: ('A' for Active; 'I' for Inactive)
REMARK    1  A    between atoms: C_2  and  C_3
REMARK                            x       y       z     vdW  Elec       q    Type
REMARK                         _______ _______ _______ _____ _____    ______ ____
ROOT
ATOM      1  O   UNL     1       8.299  12.229  21.897  0.00  0.00    +0.000 OA
ATOM      2  C   UNL     1       9.175  12.992  21.468  0.00  0.00    +0.000 C 
ATOM      3  N   UNL     1       9.384  14.247  22.065  0.00  0.00    +0.000 N 
ATOM      4  C   UNL     1       8.611  14.618  23.261  0.00  0.00    +0.000 C 
ATOM      5  C   UNL     1       7.904  15.985  23.188  0.00  0.00    +0.000 C 
ATOM      6  O   UNL     1       8.772  17.092  22.916  0.00  0.00    +0.000 OA
ATOM      7  C   UNL     1       8.998  17.414  21.537  0.00  0.00    +0.000 C 
ATOM      8  C   UNL     1       7.714  17.688  20.713  0.00  0.00    +0.000 C 
ATOM      9  N   UNL     1       7.494  16.409  20.055  0.00  0.00    +0.000 N 
ATOM     10  C   UNL     1       6.386  16.137  19.286  0.00  0.00    +0.000 A 
ATOM     11  C   UNL     1       6.169  14.871  18.699  0.00  0.00    +0.000 A 
ATOM     12  N   UNL     1       5.097  14.537  17.942  0.00  0.00    +0.000 NA
ATOM     13  C   UNL     1       4.189  15.519  17.803  0.00  0.00    +0.000 A 
ATOM     14  C   UNL     1       4.360  16.761  18.386  0.00  0.00    +0.000 A 
ATOM     15  N   UNL     1       5.450  17.092  19.127  0.00  0.00    +0.000 NA
ATOM     16  C   UNL     1       8.780  15.861  19.678  0.00  0.00    +0.000 C 
ATOM     17  C   UNL     1       9.773  16.328  20.765  0.00  0.00    +0.000 C 
ATOM     18  C   UNL     1      10.368  15.238  21.671  0.00  0.00    +0.000 C 
ENDROOT
BRANCH   2  19
ATOM     19  C   UNL     1       9.989  12.489  20.286  0.00  0.00    +0.000 A 
ATOM     20  C   UNL     1      11.337  12.100  20.303  0.00  0.00    +0.000 A 
ATOM     21  C   UNL     1      12.028  11.678  19.169  0.00  0.00    +0.000 A 
ATOM     22  C   UNL     1      11.367  11.627  17.956  0.00  0.00    +0.000 A 
ATOM     23  C   UNL     1      10.033  12.026  17.889  0.00  0.00    +0.000 A 
ATOM     24  C   UNL     1       9.354  12.465  19.036  0.00  0.00    +0.000 A 
ENDBRANCH   2  19
TORSDOF 1
ENDMDL
MODEL 9
REMARK VINA RESULT:      -6.5      6.880     10.435
REMARK  Name = 
REMARK  1 active torsions:
REMARK  status: ('A' for Active; 'I' for Inactive)
REMARK    1  A    between atoms: C_2  and  C_3
REMARK                            x       y       z     vdW  Elec       q    Type
REMARK                         _______ _______ _______ _____ _____    ______ ____
ROOT
ATOM      1  O   UNL     1      -1.576  15.180  20.108  0.00  0.00    +0.000 OA
ATOM      2  C   UNL     1      -1.328  14.189  20.808  0.00  0.00    +0.000 C 
ATOM      3  N   UNL     1      -0.135  13.469  20.629  0.00  0.00    +0.000 N 
ATOM      4  C   UNL     1       0.864  13.950  19.660  0.00  0.00    +0.000 C 
ATOM      5  C   UNL     1       1.355  12.900  18.647  0.00  0.00    +0.000 C 
ATOM      6  O   UNL     1       1.910  11.716  19.235  0.00  0.00    +0.000 OA
ATOM      7  C   UNL     1       0.999  10.648  19.524  0.00  0.00    +0.000 C 
ATOM      8  C   UNL     1       0.169  10.153  18.312  0.00  0.00    +0.000 C 
ATOM      9  N   UNL     1      -1.090  10.859  18.493  0.00  0.00    +0.000 N 
ATOM     10  C   UNL     1      -2.118  10.813  17.580  0.00  0.00    +0.000 A 
ATOM     11  C   UNL     1      -3.311  11.549  17.753  0.00  0.00    +0.000 A 
ATOM     12  N   UNL     1      -4.355  11.554  16.890  0.00  0.00    +0.000 NA
ATOM     13  C   UNL     1      -4.165  10.811  15.786  0.00  0.00    +0.000 A 
ATOM     14  C   UNL     1      -2.997  10.099  15.576  0.00  0.00    +0.000 A 
ATOM     15  N   UNL     1      -1.966  10.084  16.459  0.00  0.00    +0.000 NA
ATOM     16  C   UNL     1      -1.389  10.905  19.908  0.00  0.00    +0.000 C 
ATOM     17  C   UNL     1      -0.025  10.987  20.627  0.00  0.00    +0.000 C 
ATOM     18  C   UNL     1       0.286  12.295  21.371  0.00  0.00    +0.000 C 
ENDROOT
BRANCH   2  19
ATOM     19  C   UNL     1      -2.374  13.817  21.848  0.00  0.00    +0.000 A 
ATOM     20  C   UNL     1      -3.587  13.151  21.613  0.00  0.00    +0.000 A 
ATOM     21  C   UNL     1      -4.514  12.871  22.616  0.00  0.00    +0.000 A 
ATOM     22  C   UNL     1      -4.239  13.256  23.915  0.00  0.00    +0.000 A 
ATOM     23  C   UNL     1      -3.056  13.939  24.189  0.00  0.00    +0.000 A 
ATOM     24  C   UNL     1      -2.139  14.230  23.167  0.00  0.00    +0.000 A 
ENDBRANCH   2  19
TORSDOF 1
ENDMDL
