MODEL 1
REMARK VINA RESULT:      -8.5      0.000      0.000
REMARK  Name = 
REMARK  11 active torsions:
REMARK  status: ('A' for Active; 'I' for Inactive)
REMARK    1  A    between atoms: C_1  and  C_2
REMARK    2  A    between atoms: N_4  and  C_5
REMARK    3  A    between atoms: C_5  and  C_6
REMARK    4  A    between atoms: C_5  and  C_7
REMARK    5  A    between atoms: C_10  and  O_11
REMARK    6  A    between atoms: O_11  and  C_12
REMARK    7  A    between atoms: N_15  and  C_16
REMARK    8  A    between atoms: C_18  and  O_19
REMARK    9  A    between atoms: O_19  and  C_20
REMARK   10  A    between atoms: C_20  and  C_21
REMARK   11  A    between atoms: C_28  and  C_29
REMARK                            x       y       z     vdW  Elec       q    Type
REMARK                         _______ _______ _______ _____ _____    ______ ____
ROOT
ATOM      1  C   UNL     1       6.957   6.251  17.088  0.00  0.00    +0.000 C 
ATOM      2  C   UNL     1       7.422   6.266  18.543  0.00  0.00    +0.000 C 
ATOM      3  C   UNL     1       6.414   5.399  19.301  0.00  0.00    +0.000 C 
ATOM      4  N   UNL     1       5.161   5.555  18.566  0.00  0.00    +0.000 N 
ATOM      5  C   UNL     1       5.440   6.018  17.200  0.00  0.00    +0.000 C 
ENDROOT
BRANCH   4   6
ATOM      6  C   UNL     1       3.923   5.169  19.053  0.00  0.00    +0.000 A 
ATOM      7  C   UNL     1       3.156   6.050  19.858  0.00  0.00    +0.000 A 
ATOM      8  C   UNL     1       1.902   5.674  20.344  0.00  0.00    +0.000 A 
ATOM      9  N   UNL     1       1.326   4.499  20.058  0.00  0.00    +0.000 NA
ATOM     10  C   UNL     1       2.041   3.659  19.296  0.00  0.00    +0.000 A 
ATOM     11  C   UNL     1       3.323   3.913  18.797  0.00  0.00    +0.000 A 
ATOM     12  C   UNL     1       3.964   2.767  18.074  0.00  0.00    +0.000 C 
BRANCH   8  13
ATOM     13  O   UNL     1       1.204   6.564  21.147  0.00  0.00    +0.000 OA
BRANCH  13  14
ATOM     14  C   UNL     1       1.563   7.925  20.846  0.00  0.00    +0.000 C 
BRANCH  14  15
ATOM     15  C   UNL     1       0.387   8.827  21.050  0.00  0.00    +0.000 C 
ATOM     16  C   UNL     1       0.560  10.262  21.509  0.00  0.00    +0.000 C 
ATOM     17  C   UNL     1       0.191   9.956  20.106  0.00  0.00    +0.000 C 
ATOM     18  F   UNL     1      -1.060  10.280  19.636  0.00  0.00    +0.000 F 
ATOM     19  F   UNL     1       1.086  10.215  19.093  0.00  0.00    +0.000 F 
ENDBRANCH  14  15
ENDBRANCH  13  14
ENDBRANCH   8  13
ENDBRANCH   4   6
BRANCH   1  20
ATOM     20  O   UNL     1       7.630   5.188  16.387  0.00  0.00    +0.000 OA
BRANCH  20  24
ATOM     21  C   UNL     1       5.934   3.691  12.836  0.00  0.00    +0.000 A 
ATOM     22  C   UNL     1       6.988   4.614  12.834  0.00  0.00    +0.000 A 
ATOM     23  C   UNL     1       7.523   5.091  14.043  0.00  0.00    +0.000 A 
ATOM     24  C   UNL     1       7.008   4.679  15.274  0.00  0.00    +0.000 A 
ATOM     25  C   UNL     1       5.961   3.757  15.281  0.00  0.00    +0.000 A 
ATOM     26  C   UNL     1       5.436   3.265  14.078  0.00  0.00    +0.000 A 
BRANCH  21  27
ATOM     27  C   UNL     1       5.350   3.162  11.529  0.00  0.00    +0.000 C 
ATOM     28  C   UNL     1       3.942   3.727  11.306  0.00  0.00    +0.000 C 
BRANCH  27  32
ATOM     29  C   UNL     1       6.270  -0.515  11.319  0.00  0.00    +0.000 C 
ATOM     30  C   UNL     1       6.479   0.970  11.188  0.00  0.00    +0.000 C 
ATOM     31  O   UNL     1       7.542   1.459  10.820  0.00  0.00    +0.000 OA
ATOM     32  N   UNL     1       5.363   1.703  11.538  0.00  0.00    +0.000 N 
ATOM     33  H   UNL     1       4.670   1.246  12.119  0.00  0.00    +0.000 HD
ENDBRANCH  27  32
ENDBRANCH  21  27
ENDBRANCH  20  24
ENDBRANCH   1  20
TORSDOF 8
ENDMDL
MODEL 2
REMARK VINA RESULT:      -8.2      3.955     10.636
REMARK  Name = 
REMARK  11 active torsions:
REMARK  status: ('A' for Active; 'I' for Inactive)
REMARK    1  A    between atoms: C_1  and  C_2
REMARK    2  A    between atoms: N_4  and  C_5
REMARK    3  A    between atoms: C_5  and  C_6
REMARK    4  A    between atoms: C_5  and  C_7
REMARK    5  A    between atoms: C_10  and  O_11
REMARK    6  A    between atoms: O_11  and  C_12
REMARK    7  A    between atoms: N_15  and  C_16
REMARK    8  A    between atoms: C_18  and  O_19
REMARK    9  A    between atoms: O_19  and  C_20
REMARK   10  A    between atoms: C_20  and  C_21
REMARK   11  A    between atoms: C_28  and  C_29
REMARK                            x       y       z     vdW  Elec       q    Type
REMARK                         _______ _______ _______ _____ _____    ______ ____
ROOT
ATOM      1  C   UNL     1       2.272   7.202  18.466  0.00  0.00    +0.000 C 
ATOM      2  C   UNL     1       1.741   5.790  18.228  0.00  0.00    +0.000 C 
ATOM      3  C   UNL     1       2.980   4.893  18.166  0.00  0.00    +0.000 C 
ATOM      4  N   UNL     1       4.035   5.753  17.636  0.00  0.00    +0.000 N 
ATOM      5  C   UNL     1       3.679   7.164  17.843  0.00  0.00    +0.000 C 
ENDROOT
BRANCH   4   6
ATOM      6  C   UNL     1       5.249   5.286  17.158  0.00  0.00    +0.000 A 
ATOM      7  C   UNL     1       5.385   4.879  15.807  0.00  0.00    +0.000 A 
ATOM      8  C   UNL     1       6.608   4.417  15.313  0.00  0.00    +0.000 A 
ATOM      9  N   UNL     1       7.725   4.367  16.050  0.00  0.00    +0.000 NA
ATOM     10  C   UNL     1       7.608   4.752  17.329  0.00  0.00    +0.000 A 
ATOM     11  C   UNL     1       6.426   5.185  17.938  0.00  0.00    +0.000 A 
ATOM     12  C   UNL     1       6.525   5.442  19.412  0.00  0.00    +0.000 C 
BRANCH   8  13
ATOM     13  O   UNL     1       6.680   4.008  13.989  0.00  0.00    +0.000 OA
BRANCH  13  14
ATOM     14  C   UNL     1       5.368   3.904  13.406  0.00  0.00    +0.000 C 
BRANCH  14  15
ATOM     15  C   UNL     1       5.475   3.600  11.945  0.00  0.00    +0.000 C 
ATOM     16  C   UNL     1       5.388   2.179  11.423  0.00  0.00    +0.000 C 
ATOM     17  C   UNL     1       4.262   3.124  11.233  0.00  0.00    +0.000 C 
ATOM     18  F   UNL     1       3.953   3.583   9.974  0.00  0.00    +0.000 F 
ATOM     19  F   UNL     1       3.073   2.911  11.892  0.00  0.00    +0.000 F 
ENDBRANCH  14  15
ENDBRANCH  13  14
ENDBRANCH   8  13
ENDBRANCH   4   6
BRANCH   1  20
ATOM     20  O   UNL     1       2.301   7.464  19.882  0.00  0.00    +0.000 OA
BRANCH  20  24
ATOM     21  C   UNL     1      -0.133  10.697  21.047  0.00  0.00    +0.000 A 
ATOM     22  C   UNL     1       0.277  10.504  19.721  0.00  0.00    +0.000 A 
ATOM     23  C   UNL     1       1.092   9.414  19.375  0.00  0.00    +0.000 A 
ATOM     24  C   UNL     1       1.535   8.507  20.341  0.00  0.00    +0.000 A 
ATOM     25  C   UNL     1       1.127   8.693  21.663  0.00  0.00    +0.000 A 
ATOM     26  C   UNL     1       0.299   9.770  22.009  0.00  0.00    +0.000 A 
BRANCH  21  27
ATOM     27  C   UNL     1      -1.023  11.875  21.432  0.00  0.00    +0.000 C 
ATOM     28  C   UNL     1      -1.203  11.935  22.954  0.00  0.00    +0.000 C 
BRANCH  27  32
ATOM     29  C   UNL     1      -4.323  12.547  19.679  0.00  0.00    +0.000 C 
ATOM     30  C   UNL     1      -3.076  12.886  20.453  0.00  0.00    +0.000 C 
ATOM     31  O   UNL     1      -2.792  14.033  20.781  0.00  0.00    +0.000 OA
ATOM     32  N   UNL     1      -2.299  11.779  20.730  0.00  0.00    +0.000 N 
ATOM     33  H   UNL     1      -2.443  10.955  20.158  0.00  0.00    +0.000 HD
ENDBRANCH  27  32
ENDBRANCH  21  27
ENDBRANCH  20  24
ENDBRANCH   1  20
TORSDOF 8
ENDMDL
MODEL 3
REMARK VINA RESULT:      -8.1      4.447     11.146
REMARK  Name = 
REMARK  11 active torsions:
REMARK  status: ('A' for Active; 'I' for Inactive)
REMARK    1  A    between atoms: C_1  and  C_2
REMARK    2  A    between atoms: N_4  and  C_5
REMARK    3  A    between atoms: C_5  and  C_6
REMARK    4  A    between atoms: C_5  and  C_7
REMARK    5  A    between atoms: C_10  and  O_11
REMARK    6  A    between atoms: O_11  and  C_12
REMARK    7  A    between atoms: N_15  and  C_16
REMARK    8  A    between atoms: C_18  and  O_19
REMARK    9  A    between atoms: O_19  and  C_20
REMARK   10  A    between atoms: C_20  and  C_21
REMARK   11  A    between atoms: C_28  and  C_29
REMARK                            x       y       z     vdW  Elec       q    Type
REMARK                         _______ _______ _______ _____ _____    ______ ____
ROOT
ATOM      1  C   UNL     1       1.394   9.346  19.884  0.00  0.00    +0.000 C 
ATOM      2  C   UNL     1       1.801   9.843  18.498  0.00  0.00    +0.000 C 
ATOM      3  C   UNL     1       1.847   8.594  17.615  0.00  0.00    +0.000 C 
ATOM      4  N   UNL     1       2.211   7.509  18.522  0.00  0.00    +0.000 N 
ATOM      5  C   UNL     1       1.905   7.894  19.907  0.00  0.00    +0.000 C 
ENDROOT
BRANCH   4   6
ATOM      6  C   UNL     1       2.632   6.257  18.104  0.00  0.00    +0.000 A 
ATOM      7  C   UNL     1       1.767   5.137  18.196  0.00  0.00    +0.000 A 
ATOM      8  C   UNL     1       2.177   3.872  17.766  0.00  0.00    +0.000 A 
ATOM      9  N   UNL     1       3.374   3.639  17.211  0.00  0.00    +0.000 NA
ATOM     10  C   UNL     1       4.199   4.691  17.118  0.00  0.00    +0.000 A 
ATOM     11  C   UNL     1       3.909   5.987  17.559  0.00  0.00    +0.000 A 
ATOM     12  C   UNL     1       5.043   6.963  17.457  0.00  0.00    +0.000 C 
BRANCH   8  13
ATOM     13  O   UNL     1       1.300   2.806  17.900  0.00  0.00    +0.000 OA
BRANCH  13  14
ATOM     14  C   UNL     1       1.550   2.077  19.115  0.00  0.00    +0.000 C 
BRANCH  14  15
ATOM     15  C   UNL     1       1.234   2.929  20.303  0.00  0.00    +0.000 C 
ATOM     16  C   UNL     1       1.431   2.419  21.718  0.00  0.00    +0.000 C 
ATOM     17  C   UNL     1       2.359   3.419  21.139  0.00  0.00    +0.000 C 
ATOM     18  F   UNL     1       2.375   4.706  21.624  0.00  0.00    +0.000 F 
ATOM     19  F   UNL     1       3.663   3.068  20.875  0.00  0.00    +0.000 F 
ENDBRANCH  14  15
ENDBRANCH  13  14
ENDBRANCH   8  13
ENDBRANCH   4   6
BRANCH   1  20
ATOM     20  O   UNL     1      -0.038   9.431  20.015  0.00  0.00    +0.000 OA
BRANCH  20  24
ATOM     21  C   UNL     1      -1.716  12.580  22.251  0.00  0.00    +0.000 A 
ATOM     22  C   UNL     1      -1.748  12.553  20.850  0.00  0.00    +0.000 A 
ATOM     23  C   UNL     1      -1.172  11.484  20.142  0.00  0.00    +0.000 A 
ATOM     24  C   UNL     1      -0.536  10.435  20.809  0.00  0.00    +0.000 A 
ATOM     25  C   UNL     1      -0.504  10.456  22.204  0.00  0.00    +0.000 A 
ATOM     26  C   UNL     1      -1.092  11.511  22.915  0.00  0.00    +0.000 A 
BRANCH  21  27
ATOM     27  C   UNL     1      -2.343  13.733  23.029  0.00  0.00    +0.000 C 
ATOM     28  C   UNL     1      -1.297  14.401  23.931  0.00  0.00    +0.000 C 
BRANCH  27  32
ATOM     29  C   UNL     1      -5.788  12.664  24.212  0.00  0.00    +0.000 C 
ATOM     30  C   UNL     1      -4.774  13.254  23.269  0.00  0.00    +0.000 C 
ATOM     31  O   UNL     1      -5.071  13.677  22.156  0.00  0.00    +0.000 OA
ATOM     32  N   UNL     1      -3.493  13.250  23.785  0.00  0.00    +0.000 N 
ATOM     33  H   UNL     1      -3.302  12.608  24.545  0.00  0.00    +0.000 HD
ENDBRANCH  27  32
ENDBRANCH  21  27
ENDBRANCH  20  24
ENDBRANCH   1  20
TORSDOF 8
ENDMDL
MODEL 4
REMARK VINA RESULT:      -8.0      4.133     10.710
REMARK  Name = 
REMARK  11 active torsions:
REMARK  status: ('A' for Active; 'I' for Inactive)
REMARK    1  A    between atoms: C_1  and  C_2
REMARK    2  A    between atoms: N_4  and  C_5
REMARK    3  A    between atoms: C_5  and  C_6
REMARK    4  A    between atoms: C_5  and  C_7
REMARK    5  A    between atoms: C_10  and  O_11
REMARK    6  A    between atoms: O_11  and  C_12
REMARK    7  A    between atoms: N_15  and  C_16
REMARK    8  A    between atoms: C_18  and  O_19
REMARK    9  A    between atoms: O_19  and  C_20
REMARK   10  A    between atoms: C_20  and  C_21
REMARK   11  A    between atoms: C_28  and  C_29
REMARK                            x       y       z     vdW  Elec       q    Type
REMARK                         _______ _______ _______ _____ _____    ______ ____
ROOT
ATOM      1  C   UNL     1       2.112   6.443  18.942  0.00  0.00    +0.000 C 
ATOM      2  C   UNL     1       2.075   4.981  19.385  0.00  0.00    +0.000 C 
ATOM      3  C   UNL     1       3.521   4.489  19.287  0.00  0.00    +0.000 C 
ATOM      4  N   UNL     1       4.109   5.274  18.204  0.00  0.00    +0.000 N 
ATOM      5  C   UNL     1       3.322   6.497  17.993  0.00  0.00    +0.000 C 
ENDROOT
BRANCH   4   6
ATOM      6  C   UNL     1       5.314   4.970  17.592  0.00  0.00    +0.000 A 
ATOM      7  C   UNL     1       5.346   4.512  16.250  0.00  0.00    +0.000 A 
ATOM      8  C   UNL     1       6.557   4.213  15.620  0.00  0.00    +0.000 A 
ATOM      9  N   UNL     1       7.750   4.375  16.208  0.00  0.00    +0.000 NA
ATOM     10  C   UNL     1       7.730   4.810  17.476  0.00  0.00    +0.000 A 
ATOM     11  C   UNL     1       6.577   5.093  18.216  0.00  0.00    +0.000 A 
ATOM     12  C   UNL     1       6.813   5.445  19.654  0.00  0.00    +0.000 C 
BRANCH   8  13
ATOM     13  O   UNL     1       6.531   3.746  14.314  0.00  0.00    +0.000 OA
BRANCH  13  14
ATOM     14  C   UNL     1       5.397   4.267  13.599  0.00  0.00    +0.000 C 
BRANCH  14  15
ATOM     15  C   UNL     1       4.807   3.208  12.723  0.00  0.00    +0.000 C 
ATOM     16  C   UNL     1       4.577   3.440  11.243  0.00  0.00    +0.000 C 
ATOM     17  C   UNL     1       5.680   2.565  11.708  0.00  0.00    +0.000 C 
ATOM     18  F   UNL     1       5.625   1.210  11.480  0.00  0.00    +0.000 F 
ATOM     19  F   UNL     1       6.986   2.956  11.525  0.00  0.00    +0.000 F 
ENDBRANCH  14  15
ENDBRANCH  13  14
ENDBRANCH   8  13
ENDBRANCH   4   6
BRANCH   1  20
ATOM     20  O   UNL     1       2.279   7.284  20.100  0.00  0.00    +0.000 OA
BRANCH  20  24
ATOM     21  C   UNL     1      -0.263  10.590  20.684  0.00  0.00    +0.000 A 
ATOM     22  C   UNL     1      -0.139   9.561  21.627  0.00  0.00    +0.000 A 
ATOM     23  C   UNL     1       0.719   8.473  21.391  0.00  0.00    +0.000 A 
ATOM     24  C   UNL     1       1.451   8.374  20.206  0.00  0.00    +0.000 A 
ATOM     25  C   UNL     1       1.333   9.397  19.265  0.00  0.00    +0.000 A 
ATOM     26  C   UNL     1       0.492  10.493  19.503  0.00  0.00    +0.000 A 
BRANCH  21  27
ATOM     27  C   UNL     1      -1.187  11.777  20.933  0.00  0.00    +0.000 C 
ATOM     28  C   UNL     1      -2.136  11.976  19.744  0.00  0.00    +0.000 C 
BRANCH  27  32
ATOM     29  C   UNL     1       0.291  14.969  22.362  0.00  0.00    +0.000 C 
ATOM     30  C   UNL     1      -0.695  13.838  22.240  0.00  0.00    +0.000 C 
ATOM     31  O   UNL     1      -1.652  13.709  22.997  0.00  0.00    +0.000 OA
ATOM     32  N   UNL     1      -0.394  12.970  21.209  0.00  0.00    +0.000 N 
ATOM     33  H   UNL     1       0.558  12.974  20.862  0.00  0.00    +0.000 HD
ENDBRANCH  27  32
ENDBRANCH  21  27
ENDBRANCH  20  24
ENDBRANCH   1  20
TORSDOF 8
ENDMDL
MODEL 5
REMARK VINA RESULT:      -8.0      3.928     10.736
REMARK  Name = 
REMARK  11 active torsions:
REMARK  status: ('A' for Active; 'I' for Inactive)
REMARK    1  A    between atoms: C_1  and  C_2
REMARK    2  A    between atoms: N_4  and  C_5
REMARK    3  A    between atoms: C_5  and  C_6
REMARK    4  A    between atoms: C_5  and  C_7
REMARK    5  A    between atoms: C_10  and  O_11
REMARK    6  A    between atoms: O_11  and  C_12
REMARK    7  A    between atoms: N_15  and  C_16
REMARK    8  A    between atoms: C_18  and  O_19
REMARK    9  A    between atoms: O_19  and  C_20
REMARK   10  A    between atoms: C_20  and  C_21
REMARK   11  A    between atoms: C_28  and  C_29
REMARK                            x       y       z     vdW  Elec       q    Type
REMARK                         _______ _______ _______ _____ _____    ______ ____
ROOT
ATOM      1  C   UNL     1       2.181   7.037  18.528  0.00  0.00    +0.000 C 
ATOM      2  C   UNL     1       1.827   5.551  18.549  0.00  0.00    +0.000 C 
ATOM      3  C   UNL     1       3.166   4.812  18.503  0.00  0.00    +0.000 C 
ATOM      4  N   UNL     1       4.056   5.699  17.758  0.00  0.00    +0.000 N 
ATOM      5  C   UNL     1       3.531   7.071  17.789  0.00  0.00    +0.000 C 
ENDROOT
BRANCH   4   6
ATOM      6  C   UNL     1       5.283   5.313  17.243  0.00  0.00    +0.000 A 
ATOM      7  C   UNL     1       5.436   5.056  15.857  0.00  0.00    +0.000 A 
ATOM      8  C   UNL     1       6.671   4.677  15.326  0.00  0.00    +0.000 A 
ATOM      9  N   UNL     1       7.785   4.573  16.063  0.00  0.00    +0.000 NA
ATOM     10  C   UNL     1       7.652   4.817  17.374  0.00  0.00    +0.000 A 
ATOM     11  C   UNL     1       6.457   5.155  18.017  0.00  0.00    +0.000 A 
ATOM     12  C   UNL     1       6.542   5.256  19.510  0.00  0.00    +0.000 C 
BRANCH   8  13
ATOM     13  O   UNL     1       6.760   4.413  13.968  0.00  0.00    +0.000 OA
BRANCH  13  14
ATOM     14  C   UNL     1       5.715   3.521  13.542  0.00  0.00    +0.000 C 
BRANCH  14  15
ATOM     15  C   UNL     1       5.673   3.448  12.049  0.00  0.00    +0.000 C 
ATOM     16  C   UNL     1       5.467   2.131  11.325  0.00  0.00    +0.000 C 
ATOM     17  C   UNL     1       4.378   3.135  11.393  0.00  0.00    +0.000 C 
ATOM     18  F   UNL     1       3.980   3.797  10.255  0.00  0.00    +0.000 F 
ATOM     19  F   UNL     1       3.244   2.864  12.124  0.00  0.00    +0.000 F 
ENDBRANCH  14  15
ENDBRANCH  13  14
ENDBRANCH   8  13
ENDBRANCH   4   6
BRANCH   1  20
ATOM     20  O   UNL     1       2.278   7.519  19.882  0.00  0.00    +0.000 OA
BRANCH  20  24
ATOM     21  C   UNL     1      -0.349  10.691  20.757  0.00  0.00    +0.000 A 
ATOM     22  C   UNL     1       0.407  10.644  19.578  0.00  0.00    +0.000 A 
ATOM     23  C   UNL     1       1.275   9.568  19.327  0.00  0.00    +0.000 A 
ATOM     24  C   UNL     1       1.426   8.531  20.249  0.00  0.00    +0.000 A 
ATOM     25  C   UNL     1       0.674   8.571  21.424  0.00  0.00    +0.000 A 
ATOM     26  C   UNL     1      -0.207   9.634  21.671  0.00  0.00    +0.000 A 
BRANCH  21  27
ATOM     27  C   UNL     1      -1.298  11.852  21.037  0.00  0.00    +0.000 C 
ATOM     28  C   UNL     1      -2.174  12.135  19.810  0.00  0.00    +0.000 C 
BRANCH  27  32
ATOM     29  C   UNL     1      -0.027  15.026  22.687  0.00  0.00    +0.000 C 
ATOM     30  C   UNL     1      -1.009  13.925  22.385  0.00  0.00    +0.000 C 
ATOM     31  O   UNL     1      -2.104  13.845  22.931  0.00  0.00    +0.000 OA
ATOM     32  N   UNL     1      -0.535  13.024  21.451  0.00  0.00    +0.000 N 
ATOM     33  H   UNL     1       0.467  12.989  21.307  0.00  0.00    +0.000 HD
ENDBRANCH  27  32
ENDBRANCH  21  27
ENDBRANCH  20  24
ENDBRANCH   1  20
TORSDOF 8
ENDMDL
MODEL 6
REMARK VINA RESULT:      -8.0      4.217     11.054
REMARK  Name = 
REMARK  11 active torsions:
REMARK  status: ('A' for Active; 'I' for Inactive)
REMARK    1  A    between atoms: C_1  and  C_2
REMARK    2  A    between atoms: N_4  and  C_5
REMARK    3  A    between atoms: C_5  and  C_6
REMARK    4  A    between atoms: C_5  and  C_7
REMARK    5  A    between atoms: C_10  and  O_11
REMARK    6  A    between atoms: O_11  and  C_12
REMARK    7  A    between atoms: N_15  and  C_16
REMARK    8  A    between atoms: C_18  and  O_19
REMARK    9  A    between atoms: O_19  and  C_20
REMARK   10  A    between atoms: C_20  and  C_21
REMARK   11  A    between atoms: C_28  and  C_29
REMARK                            x       y       z     vdW  Elec       q    Type
REMARK                         _______ _______ _______ _____ _____    ______ ____
ROOT
ATOM      1  C   UNL     1       1.558   9.096  19.919  0.00  0.00    +0.000 C 
ATOM      2  C   UNL     1       1.785   9.665  18.520  0.00  0.00    +0.000 C 
ATOM      3  C   UNL     1       1.882   8.449  17.596  0.00  0.00    +0.000 C 
ATOM      4  N   UNL     1       2.438   7.389  18.433  0.00  0.00    +0.000 N 
ATOM      5  C   UNL     1       2.218   7.707  19.851  0.00  0.00    +0.000 C 
ENDROOT
BRANCH   4   6
ATOM      6  C   UNL     1       2.948   6.199  17.940  0.00  0.00    +0.000 A 
ATOM      7  C   UNL     1       2.178   5.009  17.986  0.00  0.00    +0.000 A 
ATOM      8  C   UNL     1       2.679   3.806  17.482  0.00  0.00    +0.000 A 
ATOM      9  N   UNL     1       3.877   3.701  16.892  0.00  0.00    +0.000 NA
ATOM     10  C   UNL     1       4.613   4.820  16.842  0.00  0.00    +0.000 A 
ATOM     11  C   UNL     1       4.230   6.063  17.357  0.00  0.00    +0.000 A 
ATOM     12  C   UNL     1       5.279   7.132  17.288  0.00  0.00    +0.000 C 
BRANCH   8  13
ATOM     13  O   UNL     1       1.894   2.667  17.573  0.00  0.00    +0.000 OA
BRANCH  13  14
ATOM     14  C   UNL     1       0.938   2.780  18.643  0.00  0.00    +0.000 C 
BRANCH  14  15
ATOM     15  C   UNL     1       1.482   2.157  19.890  0.00  0.00    +0.000 C 
ATOM     16  C   UNL     1       2.742   2.681  20.551  0.00  0.00    +0.000 C 
ATOM     17  C   UNL     1       1.412   2.933  21.154  0.00  0.00    +0.000 C 
ATOM     18  F   UNL     1       1.067   2.328  22.340  0.00  0.00    +0.000 F 
ATOM     19  F   UNL     1       0.910   4.214  21.190  0.00  0.00    +0.000 F 
ENDBRANCH  14  15
ENDBRANCH  13  14
ENDBRANCH   8  13
ENDBRANCH   4   6
BRANCH   1  20
ATOM     20  O   UNL     1       0.143   9.024  20.177  0.00  0.00    +0.000 OA
BRANCH  20  24
ATOM     21  C   UNL     1      -1.555  12.355  22.114  0.00  0.00    +0.000 A 
ATOM     22  C   UNL     1      -1.063  11.247  22.817  0.00  0.00    +0.000 A 
ATOM     23  C   UNL     1      -0.508  10.154  22.131  0.00  0.00    +0.000 A 
ATOM     24  C   UNL     1      -0.450  10.130  20.736  0.00  0.00    +0.000 A 
ATOM     25  C   UNL     1      -0.935  11.232  20.031  0.00  0.00    +0.000 A 
ATOM     26  C   UNL     1      -1.474  12.333  20.712  0.00  0.00    +0.000 A 
BRANCH  21  27
ATOM     27  C   UNL     1      -2.155  13.549  22.849  0.00  0.00    +0.000 C 
ATOM     28  C   UNL     1      -1.044  14.457  23.393  0.00  0.00    +0.000 C 
BRANCH  27  32
ATOM     29  C   UNL     1      -5.102  12.335  24.911  0.00  0.00    +0.000 C 
ATOM     30  C   UNL     1      -4.394  12.861  23.692  0.00  0.00    +0.000 C 
ATOM     31  O   UNL     1      -4.968  13.056  22.625  0.00  0.00    +0.000 OA
ATOM     32  N   UNL     1      -3.048  13.081  23.904  0.00  0.00    +0.000 N 
ATOM     33  H   UNL     1      -2.617  12.601  24.685  0.00  0.00    +0.000 HD
ENDBRANCH  27  32
ENDBRANCH  21  27
ENDBRANCH  20  24
ENDBRANCH   1  20
TORSDOF 8
ENDMDL
MODEL 7
REMARK VINA RESULT:      -8.0      5.580     12.964
REMARK  Name = 
REMARK  11 active torsions:
REMARK  status: ('A' for Active; 'I' for Inactive)
REMARK    1  A    between atoms: C_1  and  C_2
REMARK    2  A    between atoms: N_4  and  C_5
REMARK    3  A    between atoms: C_5  and  C_6
REMARK    4  A    between atoms: C_5  and  C_7
REMARK    5  A    between atoms: C_10  and  O_11
REMARK    6  A    between atoms: O_11  and  C_12
REMARK    7  A    between atoms: N_15  and  C_16
REMARK    8  A    between atoms: C_18  and  O_19
REMARK    9  A    between atoms: O_19  and  C_20
REMARK   10  A    between atoms: C_20  and  C_21
REMARK   11  A    between atoms: C_28  and  C_29
REMARK                            x       y       z     vdW  Elec       q    Type
REMARK                         _______ _______ _______ _____ _____    ______ ____
ROOT
ATOM      1  C   UNL     1      -0.694  10.278  22.375  0.00  0.00    +0.000 C 
ATOM      2  C   UNL     1       0.139   9.366  23.273  0.00  0.00    +0.000 C 
ATOM      3  C   UNL     1       1.370   8.993  22.445  0.00  0.00    +0.000 C 
ATOM      4  N   UNL     1       0.907   9.013  21.059  0.00  0.00    +0.000 N 
ATOM      5  C   UNL     1      -0.313   9.826  20.954  0.00  0.00    +0.000 C 
ENDROOT
BRANCH   4   6
ATOM      6  C   UNL     1       1.614   8.473  19.997  0.00  0.00    +0.000 A 
ATOM      7  C   UNL     1       2.148   7.162  20.078  0.00  0.00    +0.000 A 
ATOM      8  C   UNL     1       2.853   6.604  19.008  0.00  0.00    +0.000 A 
ATOM      9  N   UNL     1       3.035   7.236  17.841  0.00  0.00    +0.000 NA
ATOM     10  C   UNL     1       2.533   8.475  17.753  0.00  0.00    +0.000 A 
ATOM     11  C   UNL     1       1.854   9.146  18.776  0.00  0.00    +0.000 A 
ATOM     12  C   UNL     1       1.498  10.572  18.477  0.00  0.00    +0.000 C 
BRANCH   8  13
ATOM     13  O   UNL     1       3.374   5.327  19.148  0.00  0.00    +0.000 OA
BRANCH  13  14
ATOM     14  C   UNL     1       2.734   4.403  18.248  0.00  0.00    +0.000 C 
BRANCH  14  15
ATOM     15  C   UNL     1       1.418   3.965  18.807  0.00  0.00    +0.000 C 
ATOM     16  C   UNL     1       0.943   2.530  18.681  0.00  0.00    +0.000 C 
ATOM     17  C   UNL     1       1.419   3.056  19.982  0.00  0.00    +0.000 C 
ATOM     18  F   UNL     1       0.534   3.235  21.019  0.00  0.00    +0.000 F 
ATOM     19  F   UNL     1       2.590   2.576  20.525  0.00  0.00    +0.000 F 
ENDBRANCH  14  15
ENDBRANCH  13  14
ENDBRANCH   8  13
ENDBRANCH   4   6
BRANCH   1  20
ATOM     20  O   UNL     1      -0.339  11.650  22.634  0.00  0.00    +0.000 OA
BRANCH  20  24
ATOM     21  C   UNL     1      -3.313  14.453  23.646  0.00  0.00    +0.000 A 
ATOM     22  C   UNL     1      -2.005  14.831  23.317  0.00  0.00    +0.000 A 
ATOM     23  C   UNL     1      -1.041  13.863  22.989  0.00  0.00    +0.000 A 
ATOM     24  C   UNL     1      -1.351  12.501  23.002  0.00  0.00    +0.000 A 
ATOM     25  C   UNL     1      -2.654  12.119  23.326  0.00  0.00    +0.000 A 
ATOM     26  C   UNL     1      -3.623  13.083  23.638  0.00  0.00    +0.000 A 
BRANCH  21  27
ATOM     27  C   UNL     1      -4.368  15.496  23.999  0.00  0.00    +0.000 C 
ATOM     28  C   UNL     1      -3.847  16.435  25.095  0.00  0.00    +0.000 C 
BRANCH  27  32
ATOM     29  C   UNL     1      -7.910  14.148  24.225  0.00  0.00    +0.000 C 
ATOM     30  C   UNL     1      -6.776  14.961  23.660  0.00  0.00    +0.000 C 
ATOM     31  O   UNL     1      -6.892  15.650  22.652  0.00  0.00    +0.000 OA
ATOM     32  N   UNL     1      -5.609  14.833  24.387  0.00  0.00    +0.000 N 
ATOM     33  H   UNL     1      -5.522  14.021  24.986  0.00  0.00    +0.000 HD
ENDBRANCH  27  32
ENDBRANCH  21  27
ENDBRANCH  20  24
ENDBRANCH   1  20
TORSDOF 8
ENDMDL
MODEL 8
REMARK VINA RESULT:      -7.9      3.717     10.112
REMARK  Name = 
REMARK  11 active torsions:
REMARK  status: ('A' for Active; 'I' for Inactive)
REMARK    1  A    between atoms: C_1  and  C_2
REMARK    2  A    between atoms: N_4  and  C_5
REMARK    3  A    between atoms: C_5  and  C_6
REMARK    4  A    between atoms: C_5  and  C_7
REMARK    5  A    between atoms: C_10  and  O_11
REMARK    6  A    between atoms: O_11  and  C_12
REMARK    7  A    between atoms: N_15  and  C_16
REMARK    8  A    between atoms: C_18  and  O_19
REMARK    9  A    between atoms: O_19  and  C_20
REMARK   10  A    between atoms: C_20  and  C_21
REMARK   11  A    between atoms: C_28  and  C_29
REMARK                            x       y       z     vdW  Elec       q    Type
REMARK                         _______ _______ _______ _____ _____    ______ ____
ROOT
ATOM      1  C   UNL     1       2.042   6.240  18.967  0.00  0.00    +0.000 C 
ATOM      2  C   UNL     1       2.033   4.728  19.186  0.00  0.00    +0.000 C 
ATOM      3  C   UNL     1       3.485   4.281  19.007  0.00  0.00    +0.000 C 
ATOM      4  N   UNL     1       4.051   5.230  18.051  0.00  0.00    +0.000 N 
ATOM      5  C   UNL     1       3.243   6.457  18.030  0.00  0.00    +0.000 C 
ENDROOT
BRANCH   4   6
ATOM      6  C   UNL     1       5.256   5.042  17.393  0.00  0.00    +0.000 A 
ATOM      7  C   UNL     1       5.298   4.935  15.979  0.00  0.00    +0.000 A 
ATOM      8  C   UNL     1       6.509   4.756  15.306  0.00  0.00    +0.000 A 
ATOM      9  N   UNL     1       7.695   4.718  15.927  0.00  0.00    +0.000 NA
ATOM     10  C   UNL     1       7.667   4.820  17.263  0.00  0.00    +0.000 A 
ATOM     11  C   UNL     1       6.511   4.953  18.040  0.00  0.00    +0.000 A 
ATOM     12  C   UNL     1       6.732   4.923  19.522  0.00  0.00    +0.000 C 
BRANCH   8  13
ATOM     13  O   UNL     1       6.491   4.633  13.924  0.00  0.00    +0.000 OA
BRANCH  13  14
ATOM     14  C   UNL     1       5.653   3.539  13.511  0.00  0.00    +0.000 C 
BRANCH  14  15
ATOM     15  C   UNL     1       5.648   3.426  12.020  0.00  0.00    +0.000 C 
ATOM     16  C   UNL     1       5.365   2.107  11.326  0.00  0.00    +0.000 C 
ATOM     17  C   UNL     1       4.352   3.189  11.334  0.00  0.00    +0.000 C 
ATOM     18  F   UNL     1       4.036   3.845  10.167  0.00  0.00    +0.000 F 
ATOM     19  F   UNL     1       3.181   3.023  12.038  0.00  0.00    +0.000 F 
ENDBRANCH  14  15
ENDBRANCH  13  14
ENDBRANCH   8  13
ENDBRANCH   4   6
BRANCH   1  20
ATOM     20  O   UNL     1       2.205   6.900  20.237  0.00  0.00    +0.000 OA
BRANCH  20  24
ATOM     21  C   UNL     1       0.184  10.585  20.500  0.00  0.00    +0.000 A 
ATOM     22  C   UNL     1       0.781  10.138  19.313  0.00  0.00    +0.000 A 
ATOM     23  C   UNL     1       1.450   8.903  19.270  0.00  0.00    +0.000 A 
ATOM     24  C   UNL     1       1.557   8.099  20.407  0.00  0.00    +0.000 A 
ATOM     25  C   UNL     1       0.961   8.538  21.590  0.00  0.00    +0.000 A 
ATOM     26  C   UNL     1       0.278   9.762  21.633  0.00  0.00    +0.000 A 
BRANCH  21  27
ATOM     27  C   UNL     1      -0.549  11.922  20.556  0.00  0.00    +0.000 C 
ATOM     28  C   UNL     1      -0.497  12.501  21.975  0.00  0.00    +0.000 C 
BRANCH  27  32
ATOM     29  C   UNL     1      -3.730  11.687  18.497  0.00  0.00    +0.000 C 
ATOM     30  C   UNL     1      -2.274  11.968  18.762  0.00  0.00    +0.000 C 
ATOM     31  O   UNL     1      -1.500  12.333  17.885  0.00  0.00    +0.000 OA
ATOM     32  N   UNL     1      -1.918  11.755  20.079  0.00  0.00    +0.000 N 
ATOM     33  H   UNL     1      -2.524  11.163  20.635  0.00  0.00    +0.000 HD
ENDBRANCH  27  32
ENDBRANCH  21  27
ENDBRANCH  20  24
ENDBRANCH   1  20
TORSDOF 8
ENDMDL
MODEL 9
REMARK VINA RESULT:      -7.9      2.572      4.745
REMARK  Name = 
REMARK  11 active torsions:
REMARK  status: ('A' for Active; 'I' for Inactive)
REMARK    1  A    between atoms: C_1  and  C_2
REMARK    2  A    between atoms: N_4  and  C_5
REMARK    3  A    between atoms: C_5  and  C_6
REMARK    4  A    between atoms: C_5  and  C_7
REMARK    5  A    between atoms: C_10  and  O_11
REMARK    6  A    between atoms: O_11  and  C_12
REMARK    7  A    between atoms: N_15  and  C_16
REMARK    8  A    between atoms: C_18  and  O_19
REMARK    9  A    between atoms: O_19  and  C_20
REMARK   10  A    between atoms: C_20  and  C_21
REMARK   11  A    between atoms: C_28  and  C_29
REMARK                            x       y       z     vdW  Elec       q    Type
REMARK                         _______ _______ _______ _____ _____    ______ ____
ROOT
ATOM      1  C   UNL     1       2.608   2.890  21.173  0.00  0.00    +0.000 C 
ATOM      2  C   UNL     1       1.099   2.854  20.941  0.00  0.00    +0.000 C 
ATOM      3  C   UNL     1       0.775   4.132  20.164  0.00  0.00    +0.000 C 
ATOM      4  N   UNL     1       1.777   5.100  20.605  0.00  0.00    +0.000 N 
ATOM      5  C   UNL     1       2.933   4.394  21.175  0.00  0.00    +0.000 C 
ENDROOT
BRANCH   4   6
ATOM      6  C   UNL     1       1.697   6.462  20.367  0.00  0.00    +0.000 A 
ATOM      7  C   UNL     1       1.347   7.357  21.409  0.00  0.00    +0.000 A 
ATOM      8  C   UNL     1       1.274   8.734  21.183  0.00  0.00    +0.000 A 
ATOM      9  N   UNL     1       1.564   9.300  20.003  0.00  0.00    +0.000 NA
ATOM     10  C   UNL     1       1.898   8.463  19.012  0.00  0.00    +0.000 A 
ATOM     11  C   UNL     1       1.956   7.069  19.115  0.00  0.00    +0.000 A 
ATOM     12  C   UNL     1       2.233   6.345  17.832  0.00  0.00    +0.000 C 
BRANCH   8  13
ATOM     13  O   UNL     1       0.903   9.563  22.231  0.00  0.00    +0.000 OA
BRANCH  13  14
ATOM     14  C   UNL     1      -0.449  10.029  22.072  0.00  0.00    +0.000 C 
BRANCH  14  15
ATOM     15  C   UNL     1      -0.488  11.523  22.104  0.00  0.00    +0.000 C 
ATOM     16  C   UNL     1      -1.612  12.301  21.445  0.00  0.00    +0.000 C 
ATOM     17  C   UNL     1      -1.538  12.184  22.921  0.00  0.00    +0.000 C 
ATOM     18  F   UNL     1      -1.251  13.291  23.686  0.00  0.00    +0.000 F 
ATOM     19  F   UNL     1      -2.492  11.458  23.598  0.00  0.00    +0.000 F 
ENDBRANCH  14  15
ENDBRANCH  13  14
ENDBRANCH   8  13
ENDBRANCH   4   6
BRANCH   1  20
ATOM     20  O   UNL     1       3.267   2.182  20.105  0.00  0.00    +0.000 OA
BRANCH  20  24
ATOM     21  C   UNL     1       5.144   4.462  17.103  0.00  0.00    +0.000 A 
ATOM     22  C   UNL     1       4.111   3.557  16.825  0.00  0.00    +0.000 A 
ATOM     23  C   UNL     1       3.514   2.813  17.856  0.00  0.00    +0.000 A 
ATOM     24  C   UNL     1       3.945   2.936  19.179  0.00  0.00    +0.000 A 
ATOM     25  C   UNL     1       4.972   3.837  19.462  0.00  0.00    +0.000 A 
ATOM     26  C   UNL     1       5.559   4.595  18.439  0.00  0.00    +0.000 A 
BRANCH  21  27
ATOM     27  C   UNL     1       5.795   5.279  15.992  0.00  0.00    +0.000 C 
ATOM     28  C   UNL     1       5.130   6.656  15.879  0.00  0.00    +0.000 C 
BRANCH  27  32
ATOM     29  C   UNL     1       6.491   3.709  12.605  0.00  0.00    +0.000 C 
ATOM     30  C   UNL     1       6.747   4.596  13.795  0.00  0.00    +0.000 C 
ATOM     31  O   UNL     1       7.758   5.281  13.905  0.00  0.00    +0.000 OA
ATOM     32  N   UNL     1       5.739   4.537  14.737  0.00  0.00    +0.000 N 
ATOM     33  H   UNL     1       5.129   3.728  14.713  0.00  0.00    +0.000 HD
ENDBRANCH  27  32
ENDBRANCH  21  27
ENDBRANCH  20  24
ENDBRANCH   1  20
TORSDOF 8
ENDMDL
