MODEL 1
REMARK VINA RESULT:      -8.2      0.000      0.000
REMARK  Name = 
REMARK  7 active torsions:
REMARK  status: ('A' for Active; 'I' for Inactive)
REMARK    1  A    between atoms: C_1  and  C_2
REMARK    2  A    between atoms: C_2  and  N_3
REMARK    3  A    between atoms: N_6  and  S_7
REMARK    4  A    between atoms: S_7  and  C_10
REMARK    5  A    between atoms: N_17  and  C_18
REMARK    6  A    between atoms: C_18  and  C_19
REMARK    7  A    between atoms: C_22  and  C_23
REMARK                            x       y       z     vdW  Elec       q    Type
REMARK                         _______ _______ _______ _____ _____    ______ ____
ROOT
ATOM      1  C   UNL     1       1.541   7.916  20.317  0.00  0.00    +0.000 A 
ATOM      2  C   UNL     1       1.543   6.701  21.014  0.00  0.00    +0.000 A 
ATOM      3  C   UNL     1       2.149   5.566  20.470  0.00  0.00    +0.000 A 
ATOM      4  C   UNL     1       2.746   5.607  19.203  0.00  0.00    +0.000 A 
ATOM      5  C   UNL     1       2.727   6.823  18.507  0.00  0.00    +0.000 A 
ATOM      6  C   UNL     1       2.134   7.978  19.055  0.00  0.00    +0.000 A 
ATOM      7 CL   UNL     1       2.269   9.403  18.090  0.00  0.00    +0.000 Cl
ATOM      8  N   UNL     1       3.407   4.449  18.704  0.00  0.00    +0.000 N 
ATOM      9  C   UNL     1       3.540   3.337  19.524  0.00  0.00    +0.000 C 
ATOM     10  O   UNL     1       4.333   2.420  19.321  0.00  0.00    +0.000 OA
ATOM     11  C   UNL     1       2.471   3.265  20.605  0.00  0.00    +0.000 C 
ATOM     12  O   UNL     1       2.127   4.460  21.274  0.00  0.00    +0.000 OA
ENDROOT
BRANCH   1  13
ATOM     13  S   UNL     1       0.657   9.260  21.077  0.00  0.00    +0.000 S 
ATOM     14  O   UNL     1       1.515   9.776  22.127  0.00  0.00    +0.000 OA
ATOM     15  O   UNL     1      -0.672   8.828  21.413  0.00  0.00    +0.000 OA
BRANCH  13  19
ATOM     16  N   UNL     1      -0.985  12.878  20.652  0.00  0.00    +0.000 NA
ATOM     17  C   UNL     1      -1.604  11.608  20.211  0.00  0.00    +0.000 C 
ATOM     18  C   UNL     1      -0.733  10.766  19.258  0.00  0.00    +0.000 C 
ATOM     19  N   UNL     1       0.602  10.463  19.855  0.00  0.00    +0.000 NA
ATOM     20  C   UNL     1       1.272  11.757  20.230  0.00  0.00    +0.000 C 
ATOM     21  C   UNL     1       0.384  12.610  21.162  0.00  0.00    +0.000 C 
BRANCH  16  23
ATOM     22  C   UNL     1      -0.210  15.165  20.041  0.00  0.00    +0.000 C 
ATOM     23  C   UNL     1      -0.989  13.921  19.621  0.00  0.00    +0.000 C 
ENDBRANCH  16  23
ENDBRANCH  13  19
ENDBRANCH   1  13
BRANCH   8  24
ATOM     24  C   UNL     1       3.895   4.337  17.335  0.00  0.00    +0.000 C 
BRANCH  24  25
ATOM     25  C   UNL     1       5.022   5.245  16.998  0.00  0.00    +0.000 A 
ATOM     26  N   UNL     1       5.116   5.806  15.781  0.00  0.00    +0.000 NA
ATOM     27  O   UNL     1       6.194   6.677  15.908  0.00  0.00    +0.000 OA
ATOM     28  C   UNL     1       6.623   6.575  17.197  0.00  0.00    +0.000 A 
ATOM     29  C   UNL     1       7.735   7.452  17.598  0.00  0.00    +0.000 C 
ATOM     30  N   UNL     1       5.932   5.720  17.915  0.00  0.00    +0.000 NA
ENDBRANCH  24  25
ENDBRANCH   8  24
TORSDOF 5
ENDMDL
MODEL 2
REMARK VINA RESULT:      -8.0      1.315      1.652
REMARK  Name = 
REMARK  7 active torsions:
REMARK  status: ('A' for Active; 'I' for Inactive)
REMARK    1  A    between atoms: C_1  and  C_2
REMARK    2  A    between atoms: C_2  and  N_3
REMARK    3  A    between atoms: N_6  and  S_7
REMARK    4  A    between atoms: S_7  and  C_10
REMARK    5  A    between atoms: N_17  and  C_18
REMARK    6  A    between atoms: C_18  and  C_19
REMARK    7  A    between atoms: C_22  and  C_23
REMARK                            x       y       z     vdW  Elec       q    Type
REMARK                         _______ _______ _______ _____ _____    ______ ____
ROOT
ATOM      1  C   UNL     1       1.176   8.098  19.891  0.00  0.00    +0.000 A 
ATOM      2  C   UNL     1       1.450   6.887  20.541  0.00  0.00    +0.000 A 
ATOM      3  C   UNL     1       2.415   6.010  20.041  0.00  0.00    +0.000 A 
ATOM      4  C   UNL     1       3.115   6.305  18.863  0.00  0.00    +0.000 A 
ATOM      5  C   UNL     1       2.825   7.511  18.213  0.00  0.00    +0.000 A 
ATOM      6  C   UNL     1       1.866   8.411  18.718  0.00  0.00    +0.000 A 
ATOM      7 CL   UNL     1       1.693   9.880  17.827  0.00  0.00    +0.000 Cl
ATOM      8  N   UNL     1       4.134   5.418  18.415  0.00  0.00    +0.000 N 
ATOM      9  C   UNL     1       4.487   4.335  19.206  0.00  0.00    +0.000 C 
ATOM     10  O   UNL     1       5.529   3.694  19.076  0.00  0.00    +0.000 OA
ATOM     11  C   UNL     1       3.370   3.889  20.138  0.00  0.00    +0.000 C 
ATOM     12  O   UNL     1       2.622   4.889  20.797  0.00  0.00    +0.000 OA
ENDROOT
BRANCH   1  13
ATOM     13  S   UNL     1      -0.137   9.082  20.576  0.00  0.00    +0.000 S 
ATOM     14  O   UNL     1      -0.806   8.252  21.559  0.00  0.00    +0.000 OA
ATOM     15  O   UNL     1      -0.910   9.657  19.508  0.00  0.00    +0.000 OA
BRANCH  13  19
ATOM     16  N   UNL     1      -0.859  12.882  21.579  0.00  0.00    +0.000 NA
ATOM     17  C   UNL     1      -0.098  12.449  20.385  0.00  0.00    +0.000 C 
ATOM     18  C   UNL     1       1.099  11.526  20.685  0.00  0.00    +0.000 C 
ATOM     19  N   UNL     1       0.680  10.312  21.449  0.00  0.00    +0.000 NA
ATOM     20  C   UNL     1      -0.022  10.747  22.707  0.00  0.00    +0.000 C 
ATOM     21  C   UNL     1      -1.203  11.695  22.403  0.00  0.00    +0.000 C 
BRANCH  16  23
ATOM     22  C   UNL     1       0.073  15.192  21.568  0.00  0.00    +0.000 C 
ATOM     23  C   UNL     1      -0.176  13.915  22.366  0.00  0.00    +0.000 C 
ENDBRANCH  16  23
ENDBRANCH  13  19
ENDBRANCH   1  13
BRANCH   8  24
ATOM     24  C   UNL     1       4.786   5.543  17.116  0.00  0.00    +0.000 C 
BRANCH  24  25
ATOM     25  C   UNL     1       6.073   6.286  17.134  0.00  0.00    +0.000 A 
ATOM     26  N   UNL     1       7.017   6.050  16.208  0.00  0.00    +0.000 NA
ATOM     27  O   UNL     1       7.979   7.021  16.472  0.00  0.00    +0.000 OA
ATOM     28  C   UNL     1       7.503   7.762  17.513  0.00  0.00    +0.000 A 
ATOM     29  C   UNL     1       8.328   8.901  17.948  0.00  0.00    +0.000 C 
ATOM     30  N   UNL     1       6.331   7.363  17.950  0.00  0.00    +0.000 NA
ENDBRANCH  24  25
ENDBRANCH   8  24
TORSDOF 5
ENDMDL
MODEL 3
REMARK VINA RESULT:      -8.0      1.040      1.044
REMARK  Name = 
REMARK  7 active torsions:
REMARK  status: ('A' for Active; 'I' for Inactive)
REMARK    1  A    between atoms: C_1  and  C_2
REMARK    2  A    between atoms: C_2  and  N_3
REMARK    3  A    between atoms: N_6  and  S_7
REMARK    4  A    between atoms: S_7  and  C_10
REMARK    5  A    between atoms: N_17  and  C_18
REMARK    6  A    between atoms: C_18  and  C_19
REMARK    7  A    between atoms: C_22  and  C_23
REMARK                            x       y       z     vdW  Elec       q    Type
REMARK                         _______ _______ _______ _____ _____    ______ ____
ROOT
ATOM      1  C   UNL     1       1.497   7.611  20.354  0.00  0.00    +0.000 A 
ATOM      2  C   UNL     1       1.239   6.387  20.986  0.00  0.00    +0.000 A 
ATOM      3  C   UNL     1       1.614   5.181  20.388  0.00  0.00    +0.000 A 
ATOM      4  C   UNL     1       2.231   5.163  19.131  0.00  0.00    +0.000 A 
ATOM      5  C   UNL     1       2.472   6.390  18.500  0.00  0.00    +0.000 A 
ATOM      6  C   UNL     1       2.114   7.613  19.102  0.00  0.00    +0.000 A 
ATOM      7 CL   UNL     1       2.554   9.027  18.214  0.00  0.00    +0.000 Cl
ATOM      8  N   UNL     1       2.653   3.921  18.578  0.00  0.00    +0.000 N 
ATOM      9  C   UNL     1       2.542   2.766  19.339  0.00  0.00    +0.000 C 
ATOM     10  O   UNL     1       3.137   1.718  19.095  0.00  0.00    +0.000 OA
ATOM     11  C   UNL     1       1.460   2.859  20.405  0.00  0.00    +0.000 C 
ATOM     12  O   UNL     1       1.352   4.064  21.132  0.00  0.00    +0.000 OA
ENDROOT
BRANCH   1  13
ATOM     13  S   UNL     1       0.889   9.067  21.176  0.00  0.00    +0.000 S 
ATOM     14  O   UNL     1       1.916   9.469  22.117  0.00  0.00    +0.000 OA
ATOM     15  O   UNL     1      -0.442   8.821  21.660  0.00  0.00    +0.000 OA
BRANCH  13  19
ATOM     16  N   UNL     1      -0.965  12.552  20.559  0.00  0.00    +0.000 NA
ATOM     17  C   UNL     1      -1.445  11.238  20.074  0.00  0.00    +0.000 C 
ATOM     18  C   UNL     1      -0.428  10.460  19.216  0.00  0.00    +0.000 C 
ATOM     19  N   UNL     1       0.863  10.258  19.941  0.00  0.00    +0.000 NA
ATOM     20  C   UNL     1       1.398  11.599  20.365  0.00  0.00    +0.000 C 
ATOM     21  C   UNL     1       0.364  12.388  21.200  0.00  0.00    +0.000 C 
BRANCH  16  23
ATOM     22  C   UNL     1      -1.107  14.995  20.093  0.00  0.00    +0.000 C 
ATOM     23  C   UNL     1      -0.948  13.589  19.521  0.00  0.00    +0.000 C 
ENDBRANCH  16  23
ENDBRANCH  13  19
ENDBRANCH   1  13
BRANCH   8  24
ATOM     24  C   UNL     1       3.135   3.780  17.209  0.00  0.00    +0.000 C 
BRANCH  24  25
ATOM     25  C   UNL     1       4.587   4.043  17.028  0.00  0.00    +0.000 A 
ATOM     26  N   UNL     1       5.087   4.350  15.820  0.00  0.00    +0.000 NA
ATOM     27  O   UNL     1       6.418   4.659  16.089  0.00  0.00    +0.000 OA
ATOM     28  C   UNL     1       6.577   4.534  17.437  0.00  0.00    +0.000 A 
ATOM     29  C   UNL     1       7.904   4.866  17.981  0.00  0.00    +0.000 C 
ATOM     30  N   UNL     1       5.483   4.171  18.064  0.00  0.00    +0.000 NA
ENDBRANCH  24  25
ENDBRANCH   8  24
TORSDOF 5
ENDMDL
MODEL 4
REMARK VINA RESULT:      -7.9      1.117      1.289
REMARK  Name = 
REMARK  7 active torsions:
REMARK  status: ('A' for Active; 'I' for Inactive)
REMARK    1  A    between atoms: C_1  and  C_2
REMARK    2  A    between atoms: C_2  and  N_3
REMARK    3  A    between atoms: N_6  and  S_7
REMARK    4  A    between atoms: S_7  and  C_10
REMARK    5  A    between atoms: N_17  and  C_18
REMARK    6  A    between atoms: C_18  and  C_19
REMARK    7  A    between atoms: C_22  and  C_23
REMARK                            x       y       z     vdW  Elec       q    Type
REMARK                         _______ _______ _______ _____ _____    ______ ____
ROOT
ATOM      1  C   UNL     1       1.613   7.612  20.226  0.00  0.00    +0.000 A 
ATOM      2  C   UNL     1       1.650   6.482  21.053  0.00  0.00    +0.000 A 
ATOM      3  C   UNL     1       2.138   5.263  20.577  0.00  0.00    +0.000 A 
ATOM      4  C   UNL     1       2.578   5.132  19.253  0.00  0.00    +0.000 A 
ATOM      5  C   UNL     1       2.524   6.264  18.429  0.00  0.00    +0.000 A 
ATOM      6  C   UNL     1       2.049   7.502  18.905  0.00  0.00    +0.000 A 
ATOM      7 CL   UNL     1       2.125   8.804  17.772  0.00  0.00    +0.000 Cl
ATOM      8  N   UNL     1       3.125   3.892  18.817  0.00  0.00    +0.000 N 
ATOM      9  C   UNL     1       3.311   2.871  19.739  0.00  0.00    +0.000 C 
ATOM     10  O   UNL     1       4.035   1.895  19.552  0.00  0.00    +0.000 OA
ATOM     11  C   UNL     1       2.380   2.976  20.938  0.00  0.00    +0.000 C 
ATOM     12  O   UNL     1       2.169   4.254  21.500  0.00  0.00    +0.000 OA
ENDROOT
BRANCH   1  13
ATOM     13  S   UNL     1       0.884   9.077  20.924  0.00  0.00    +0.000 S 
ATOM     14  O   UNL     1       1.877   9.649  21.813  0.00  0.00    +0.000 OA
ATOM     15  O   UNL     1      -0.418   8.761  21.445  0.00  0.00    +0.000 OA
BRANCH  13  19
ATOM     16  N   UNL     1      -0.735  12.667  20.249  0.00  0.00    +0.000 NA
ATOM     17  C   UNL     1      -1.406  11.372  19.994  0.00  0.00    +0.000 C 
ATOM     18  C   UNL     1      -0.627  10.416  19.070  0.00  0.00    +0.000 C 
ATOM     19  N   UNL     1       0.748  10.147  19.589  0.00  0.00    +0.000 NA
ATOM     20  C   UNL     1       1.465  11.457  19.773  0.00  0.00    +0.000 C 
ATOM     21  C   UNL     1       0.666  12.423  20.676  0.00  0.00    +0.000 C 
BRANCH  16  23
ATOM     22  C   UNL     1       0.001  14.870  19.351  0.00  0.00    +0.000 C 
ATOM     23  C   UNL     1      -0.808  13.597  19.117  0.00  0.00    +0.000 C 
ENDBRANCH  16  23
ENDBRANCH  13  19
ENDBRANCH   1  13
BRANCH   8  24
ATOM     24  C   UNL     1       3.437   3.604  17.422  0.00  0.00    +0.000 C 
BRANCH  24  25
ATOM     25  C   UNL     1       4.747   4.130  16.955  0.00  0.00    +0.000 A 
ATOM     26  N   UNL     1       5.761   4.318  17.815  0.00  0.00    +0.000 NA
ATOM     27  O   UNL     1       6.825   4.669  16.989  0.00  0.00    +0.000 OA
ATOM     28  C   UNL     1       6.351   4.629  15.712  0.00  0.00    +0.000 A 
ATOM     29  C   UNL     1       7.317   4.913  14.637  0.00  0.00    +0.000 C 
ATOM     30  N   UNL     1       5.085   4.291  15.631  0.00  0.00    +0.000 NA
ENDBRANCH  24  25
ENDBRANCH   8  24
TORSDOF 5
ENDMDL
MODEL 5
REMARK VINA RESULT:      -7.9      1.550      1.991
REMARK  Name = 
REMARK  7 active torsions:
REMARK  status: ('A' for Active; 'I' for Inactive)
REMARK    1  A    between atoms: C_1  and  C_2
REMARK    2  A    between atoms: C_2  and  N_3
REMARK    3  A    between atoms: N_6  and  S_7
REMARK    4  A    between atoms: S_7  and  C_10
REMARK    5  A    between atoms: N_17  and  C_18
REMARK    6  A    between atoms: C_18  and  C_19
REMARK    7  A    between atoms: C_22  and  C_23
REMARK                            x       y       z     vdW  Elec       q    Type
REMARK                         _______ _______ _______ _____ _____    ______ ____
ROOT
ATOM      1  C   UNL     1       1.506   8.411  19.686  0.00  0.00    +0.000 A 
ATOM      2  C   UNL     1       1.487   7.229  20.437  0.00  0.00    +0.000 A 
ATOM      3  C   UNL     1       2.258   6.128  20.057  0.00  0.00    +0.000 A 
ATOM      4  C   UNL     1       3.049   6.167  18.901  0.00  0.00    +0.000 A 
ATOM      5  C   UNL     1       3.052   7.349  18.149  0.00  0.00    +0.000 A 
ATOM      6  C   UNL     1       2.291   8.472  18.533  0.00  0.00    +0.000 A 
ATOM      7 CL   UNL     1       2.474   9.864  17.528  0.00  0.00    +0.000 Cl
ATOM      8  N   UNL     1       3.869   5.050  18.576  0.00  0.00    +0.000 N 
ATOM      9  C   UNL     1       3.949   3.987  19.464  0.00  0.00    +0.000 C 
ATOM     10  O   UNL     1       4.832   3.131  19.439  0.00  0.00    +0.000 OA
ATOM     11  C   UNL     1       2.727   3.868  20.363  0.00  0.00    +0.000 C 
ATOM     12  O   UNL     1       2.189   5.057  20.904  0.00  0.00    +0.000 OA
ENDROOT
BRANCH   1  13
ATOM     13  S   UNL     1       0.411   9.706  20.223  0.00  0.00    +0.000 S 
ATOM     14  O   UNL     1       1.220  10.646  20.974  0.00  0.00    +0.000 OA
ATOM     15  O   UNL     1      -0.745   9.124  20.850  0.00  0.00    +0.000 OA
BRANCH  13  19
ATOM     16  N   UNL     1      -2.975  11.069  18.597  0.00  0.00    +0.000 NA
ATOM     17  C   UNL     1      -2.390   9.733  18.344  0.00  0.00    +0.000 C 
ATOM     18  C   UNL     1      -0.936   9.754  17.836  0.00  0.00    +0.000 C 
ATOM     19  N   UNL     1      -0.037  10.499  18.768  0.00  0.00    +0.000 NA
ATOM     20  C   UNL     1      -0.582  11.887  18.965  0.00  0.00    +0.000 C 
ATOM     21  C   UNL     1      -2.050  11.862  19.447  0.00  0.00    +0.000 C 
BRANCH  16  23
ATOM     22  C   UNL     1      -4.320  11.001  16.502  0.00  0.00    +0.000 C 
ATOM     23  C   UNL     1      -3.344  11.788  17.373  0.00  0.00    +0.000 C 
ENDBRANCH  16  23
ENDBRANCH  13  19
ENDBRANCH   1  13
BRANCH   8  24
ATOM     24  C   UNL     1       4.581   4.924  17.310  0.00  0.00    +0.000 C 
BRANCH  24  25
ATOM     25  C   UNL     1       5.841   5.707  17.223  0.00  0.00    +0.000 A 
ATOM     26  N   UNL     1       6.412   5.966  16.036  0.00  0.00    +0.000 NA
ATOM     27  O   UNL     1       7.460   6.823  16.359  0.00  0.00    +0.000 OA
ATOM     28  C   UNL     1       7.398   7.016  17.707  0.00  0.00    +0.000 A 
ATOM     29  C   UNL     1       8.383   7.942  18.290  0.00  0.00    +0.000 C 
ATOM     30  N   UNL     1       6.415   6.366  18.286  0.00  0.00    +0.000 NA
ENDBRANCH  24  25
ENDBRANCH   8  24
TORSDOF 5
ENDMDL
MODEL 6
REMARK VINA RESULT:      -7.8      2.444      8.077
REMARK  Name = 
REMARK  7 active torsions:
REMARK  status: ('A' for Active; 'I' for Inactive)
REMARK    1  A    between atoms: C_1  and  C_2
REMARK    2  A    between atoms: C_2  and  N_3
REMARK    3  A    between atoms: N_6  and  S_7
REMARK    4  A    between atoms: S_7  and  C_10
REMARK    5  A    between atoms: N_17  and  C_18
REMARK    6  A    between atoms: C_18  and  C_19
REMARK    7  A    between atoms: C_22  and  C_23
REMARK                            x       y       z     vdW  Elec       q    Type
REMARK                         _______ _______ _______ _____ _____    ______ ____
ROOT
ATOM      1  C   UNL     1       1.817   7.438  19.687  0.00  0.00    +0.000 A 
ATOM      2  C   UNL     1       1.279   7.512  20.978  0.00  0.00    +0.000 A 
ATOM      3  C   UNL     1       0.696   8.694  21.443  0.00  0.00    +0.000 A 
ATOM      4  C   UNL     1       0.658   9.842  20.640  0.00  0.00    +0.000 A 
ATOM      5  C   UNL     1       1.211   9.762  19.355  0.00  0.00    +0.000 A 
ATOM      6  C   UNL     1       1.786   8.570  18.871  0.00  0.00    +0.000 A 
ATOM      7 CL   UNL     1       2.351   8.635  17.240  0.00  0.00    +0.000 Cl
ATOM      8  N   UNL     1       0.004  11.010  21.122  0.00  0.00    +0.000 N 
ATOM      9  C   UNL     1      -0.676  10.958  22.330  0.00  0.00    +0.000 C 
ATOM     10  O   UNL     1      -1.510  11.787  22.690  0.00  0.00    +0.000 OA
ATOM     11  C   UNL     1      -0.152   9.874  23.261  0.00  0.00    +0.000 C 
ATOM     12  O   UNL     1       0.162   8.617  22.699  0.00  0.00    +0.000 OA
ENDROOT
BRANCH   1  13
ATOM     13  S   UNL     1       2.611   5.907  19.250  0.00  0.00    +0.000 S 
ATOM     14  O   UNL     1       1.925   5.407  18.074  0.00  0.00    +0.000 OA
ATOM     15  O   UNL     1       2.703   5.068  20.413  0.00  0.00    +0.000 OA
BRANCH  13  19
ATOM     16  N   UNL     1       5.662   4.208  17.308  0.00  0.00    +0.000 NA
ATOM     17  C   UNL     1       5.519   4.264  18.780  0.00  0.00    +0.000 C 
ATOM     18  C   UNL     1       5.341   5.683  19.355  0.00  0.00    +0.000 C 
ATOM     19  N   UNL     1       4.177   6.386  18.736  0.00  0.00    +0.000 NA
ATOM     20  C   UNL     1       4.358   6.405  17.242  0.00  0.00    +0.000 C 
ATOM     21  C   UNL     1       4.565   4.983  16.674  0.00  0.00    +0.000 C 
BRANCH  16  23
ATOM     22  C   UNL     1       7.054   4.729  15.309  0.00  0.00    +0.000 C 
ATOM     23  C   UNL     1       6.981   4.638  16.831  0.00  0.00    +0.000 C 
ENDBRANCH  16  23
ENDBRANCH  13  19
ENDBRANCH   1  13
BRANCH   8  24
ATOM     24  C   UNL     1       0.070  12.299  20.443  0.00  0.00    +0.000 C 
BRANCH  24  25
ATOM     25  C   UNL     1       1.157  13.197  20.913  0.00  0.00    +0.000 A 
ATOM     26  N   UNL     1       0.998  13.958  22.008  0.00  0.00    +0.000 NA
ATOM     27  O   UNL     1       2.256  14.525  22.194  0.00  0.00    +0.000 OA
ATOM     28  C   UNL     1       3.053  14.025  21.208  0.00  0.00    +0.000 A 
ATOM     29  C   UNL     1       4.466  14.440  21.225  0.00  0.00    +0.000 C 
ATOM     30  N   UNL     1       2.434  13.195  20.401  0.00  0.00    +0.000 NA
ENDBRANCH  24  25
ENDBRANCH   8  24
TORSDOF 5
ENDMDL
MODEL 7
REMARK VINA RESULT:      -7.8      1.095      1.224
REMARK  Name = 
REMARK  7 active torsions:
REMARK  status: ('A' for Active; 'I' for Inactive)
REMARK    1  A    between atoms: C_1  and  C_2
REMARK    2  A    between atoms: C_2  and  N_3
REMARK    3  A    between atoms: N_6  and  S_7
REMARK    4  A    between atoms: S_7  and  C_10
REMARK    5  A    between atoms: N_17  and  C_18
REMARK    6  A    between atoms: C_18  and  C_19
REMARK    7  A    between atoms: C_22  and  C_23
REMARK                            x       y       z     vdW  Elec       q    Type
REMARK                         _______ _______ _______ _____ _____    ______ ____
ROOT
ATOM      1  C   UNL     1       1.297   8.420  19.712  0.00  0.00    +0.000 A 
ATOM      2  C   UNL     1       1.411   7.270  20.503  0.00  0.00    +0.000 A 
ATOM      3  C   UNL     1       2.247   6.219  20.121  0.00  0.00    +0.000 A 
ATOM      4  C   UNL     1       2.972   6.275  18.923  0.00  0.00    +0.000 A 
ATOM      5  C   UNL     1       2.842   7.423  18.131  0.00  0.00    +0.000 A 
ATOM      6  C   UNL     1       2.015   8.497  18.517  0.00  0.00    +0.000 A 
ATOM      7 CL   UNL     1       2.034   9.859  17.455  0.00  0.00    +0.000 Cl
ATOM      8  N   UNL     1       3.861   5.213  18.593  0.00  0.00    +0.000 N 
ATOM      9  C   UNL     1       4.071   4.195  19.512  0.00  0.00    +0.000 C 
ATOM     10  O   UNL     1       5.017   3.410  19.468  0.00  0.00    +0.000 OA
ATOM     11  C   UNL     1       2.910   4.016  20.479  0.00  0.00    +0.000 C 
ATOM     12  O   UNL     1       2.307   5.179  21.007  0.00  0.00    +0.000 OA
ENDROOT
BRANCH   1  13
ATOM     13  S   UNL     1       0.131   9.646  20.262  0.00  0.00    +0.000 S 
ATOM     14  O   UNL     1      -0.196   9.317  21.636  0.00  0.00    +0.000 OA
ATOM     15  O   UNL     1      -0.932   9.758  19.301  0.00  0.00    +0.000 OA
BRANCH  13  19
ATOM     16  N   UNL     1      -0.655  13.563  20.243  0.00  0.00    +0.000 NA
ATOM     17  C   UNL     1      -0.350  12.753  19.042  0.00  0.00    +0.000 C 
ATOM     18  C   UNL     1       0.982  11.982  19.108  0.00  0.00    +0.000 C 
ATOM     19  N   UNL     1       1.047  11.096  20.310  0.00  0.00    +0.000 NA
ATOM     20  C   UNL     1       0.819  11.930  21.542  0.00  0.00    +0.000 C 
ATOM     21  C   UNL     1      -0.503  12.723  21.458  0.00  0.00    +0.000 C 
BRANCH  16  23
ATOM     22  C   UNL     1      -0.043  15.694  19.106  0.00  0.00    +0.000 C 
ATOM     23  C   UNL     1       0.131  14.799  20.330  0.00  0.00    +0.000 C 
ENDBRANCH  16  23
ENDBRANCH  13  19
ENDBRANCH   1  13
BRANCH   8  24
ATOM     24  C   UNL     1       4.515   5.094  17.296  0.00  0.00    +0.000 C 
BRANCH  24  25
ATOM     25  C   UNL     1       5.806   5.822  17.179  0.00  0.00    +0.000 A 
ATOM     26  N   UNL     1       6.551   5.730  16.066  0.00  0.00    +0.000 NA
ATOM     27  O   UNL     1       7.576   6.646  16.285  0.00  0.00    +0.000 OA
ATOM     28  C   UNL     1       7.328   7.219  17.497  0.00  0.00    +0.000 A 
ATOM     29  C   UNL     1       8.256   8.275  17.933  0.00  0.00    +0.000 C 
ATOM     30  N   UNL     1       6.247   6.760  18.084  0.00  0.00    +0.000 NA
ENDBRANCH  24  25
ENDBRANCH   8  24
TORSDOF 5
ENDMDL
MODEL 8
REMARK VINA RESULT:      -7.6      1.551      2.177
REMARK  Name = 
REMARK  7 active torsions:
REMARK  status: ('A' for Active; 'I' for Inactive)
REMARK    1  A    between atoms: C_1  and  C_2
REMARK    2  A    between atoms: C_2  and  N_3
REMARK    3  A    between atoms: N_6  and  S_7
REMARK    4  A    between atoms: S_7  and  C_10
REMARK    5  A    between atoms: N_17  and  C_18
REMARK    6  A    between atoms: C_18  and  C_19
REMARK    7  A    between atoms: C_22  and  C_23
REMARK                            x       y       z     vdW  Elec       q    Type
REMARK                         _______ _______ _______ _____ _____    ______ ____
ROOT
ATOM      1  C   UNL     1       1.465   9.115  19.959  0.00  0.00    +0.000 A 
ATOM      2  C   UNL     1       1.328   7.989  20.781  0.00  0.00    +0.000 A 
ATOM      3  C   UNL     1       1.823   6.746  20.381  0.00  0.00    +0.000 A 
ATOM      4  C   UNL     1       2.446   6.586  19.136  0.00  0.00    +0.000 A 
ATOM      5  C   UNL     1       2.567   7.715  18.314  0.00  0.00    +0.000 A 
ATOM      6  C   UNL     1       2.086   8.977  18.716  0.00  0.00    +0.000 A 
ATOM      7 CL   UNL     1       2.388  10.267  17.609  0.00  0.00    +0.000 Cl
ATOM      8  N   UNL     1       2.993   5.320  18.784  0.00  0.00    +0.000 N 
ATOM      9  C   UNL     1       2.993   4.298  19.722  0.00  0.00    +0.000 C 
ATOM     10  O   UNL     1       3.690   3.288  19.643  0.00  0.00    +0.000 OA
ATOM     11  C   UNL     1       1.901   4.452  20.771  0.00  0.00    +0.000 C 
ATOM     12  O   UNL     1       1.670   5.742  21.297  0.00  0.00    +0.000 OA
ENDROOT
BRANCH   1  13
ATOM     13  S   UNL     1       0.712  10.616  20.543  0.00  0.00    +0.000 S 
ATOM     14  O   UNL     1       1.129  11.668  19.636  0.00  0.00    +0.000 OA
ATOM     15  O   UNL     1       0.972  10.765  21.949  0.00  0.00    +0.000 OA
BRANCH  13  19
ATOM     16  N   UNL     1      -2.007  11.893  17.908  0.00  0.00    +0.000 NA
ATOM     17  C   UNL     1      -1.744  12.516  19.224  0.00  0.00    +0.000 C 
ATOM     18  C   UNL     1      -1.861  11.556  20.424  0.00  0.00    +0.000 C 
ATOM     19  N   UNL     1      -0.965  10.370  20.271  0.00  0.00    +0.000 NA
ATOM     20  C   UNL     1      -1.285   9.684  18.970  0.00  0.00    +0.000 C 
ATOM     21  C   UNL     1      -1.195  10.657  17.774  0.00  0.00    +0.000 C 
BRANCH  16  23
ATOM     22  C   UNL     1      -3.671  10.927  16.326  0.00  0.00    +0.000 C 
ATOM     23  C   UNL     1      -3.430  11.642  17.653  0.00  0.00    +0.000 C 
ENDBRANCH  16  23
ENDBRANCH  13  19
ENDBRANCH   1  13
BRANCH   8  24
ATOM     24  C   UNL     1       3.493   5.010  17.450  0.00  0.00    +0.000 C 
BRANCH  24  25
ATOM     25  C   UNL     1       4.792   5.646  17.108  0.00  0.00    +0.000 A 
ATOM     26  N   UNL     1       5.081   5.986  15.841  0.00  0.00    +0.000 NA
ATOM     27  O   UNL     1       6.289   6.667  15.955  0.00  0.00    +0.000 OA
ATOM     28  C   UNL     1       6.592   6.694  17.284  0.00  0.00    +0.000 A 
ATOM     29  C   UNL     1       7.815   7.417  17.670  0.00  0.00    +0.000 C 
ATOM     30  N   UNL     1       5.701   6.094  18.038  0.00  0.00    +0.000 NA
ENDBRANCH  24  25
ENDBRANCH   8  24
TORSDOF 5
ENDMDL
MODEL 9
REMARK VINA RESULT:      -7.5      2.383      8.218
REMARK  Name = 
REMARK  7 active torsions:
REMARK  status: ('A' for Active; 'I' for Inactive)
REMARK    1  A    between atoms: C_1  and  C_2
REMARK    2  A    between atoms: C_2  and  N_3
REMARK    3  A    between atoms: N_6  and  S_7
REMARK    4  A    between atoms: S_7  and  C_10
REMARK    5  A    between atoms: N_17  and  C_18
REMARK    6  A    between atoms: C_18  and  C_19
REMARK    7  A    between atoms: C_22  and  C_23
REMARK                            x       y       z     vdW  Elec       q    Type
REMARK                         _______ _______ _______ _____ _____    ______ ____
ROOT
ATOM      1  C   UNL     1       1.891   7.282  19.756  0.00  0.00    +0.000 A 
ATOM      2  C   UNL     1       1.426   7.347  21.076  0.00  0.00    +0.000 A 
ATOM      3  C   UNL     1       0.826   8.509  21.566  0.00  0.00    +0.000 A 
ATOM      4  C   UNL     1       0.697   9.648  20.760  0.00  0.00    +0.000 A 
ATOM      5  C   UNL     1       1.177   9.579  19.445  0.00  0.00    +0.000 A 
ATOM      6  C   UNL     1       1.769   8.405  18.936  0.00  0.00    +0.000 A 
ATOM      7 CL   UNL     1       2.235   8.478  17.275  0.00  0.00    +0.000 Cl
ATOM      8  N   UNL     1       0.026  10.794  21.272  0.00  0.00    +0.000 N 
ATOM      9  C   UNL     1      -0.579  10.726  22.518  0.00  0.00    +0.000 C 
ATOM     10  O   UNL     1      -1.423  11.525  22.921  0.00  0.00    +0.000 OA
ATOM     11  C   UNL     1       0.040   9.672  23.424  0.00  0.00    +0.000 C 
ATOM     12  O   UNL     1       0.369   8.423  22.852  0.00  0.00    +0.000 OA
ENDROOT
BRANCH   1  13
ATOM     13  S   UNL     1       2.718   5.780  19.283  0.00  0.00    +0.000 S 
ATOM     14  O   UNL     1       2.020   5.275  18.116  0.00  0.00    +0.000 OA
ATOM     15  O   UNL     1       2.857   4.929  20.434  0.00  0.00    +0.000 OA
BRANCH  13  19
ATOM     16  N   UNL     1       5.747   4.209  17.204  0.00  0.00    +0.000 NA
ATOM     17  C   UNL     1       5.644   4.215  18.680  0.00  0.00    +0.000 C 
ATOM     18  C   UNL     1       5.454   5.611  19.306  0.00  0.00    +0.000 C 
ATOM     19  N   UNL     1       4.258   6.308  18.743  0.00  0.00    +0.000 NA
ATOM     20  C   UNL     1       4.397   6.378  17.246  0.00  0.00    +0.000 C 
ATOM     21  C   UNL     1       4.617   4.981  16.626  0.00  0.00    +0.000 C 
BRANCH  16  23
ATOM     22  C   UNL     1       7.093   4.757  15.181  0.00  0.00    +0.000 C 
ATOM     23  C   UNL     1       7.043   4.682  16.705  0.00  0.00    +0.000 C 
ENDBRANCH  16  23
ENDBRANCH  13  19
ENDBRANCH   1  13
BRANCH   8  24
ATOM     24  C   UNL     1       0.003  12.079  20.582  0.00  0.00    +0.000 C 
BRANCH  24  25
ATOM     25  C   UNL     1      -0.935  12.151  19.430  0.00  0.00    +0.000 A 
ATOM     26  N   UNL     1      -0.505  12.523  18.214  0.00  0.00    +0.000 NA
ATOM     27  O   UNL     1      -1.619  12.327  17.402  0.00  0.00    +0.000 OA
ATOM     28  C   UNL     1      -2.600  11.830  18.208  0.00  0.00    +0.000 A 
ATOM     29  C   UNL     1      -3.877  11.485  17.562  0.00  0.00    +0.000 C 
ATOM     30  N   UNL     1      -2.230  11.689  19.460  0.00  0.00    +0.000 NA
ENDBRANCH  24  25
ENDBRANCH   8  24
TORSDOF 5
ENDMDL
