MODEL 1
REMARK VINA RESULT:      -7.4      0.000      0.000
REMARK  Name = 
REMARK  13 active torsions:
REMARK  status: ('A' for Active; 'I' for Inactive)
REMARK    1  A    between atoms: C_1  and  N_2
REMARK    2  A    between atoms: N_2  and  C_3
REMARK    3  A    between atoms: N_2  and  C_25
REMARK    4  A    between atoms: C_3  and  C_4
REMARK    5  A    between atoms: C_4  and  C_5
REMARK    6  A    between atoms: C_5  and  N_6
REMARK    7  A    between atoms: C_7  and  C_9
REMARK    8  A    between atoms: C_9  and  C_10
REMARK    9  A    between atoms: C_10  and  C_11
REMARK   10  A    between atoms: C_11  and  O_12
REMARK   11  A    between atoms: O_12  and  C_13
REMARK   12  A    between atoms: N_17  and  C_18
REMARK   13  A    between atoms: C_25  and  C_26
REMARK                            x       y       z     vdW  Elec       q    Type
REMARK                         _______ _______ _______ _____ _____    ______ ____
ROOT
ATOM      1  N   UNL     1       1.923   5.548  18.149  0.00  0.00    +0.000 N 
ATOM      2  C   UNL     1       2.519   6.137  19.236  0.00  0.00    +0.000 C 
ATOM      3  O   UNL     1       3.178   5.508  20.058  0.00  0.00    +0.000 OA
ATOM      4  H   UNL     1       1.405   6.115  17.488  0.00  0.00    +0.000 HD
ENDROOT
BRANCH   1   5
ATOM      5  C   UNL     1       2.122   4.142  17.890  0.00  0.00    +0.000 C 
BRANCH   5   6
ATOM      6  C   UNL     1       3.259   3.874  16.920  0.00  0.00    +0.000 C 
BRANCH   6   7
ATOM      7  C   UNL     1       4.554   3.480  17.646  0.00  0.00    +0.000 C 
BRANCH   7   9
ATOM      8  C   UNL     1       6.387   4.966  18.186  0.00  0.00    +0.000 C 
ATOM      9  N   UNL     1       5.733   4.192  17.122  0.00  0.00    +0.000 NA
BRANCH   9  10
ATOM     10  C   UNL     1       5.367   5.110  16.021  0.00  0.00    +0.000 C 
BRANCH  10  11
ATOM     11  C   UNL     1       5.951   4.759  14.666  0.00  0.00    +0.000 A 
ATOM     12  C   UNL     1       7.164   5.323  14.242  0.00  0.00    +0.000 A 
ATOM     13  C   UNL     1       7.736   4.947  13.023  0.00  0.00    +0.000 A 
ATOM     14  C   UNL     1       7.094   4.015  12.209  0.00  0.00    +0.000 A 
ATOM     15  C   UNL     1       5.879   3.464  12.609  0.00  0.00    +0.000 A 
ATOM     16  C   UNL     1       5.313   3.830  13.832  0.00  0.00    +0.000 A 
ENDBRANCH  10  11
ENDBRANCH   9  10
ENDBRANCH   7   9
ENDBRANCH   6   7
ENDBRANCH   5   6
ENDBRANCH   1   5
BRANCH   2  17
ATOM     17  C   UNL     1       2.285   7.630  19.324  0.00  0.00    +0.000 C 
BRANCH  17  18
ATOM     18  C   UNL     1       2.519   8.309  17.976  0.00  0.00    +0.000 C 
BRANCH  18  19
ATOM     19  C   UNL     1       1.715   9.599  17.869  0.00  0.00    +0.000 C 
BRANCH  19  20
ATOM     20  O   UNL     1       0.317   9.308  17.822  0.00  0.00    +0.000 OA
BRANCH  20  21
ATOM     21  C   UNL     1      -0.500  10.225  18.463  0.00  0.00    +0.000 A 
ATOM     22  C   UNL     1      -0.199  10.861  19.605  0.00  0.00    +0.000 A 
ATOM     23  C   UNL     1      -1.122  11.799  20.268  0.00  0.00    +0.000 A 
ATOM     24  O   UNL     1      -0.753  12.323  21.313  0.00  0.00    +0.000 OA
ATOM     25  N   UNL     1      -2.347  12.018  19.663  0.00  0.00    +0.000 N 
ATOM     26  C   UNL     1      -3.281  12.907  20.334  0.00  0.00    +0.000 C 
ATOM     27  C   UNL     1      -2.699  11.397  18.425  0.00  0.00    +0.000 A 
ATOM     28  C   UNL     1      -3.927  11.661  17.798  0.00  0.00    +0.000 A 
ATOM     29  C   UNL     1      -4.257  11.058  16.582  0.00  0.00    +0.000 A 
ATOM     30  C   UNL     1      -3.367  10.181  15.979  0.00  0.00    +0.000 A 
ATOM     31  C   UNL     1      -2.142   9.903  16.592  0.00  0.00    +0.000 A 
ATOM     32  C   UNL     1      -1.791  10.508  17.815  0.00  0.00    +0.000 A 
ENDBRANCH  20  21
ENDBRANCH  19  20
ENDBRANCH  18  19
ENDBRANCH  17  18
ENDBRANCH   2  17
TORSDOF 11
ENDMDL
MODEL 2
REMARK VINA RESULT:      -7.3      6.228      9.461
REMARK  Name = 
REMARK  13 active torsions:
REMARK  status: ('A' for Active; 'I' for Inactive)
REMARK    1  A    between atoms: C_1  and  N_2
REMARK    2  A    between atoms: N_2  and  C_3
REMARK    3  A    between atoms: N_2  and  C_25
REMARK    4  A    between atoms: C_3  and  C_4
REMARK    5  A    between atoms: C_4  and  C_5
REMARK    6  A    between atoms: C_5  and  N_6
REMARK    7  A    between atoms: C_7  and  C_9
REMARK    8  A    between atoms: C_9  and  C_10
REMARK    9  A    between atoms: C_10  and  C_11
REMARK   10  A    between atoms: C_11  and  O_12
REMARK   11  A    between atoms: O_12  and  C_13
REMARK   12  A    between atoms: N_17  and  C_18
REMARK   13  A    between atoms: C_25  and  C_26
REMARK                            x       y       z     vdW  Elec       q    Type
REMARK                         _______ _______ _______ _____ _____    ______ ____
ROOT
ATOM      1  N   UNL     1       5.706   5.695  17.332  0.00  0.00    +0.000 N 
ATOM      2  C   UNL     1       7.050   5.939  17.199  0.00  0.00    +0.000 C 
ATOM      3  O   UNL     1       7.758   5.350  16.389  0.00  0.00    +0.000 OA
ATOM      4  H   UNL     1       5.160   6.222  18.003  0.00  0.00    +0.000 HD
ENDROOT
BRANCH   1   5
ATOM      5  C   UNL     1       5.050   4.765  16.444  0.00  0.00    +0.000 C 
BRANCH   5   6
ATOM      6  C   UNL     1       4.602   3.494  17.144  0.00  0.00    +0.000 C 
BRANCH   6   7
ATOM      7  C   UNL     1       4.418   3.704  18.655  0.00  0.00    +0.000 C 
BRANCH   7   9
ATOM      8  C   UNL     1       3.084   1.684  18.636  0.00  0.00    +0.000 C 
ATOM      9  N   UNL     1       3.204   3.047  19.171  0.00  0.00    +0.000 NA
BRANCH   9  10
ATOM     10  C   UNL     1       1.985   3.807  18.820  0.00  0.00    +0.000 C 
BRANCH  10  11
ATOM     11  C   UNL     1       2.008   5.276  19.195  0.00  0.00    +0.000 A 
ATOM     12  C   UNL     1       2.313   6.255  18.236  0.00  0.00    +0.000 A 
ATOM     13  C   UNL     1       2.266   7.613  18.567  0.00  0.00    +0.000 A 
ATOM     14  C   UNL     1       1.931   8.005  19.861  0.00  0.00    +0.000 A 
ATOM     15  C   UNL     1       1.648   7.042  20.827  0.00  0.00    +0.000 A 
ATOM     16  C   UNL     1       1.681   5.686  20.495  0.00  0.00    +0.000 A 
ENDBRANCH  10  11
ENDBRANCH   9  10
ENDBRANCH   7   9
ENDBRANCH   6   7
ENDBRANCH   5   6
ENDBRANCH   1   5
BRANCH   2  17
ATOM     17  C   UNL     1       7.573   6.998  18.146  0.00  0.00    +0.000 C 
BRANCH  17  18
ATOM     18  C   UNL     1       8.227   8.150  17.384  0.00  0.00    +0.000 C 
BRANCH  18  19
ATOM     19  C   UNL     1       8.082   9.461  18.147  0.00  0.00    +0.000 C 
BRANCH  19  20
ATOM     20  O   UNL     1       9.236   9.690  18.959  0.00  0.00    +0.000 OA
BRANCH  20  21
ATOM     21  C   UNL     1       9.783  10.959  18.864  0.00  0.00    +0.000 A 
ATOM     22  C   UNL     1      10.408  11.452  17.784  0.00  0.00    +0.000 A 
ATOM     23  C   UNL     1      11.007  12.797  17.748  0.00  0.00    +0.000 A 
ATOM     24  O   UNL     1      11.563  13.150  16.714  0.00  0.00    +0.000 OA
ATOM     25  N   UNL     1      10.907  13.568  18.893  0.00  0.00    +0.000 N 
ATOM     26  C   UNL     1      11.535  14.878  18.882  0.00  0.00    +0.000 C 
ATOM     27  C   UNL     1      10.216  13.104  20.055  0.00  0.00    +0.000 A 
ATOM     28  C   UNL     1      10.082  13.913  21.196  0.00  0.00    +0.000 A 
ATOM     29  C   UNL     1       9.394  13.456  22.323  0.00  0.00    +0.000 A 
ATOM     30  C   UNL     1       8.836  12.184  22.327  0.00  0.00    +0.000 A 
ATOM     31  C   UNL     1       8.965  11.366  21.202  0.00  0.00    +0.000 A 
ATOM     32  C   UNL     1       9.649  11.814  20.055  0.00  0.00    +0.000 A 
ENDBRANCH  20  21
ENDBRANCH  19  20
ENDBRANCH  18  19
ENDBRANCH  17  18
ENDBRANCH   2  17
TORSDOF 11
ENDMDL
MODEL 3
REMARK VINA RESULT:      -7.3      2.682      3.846
REMARK  Name = 
REMARK  13 active torsions:
REMARK  status: ('A' for Active; 'I' for Inactive)
REMARK    1  A    between atoms: C_1  and  N_2
REMARK    2  A    between atoms: N_2  and  C_3
REMARK    3  A    between atoms: N_2  and  C_25
REMARK    4  A    between atoms: C_3  and  C_4
REMARK    5  A    between atoms: C_4  and  C_5
REMARK    6  A    between atoms: C_5  and  N_6
REMARK    7  A    between atoms: C_7  and  C_9
REMARK    8  A    between atoms: C_9  and  C_10
REMARK    9  A    between atoms: C_10  and  C_11
REMARK   10  A    between atoms: C_11  and  O_12
REMARK   11  A    between atoms: O_12  and  C_13
REMARK   12  A    between atoms: N_17  and  C_18
REMARK   13  A    between atoms: C_25  and  C_26
REMARK                            x       y       z     vdW  Elec       q    Type
REMARK                         _______ _______ _______ _____ _____    ______ ____
ROOT
ATOM      1  N   UNL     1       2.837   2.612  19.050  0.00  0.00    +0.000 N 
ATOM      2  C   UNL     1       1.626   3.138  18.671  0.00  0.00    +0.000 C 
ATOM      3  O   UNL     1       1.379   3.483  17.521  0.00  0.00    +0.000 OA
ATOM      4  H   UNL     1       2.984   2.323  20.009  0.00  0.00    +0.000 HD
ENDROOT
BRANCH   1   5
ATOM      5  C   UNL     1       3.860   2.373  18.060  0.00  0.00    +0.000 C 
BRANCH   5   6
ATOM      6  C   UNL     1       4.212   3.615  17.261  0.00  0.00    +0.000 C 
BRANCH   6   7
ATOM      7  C   UNL     1       5.417   4.360  17.857  0.00  0.00    +0.000 C 
BRANCH   7   9
ATOM      8  C   UNL     1       7.833   4.467  17.764  0.00  0.00    +0.000 C 
ATOM      9  N   UNL     1       6.600   4.311  16.980  0.00  0.00    +0.000 NA
BRANCH   9  10
ATOM     10  C   UNL     1       6.553   5.370  15.949  0.00  0.00    +0.000 C 
BRANCH  10  11
ATOM     11  C   UNL     1       6.639   4.881  14.516  0.00  0.00    +0.000 A 
ATOM     12  C   UNL     1       7.564   5.443  13.622  0.00  0.00    +0.000 A 
ATOM     13  C   UNL     1       7.689   4.944  12.322  0.00  0.00    +0.000 A 
ATOM     14  C   UNL     1       6.882   3.891  11.897  0.00  0.00    +0.000 A 
ATOM     15  C   UNL     1       5.945   3.339  12.768  0.00  0.00    +0.000 A 
ATOM     16  C   UNL     1       5.827   3.828  14.071  0.00  0.00    +0.000 A 
ENDBRANCH  10  11
ENDBRANCH   9  10
ENDBRANCH   7   9
ENDBRANCH   6   7
ENDBRANCH   5   6
ENDBRANCH   1   5
BRANCH   2  17
ATOM     17  C   UNL     1       0.631   3.250  19.806  0.00  0.00    +0.000 C 
BRANCH  17  18
ATOM     18  C   UNL     1       1.031   4.349  20.790  0.00  0.00    +0.000 C 
BRANCH  18  19
ATOM     19  C   UNL     1       1.671   5.526  20.062  0.00  0.00    +0.000 C 
BRANCH  19  20
ATOM     20  O   UNL     1       1.730   6.665  20.922  0.00  0.00    +0.000 OA
BRANCH  20  21
ATOM     21  C   UNL     1       1.525   7.886  20.300  0.00  0.00    +0.000 A 
ATOM     22  C   UNL     1       1.942   8.203  19.065  0.00  0.00    +0.000 A 
ATOM     23  C   UNL     1       1.732   9.532  18.464  0.00  0.00    +0.000 A 
ATOM     24  O   UNL     1       2.159   9.723  17.331  0.00  0.00    +0.000 OA
ATOM     25  N   UNL     1       1.070  10.477  19.228  0.00  0.00    +0.000 N 
ATOM     26  C   UNL     1       0.898  11.804  18.661  0.00  0.00    +0.000 C 
ATOM     27  C   UNL     1       0.570  10.176  20.533  0.00  0.00    +0.000 A 
ATOM     28  C   UNL     1      -0.139  11.129  21.282  0.00  0.00    +0.000 A 
ATOM     29  C   UNL     1      -0.634  10.822  22.551  0.00  0.00    +0.000 A 
ATOM     30  C   UNL     1      -0.424   9.560  23.091  0.00  0.00    +0.000 A 
ATOM     31  C   UNL     1       0.284   8.601  22.361  0.00  0.00    +0.000 A 
ATOM     32  C   UNL     1       0.784   8.893  21.077  0.00  0.00    +0.000 A 
ENDBRANCH  20  21
ENDBRANCH  19  20
ENDBRANCH  18  19
ENDBRANCH  17  18
ENDBRANCH   2  17
TORSDOF 11
ENDMDL
MODEL 4
REMARK VINA RESULT:      -7.2      2.400      3.548
REMARK  Name = 
REMARK  13 active torsions:
REMARK  status: ('A' for Active; 'I' for Inactive)
REMARK    1  A    between atoms: C_1  and  N_2
REMARK    2  A    between atoms: N_2  and  C_3
REMARK    3  A    between atoms: N_2  and  C_25
REMARK    4  A    between atoms: C_3  and  C_4
REMARK    5  A    between atoms: C_4  and  C_5
REMARK    6  A    between atoms: C_5  and  N_6
REMARK    7  A    between atoms: C_7  and  C_9
REMARK    8  A    between atoms: C_9  and  C_10
REMARK    9  A    between atoms: C_10  and  C_11
REMARK   10  A    between atoms: C_11  and  O_12
REMARK   11  A    between atoms: O_12  and  C_13
REMARK   12  A    between atoms: N_17  and  C_18
REMARK   13  A    between atoms: C_25  and  C_26
REMARK                            x       y       z     vdW  Elec       q    Type
REMARK                         _______ _______ _______ _____ _____    ______ ____
ROOT
ATOM      1  N   UNL     1       1.421   4.845  19.355  0.00  0.00    +0.000 N 
ATOM      2  C   UNL     1       2.212   5.963  19.259  0.00  0.00    +0.000 C 
ATOM      3  O   UNL     1       2.802   6.447  20.219  0.00  0.00    +0.000 OA
ATOM      4  H   UNL     1       0.970   4.473  18.528  0.00  0.00    +0.000 HD
ENDROOT
BRANCH   1   5
ATOM      5  C   UNL     1       1.317   4.141  20.611  0.00  0.00    +0.000 C 
BRANCH   5   6
ATOM      6  C   UNL     1       2.449   3.154  20.831  0.00  0.00    +0.000 C 
BRANCH   6   7
ATOM      7  C   UNL     1       2.782   2.367  19.554  0.00  0.00    +0.000 C 
BRANCH   7   9
ATOM      8  C   UNL     1       4.869   1.360  20.256  0.00  0.00    +0.000 C 
ATOM      9  N   UNL     1       4.233   2.283  19.306  0.00  0.00    +0.000 NA
BRANCH   9  10
ATOM     10  C   UNL     1       4.880   3.608  19.422  0.00  0.00    +0.000 C 
BRANCH  10  11
ATOM     11  C   UNL     1       5.184   4.296  18.105  0.00  0.00    +0.000 A 
ATOM     12  C   UNL     1       5.938   5.480  18.074  0.00  0.00    +0.000 A 
ATOM     13  C   UNL     1       6.275   6.076  16.855  0.00  0.00    +0.000 A 
ATOM     14  C   UNL     1       5.851   5.504  15.657  0.00  0.00    +0.000 A 
ATOM     15  C   UNL     1       5.083   4.341  15.676  0.00  0.00    +0.000 A 
ATOM     16  C   UNL     1       4.756   3.738  16.893  0.00  0.00    +0.000 A 
ENDBRANCH  10  11
ENDBRANCH   9  10
ENDBRANCH   7   9
ENDBRANCH   6   7
ENDBRANCH   5   6
ENDBRANCH   1   5
BRANCH   2  17
ATOM     17  C   UNL     1       2.284   6.539  17.861  0.00  0.00    +0.000 C 
BRANCH  17  18
ATOM     18  C   UNL     1       2.997   7.890  17.853  0.00  0.00    +0.000 C 
BRANCH  18  19
ATOM     19  C   UNL     1       1.993   9.036  17.877  0.00  0.00    +0.000 C 
BRANCH  19  20
ATOM     20  O   UNL     1       1.312   9.070  19.133  0.00  0.00    +0.000 OA
BRANCH  20  21
ATOM     21  C   UNL     1       0.576  10.218  19.376  0.00  0.00    +0.000 A 
ATOM     22  C   UNL     1       0.360  11.200  18.487  0.00  0.00    +0.000 A 
ATOM     23  C   UNL     1      -0.397  12.421  18.810  0.00  0.00    +0.000 A 
ATOM     24  O   UNL     1      -0.532  13.262  17.927  0.00  0.00    +0.000 OA
ATOM     25  N   UNL     1      -0.899  12.537  20.094  0.00  0.00    +0.000 N 
ATOM     26  C   UNL     1      -1.608  13.759  20.434  0.00  0.00    +0.000 C 
ATOM     27  C   UNL     1      -0.731  11.502  21.065  0.00  0.00    +0.000 A 
ATOM     28  C   UNL     1      -1.283  11.611  22.352  0.00  0.00    +0.000 A 
ATOM     29  C   UNL     1      -1.123  10.589  23.291  0.00  0.00    +0.000 A 
ATOM     30  C   UNL     1      -0.407   9.447  22.957  0.00  0.00    +0.000 A 
ATOM     31  C   UNL     1       0.153   9.325  21.683  0.00  0.00    +0.000 A 
ATOM     32  C   UNL     1      -0.004  10.344  20.723  0.00  0.00    +0.000 A 
ENDBRANCH  20  21
ENDBRANCH  19  20
ENDBRANCH  18  19
ENDBRANCH  17  18
ENDBRANCH   2  17
TORSDOF 11
ENDMDL
MODEL 5
REMARK VINA RESULT:      -7.2      2.932      4.819
REMARK  Name = 
REMARK  13 active torsions:
REMARK  status: ('A' for Active; 'I' for Inactive)
REMARK    1  A    between atoms: C_1  and  N_2
REMARK    2  A    between atoms: N_2  and  C_3
REMARK    3  A    between atoms: N_2  and  C_25
REMARK    4  A    between atoms: C_3  and  C_4
REMARK    5  A    between atoms: C_4  and  C_5
REMARK    6  A    between atoms: C_5  and  N_6
REMARK    7  A    between atoms: C_7  and  C_9
REMARK    8  A    between atoms: C_9  and  C_10
REMARK    9  A    between atoms: C_10  and  C_11
REMARK   10  A    between atoms: C_11  and  O_12
REMARK   11  A    between atoms: O_12  and  C_13
REMARK   12  A    between atoms: N_17  and  C_18
REMARK   13  A    between atoms: C_25  and  C_26
REMARK                            x       y       z     vdW  Elec       q    Type
REMARK                         _______ _______ _______ _____ _____    ______ ____
ROOT
ATOM      1  N   UNL     1       2.942   2.688  19.101  0.00  0.00    +0.000 N 
ATOM      2  C   UNL     1       1.668   2.380  19.509  0.00  0.00    +0.000 C 
ATOM      3  O   UNL     1       0.805   1.964  18.743  0.00  0.00    +0.000 OA
ATOM      4  H   UNL     1       3.625   3.010  19.777  0.00  0.00    +0.000 HD
ENDROOT
BRANCH   1   5
ATOM      5  C   UNL     1       3.338   2.453  17.733  0.00  0.00    +0.000 C 
BRANCH   5   6
ATOM      6  C   UNL     1       3.645   3.734  16.978  0.00  0.00    +0.000 C 
BRANCH   6   7
ATOM      7  C   UNL     1       5.044   3.706  16.343  0.00  0.00    +0.000 C 
BRANCH   7   9
ATOM      8  C   UNL     1       6.664   4.835  14.942  0.00  0.00    +0.000 C 
ATOM      9  N   UNL     1       5.306   4.888  15.502  0.00  0.00    +0.000 NA
BRANCH   9  10
ATOM     10  C   UNL     1       5.155   6.143  16.269  0.00  0.00    +0.000 C 
BRANCH  10  11
ATOM     11  C   UNL     1       6.318   6.487  17.180  0.00  0.00    +0.000 A 
ATOM     12  C   UNL     1       6.995   7.710  17.045  0.00  0.00    +0.000 A 
ATOM     13  C   UNL     1       8.021   8.056  17.929  0.00  0.00    +0.000 A 
ATOM     14  C   UNL     1       8.392   7.178  18.946  0.00  0.00    +0.000 A 
ATOM     15  C   UNL     1       7.743   5.953  19.076  0.00  0.00    +0.000 A 
ATOM     16  C   UNL     1       6.709   5.611  18.202  0.00  0.00    +0.000 A 
ENDBRANCH  10  11
ENDBRANCH   9  10
ENDBRANCH   7   9
ENDBRANCH   6   7
ENDBRANCH   5   6
ENDBRANCH   1   5
BRANCH   2  17
ATOM     17  C   UNL     1       1.432   2.604  20.987  0.00  0.00    +0.000 C 
BRANCH  17  18
ATOM     18  C   UNL     1       2.041   3.925  21.454  0.00  0.00    +0.000 C 
BRANCH  18  19
ATOM     19  C   UNL     1       1.526   5.089  20.616  0.00  0.00    +0.000 C 
BRANCH  19  20
ATOM     20  O   UNL     1       1.861   6.331  21.237  0.00  0.00    +0.000 OA
BRANCH  20  21
ATOM     21  C   UNL     1       1.701   7.453  20.440  0.00  0.00    +0.000 A 
ATOM     22  C   UNL     1       2.157   7.579  19.184  0.00  0.00    +0.000 A 
ATOM     23  C   UNL     1       1.993   8.811  18.393  0.00  0.00    +0.000 A 
ATOM     24  O   UNL     1       2.453   8.827  17.256  0.00  0.00    +0.000 OA
ATOM     25  N   UNL     1       1.335   9.870  18.993  0.00  0.00    +0.000 N 
ATOM     26  C   UNL     1       1.210  11.104  18.236  0.00  0.00    +0.000 C 
ATOM     27  C   UNL     1       0.795   9.771  20.313  0.00  0.00    +0.000 A 
ATOM     28  C   UNL     1       0.091  10.837  20.896  0.00  0.00    +0.000 A 
ATOM     29  C   UNL     1      -0.443  10.726  22.182  0.00  0.00    +0.000 A 
ATOM     30  C   UNL     1      -0.277   9.552  22.904  0.00  0.00    +0.000 A 
ATOM     31  C   UNL     1       0.426   8.484  22.340  0.00  0.00    +0.000 A 
ATOM     32  C   UNL     1       0.966   8.577  21.042  0.00  0.00    +0.000 A 
ENDBRANCH  20  21
ENDBRANCH  19  20
ENDBRANCH  18  19
ENDBRANCH  17  18
ENDBRANCH   2  17
TORSDOF 11
ENDMDL
MODEL 6
REMARK VINA RESULT:      -7.1      2.632      9.421
REMARK  Name = 
REMARK  13 active torsions:
REMARK  status: ('A' for Active; 'I' for Inactive)
REMARK    1  A    between atoms: C_1  and  N_2
REMARK    2  A    between atoms: N_2  and  C_3
REMARK    3  A    between atoms: N_2  and  C_25
REMARK    4  A    between atoms: C_3  and  C_4
REMARK    5  A    between atoms: C_4  and  C_5
REMARK    6  A    between atoms: C_5  and  N_6
REMARK    7  A    between atoms: C_7  and  C_9
REMARK    8  A    between atoms: C_9  and  C_10
REMARK    9  A    between atoms: C_10  and  C_11
REMARK   10  A    between atoms: C_11  and  O_12
REMARK   11  A    between atoms: O_12  and  C_13
REMARK   12  A    between atoms: N_17  and  C_18
REMARK   13  A    between atoms: C_25  and  C_26
REMARK                            x       y       z     vdW  Elec       q    Type
REMARK                         _______ _______ _______ _____ _____    ______ ____
ROOT
ATOM      1  N   UNL     1       2.061   5.552  19.070  0.00  0.00    +0.000 N 
ATOM      2  C   UNL     1       1.921   4.591  20.041  0.00  0.00    +0.000 C 
ATOM      3  O   UNL     1       2.461   4.668  21.139  0.00  0.00    +0.000 OA
ATOM      4  H   UNL     1       1.578   5.451  18.186  0.00  0.00    +0.000 HD
ENDROOT
BRANCH   1   5
ATOM      5  C   UNL     1       2.811   6.754  19.349  0.00  0.00    +0.000 C 
BRANCH   5   6
ATOM      6  C   UNL     1       1.924   7.954  19.625  0.00  0.00    +0.000 C 
BRANCH   6   7
ATOM      7  C   UNL     1       1.485   8.018  21.096  0.00  0.00    +0.000 C 
BRANCH   7   9
ATOM      8  C   UNL     1       0.539   9.359  22.876  0.00  0.00    +0.000 C 
ATOM      9  N   UNL     1       0.864   9.308  21.444  0.00  0.00    +0.000 NA
BRANCH   9  10
ATOM     10  C   UNL     1      -0.372   9.542  20.666  0.00  0.00    +0.000 C 
BRANCH  10  11
ATOM     11  C   UNL     1      -0.364  10.786  19.797  0.00  0.00    +0.000 A 
ATOM     12  C   UNL     1      -1.401  11.027  18.882  0.00  0.00    +0.000 A 
ATOM     13  C   UNL     1      -1.427  12.206  18.132  0.00  0.00    +0.000 A 
ATOM     14  C   UNL     1      -0.412  13.149  18.277  0.00  0.00    +0.000 A 
ATOM     15  C   UNL     1       0.635  12.911  19.166  0.00  0.00    +0.000 A 
ATOM     16  C   UNL     1       0.656  11.739  19.925  0.00  0.00    +0.000 A 
ENDBRANCH  10  11
ENDBRANCH   9  10
ENDBRANCH   7   9
ENDBRANCH   6   7
ENDBRANCH   5   6
ENDBRANCH   1   5
BRANCH   2  17
ATOM     17  C   UNL     1       1.039   3.432  19.627  0.00  0.00    +0.000 C 
BRANCH  17  18
ATOM     18  C   UNL     1       1.535   2.793  18.331  0.00  0.00    +0.000 C 
BRANCH  18  19
ATOM     19  C   UNL     1       2.942   2.232  18.503  0.00  0.00    +0.000 C 
BRANCH  19  20
ATOM     20  O   UNL     1       3.745   2.553  17.365  0.00  0.00    +0.000 OA
BRANCH  20  21
ATOM     21  C   UNL     1       4.743   3.486  17.590  0.00  0.00    +0.000 A 
ATOM     22  C   UNL     1       5.098   3.962  18.793  0.00  0.00    +0.000 A 
ATOM     23  C   UNL     1       6.142   4.986  18.974  0.00  0.00    +0.000 A 
ATOM     24  O   UNL     1       6.387   5.360  20.116  0.00  0.00    +0.000 OA
ATOM     25  N   UNL     1       6.771   5.460  17.836  0.00  0.00    +0.000 N 
ATOM     26  C   UNL     1       7.769   6.502  18.001  0.00  0.00    +0.000 C 
ATOM     27  C   UNL     1       6.457   4.956  16.536  0.00  0.00    +0.000 A 
ATOM     28  C   UNL     1       7.133   5.413  15.393  0.00  0.00    +0.000 A 
ATOM     29  C   UNL     1       6.827   4.905  14.128  0.00  0.00    +0.000 A 
ATOM     30  C   UNL     1       5.841   3.938  13.988  0.00  0.00    +0.000 A 
ATOM     31  C   UNL     1       5.156   3.477  15.115  0.00  0.00    +0.000 A 
ATOM     32  C   UNL     1       5.456   3.973  16.398  0.00  0.00    +0.000 A 
ENDBRANCH  20  21
ENDBRANCH  19  20
ENDBRANCH  18  19
ENDBRANCH  17  18
ENDBRANCH   2  17
TORSDOF 11
ENDMDL
MODEL 7
REMARK VINA RESULT:      -7.1      7.188      9.924
REMARK  Name = 
REMARK  13 active torsions:
REMARK  status: ('A' for Active; 'I' for Inactive)
REMARK    1  A    between atoms: C_1  and  N_2
REMARK    2  A    between atoms: N_2  and  C_3
REMARK    3  A    between atoms: N_2  and  C_25
REMARK    4  A    between atoms: C_3  and  C_4
REMARK    5  A    between atoms: C_4  and  C_5
REMARK    6  A    between atoms: C_5  and  N_6
REMARK    7  A    between atoms: C_7  and  C_9
REMARK    8  A    between atoms: C_9  and  C_10
REMARK    9  A    between atoms: C_10  and  C_11
REMARK   10  A    between atoms: C_11  and  O_12
REMARK   11  A    between atoms: O_12  and  C_13
REMARK   12  A    between atoms: N_17  and  C_18
REMARK   13  A    between atoms: C_25  and  C_26
REMARK                            x       y       z     vdW  Elec       q    Type
REMARK                         _______ _______ _______ _____ _____    ______ ____
ROOT
ATOM      1  N   UNL     1       7.516   6.427  16.519  0.00  0.00    +0.000 N 
ATOM      2  C   UNL     1       7.662   7.054  17.731  0.00  0.00    +0.000 C 
ATOM      3  O   UNL     1       7.660   6.452  18.799  0.00  0.00    +0.000 OA
ATOM      4  H   UNL     1       7.544   6.968  15.663  0.00  0.00    +0.000 HD
ENDROOT
BRANCH   1   5
ATOM      5  C   UNL     1       7.427   4.987  16.458  0.00  0.00    +0.000 C 
BRANCH   5   6
ATOM      6  C   UNL     1       6.130   4.500  15.837  0.00  0.00    +0.000 C 
BRANCH   6   7
ATOM      7  C   UNL     1       5.162   3.941  16.892  0.00  0.00    +0.000 C 
BRANCH   7   9
ATOM      8  C   UNL     1       4.373   6.214  16.631  0.00  0.00    +0.000 C 
ATOM      9  N   UNL     1       4.171   4.938  17.332  0.00  0.00    +0.000 NA
BRANCH   9  10
ATOM     10  C   UNL     1       4.254   5.177  18.789  0.00  0.00    +0.000 C 
BRANCH  10  11
ATOM     11  C   UNL     1       3.237   4.424  19.626  0.00  0.00    +0.000 A 
ATOM     12  C   UNL     1       1.946   4.942  19.821  0.00  0.00    +0.000 A 
ATOM     13  C   UNL     1       0.989   4.215  20.534  0.00  0.00    +0.000 A 
ATOM     14  C   UNL     1       1.314   2.972  21.072  0.00  0.00    +0.000 A 
ATOM     15  C   UNL     1       2.597   2.456  20.904  0.00  0.00    +0.000 A 
ATOM     16  C   UNL     1       3.551   3.176  20.181  0.00  0.00    +0.000 A 
ENDBRANCH  10  11
ENDBRANCH   9  10
ENDBRANCH   7   9
ENDBRANCH   6   7
ENDBRANCH   5   6
ENDBRANCH   1   5
BRANCH   2  17
ATOM     17  C   UNL     1       7.825   8.556  17.623  0.00  0.00    +0.000 C 
BRANCH  17  18
ATOM     18  C   UNL     1       8.765   9.091  18.702  0.00  0.00    +0.000 C 
BRANCH  18  19
ATOM     19  C   UNL     1       9.214  10.511  18.378  0.00  0.00    +0.000 C 
BRANCH  19  20
ATOM     20  O   UNL     1       9.250  11.302  19.568  0.00  0.00    +0.000 OA
BRANCH  20  21
ATOM     21  C   UNL     1       9.982  12.474  19.476  0.00  0.00    +0.000 A 
ATOM     22  C   UNL     1      10.765  12.817  18.442  0.00  0.00    +0.000 A 
ATOM     23  C   UNL     1      11.555  14.060  18.412  0.00  0.00    +0.000 A 
ATOM     24  O   UNL     1      12.245  14.277  17.421  0.00  0.00    +0.000 OA
ATOM     25  N   UNL     1      11.467  14.896  19.511  0.00  0.00    +0.000 N 
ATOM     26  C   UNL     1      12.277  16.102  19.509  0.00  0.00    +0.000 C 
ATOM     27  C   UNL     1      10.615  14.596  20.619  0.00  0.00    +0.000 A 
ATOM     28  C   UNL     1      10.500  15.473  21.710  0.00  0.00    +0.000 A 
ATOM     29  C   UNL     1       9.656  15.177  22.783  0.00  0.00    +0.000 A 
ATOM     30  C   UNL     1       8.921  13.999  22.783  0.00  0.00    +0.000 A 
ATOM     31  C   UNL     1       9.029  13.113  21.708  0.00  0.00    +0.000 A 
ATOM     32  C   UNL     1       9.870  13.400  20.615  0.00  0.00    +0.000 A 
ENDBRANCH  20  21
ENDBRANCH  19  20
ENDBRANCH  18  19
ENDBRANCH  17  18
ENDBRANCH   2  17
TORSDOF 11
ENDMDL
MODEL 8
REMARK VINA RESULT:      -7.0      6.915      9.730
REMARK  Name = 
REMARK  13 active torsions:
REMARK  status: ('A' for Active; 'I' for Inactive)
REMARK    1  A    between atoms: C_1  and  N_2
REMARK    2  A    between atoms: N_2  and  C_3
REMARK    3  A    between atoms: N_2  and  C_25
REMARK    4  A    between atoms: C_3  and  C_4
REMARK    5  A    between atoms: C_4  and  C_5
REMARK    6  A    between atoms: C_5  and  N_6
REMARK    7  A    between atoms: C_7  and  C_9
REMARK    8  A    between atoms: C_9  and  C_10
REMARK    9  A    between atoms: C_10  and  C_11
REMARK   10  A    between atoms: C_11  and  O_12
REMARK   11  A    between atoms: O_12  and  C_13
REMARK   12  A    between atoms: N_17  and  C_18
REMARK   13  A    between atoms: C_25  and  C_26
REMARK                            x       y       z     vdW  Elec       q    Type
REMARK                         _______ _______ _______ _____ _____    ______ ____
ROOT
ATOM      1  N   UNL     1       7.691   5.867  18.529  0.00  0.00    +0.000 N 
ATOM      2  C   UNL     1       7.777   7.022  17.792  0.00  0.00    +0.000 C 
ATOM      3  O   UNL     1       7.456   7.084  16.610  0.00  0.00    +0.000 OA
ATOM      4  H   UNL     1       7.950   5.873  19.508  0.00  0.00    +0.000 HD
ENDROOT
BRANCH   1   5
ATOM      5  C   UNL     1       7.133   4.674  17.937  0.00  0.00    +0.000 C 
BRANCH   5   6
ATOM      6  C   UNL     1       5.704   4.410  18.375  0.00  0.00    +0.000 C 
BRANCH   6   7
ATOM      7  C   UNL     1       5.001   5.691  18.850  0.00  0.00    +0.000 C 
BRANCH   7   9
ATOM      8  C   UNL     1       4.030   7.324  17.350  0.00  0.00    +0.000 C 
ATOM      9  N   UNL     1       3.831   6.032  18.021  0.00  0.00    +0.000 NA
BRANCH   9  10
ATOM     10  C   UNL     1       2.596   6.101  18.831  0.00  0.00    +0.000 C 
BRANCH  10  11
ATOM     11  C   UNL     1       2.022   4.761  19.250  0.00  0.00    +0.000 A 
ATOM     12  C   UNL     1       1.870   4.441  20.608  0.00  0.00    +0.000 A 
ATOM     13  C   UNL     1       1.278   3.234  20.993  0.00  0.00    +0.000 A 
ATOM     14  C   UNL     1       0.847   2.329  20.025  0.00  0.00    +0.000 A 
ATOM     15  C   UNL     1       1.012   2.625  18.674  0.00  0.00    +0.000 A 
ATOM     16  C   UNL     1       1.592   3.836  18.289  0.00  0.00    +0.000 A 
ENDBRANCH  10  11
ENDBRANCH   9  10
ENDBRANCH   7   9
ENDBRANCH   6   7
ENDBRANCH   5   6
ENDBRANCH   1   5
BRANCH   2  17
ATOM     17  C   UNL     1       8.304   8.206  18.574  0.00  0.00    +0.000 C 
BRANCH  17  18
ATOM     18  C   UNL     1       8.523   9.417  17.670  0.00  0.00    +0.000 C 
BRANCH  18  19
ATOM     19  C   UNL     1       8.545  10.707  18.481  0.00  0.00    +0.000 C 
BRANCH  19  20
ATOM     20  O   UNL     1       9.734  10.773  19.272  0.00  0.00    +0.000 OA
BRANCH  20  21
ATOM     21  C   UNL     1       9.813  11.857  20.131  0.00  0.00    +0.000 A 
ATOM     22  C   UNL     1       9.171  11.960  21.304  0.00  0.00    +0.000 A 
ATOM     23  C   UNL     1       9.259  13.155  22.163  0.00  0.00    +0.000 A 
ATOM     24  O   UNL     1       8.628  13.152  23.215  0.00  0.00    +0.000 OA
ATOM     25  N   UNL     1      10.045  14.202  21.717  0.00  0.00    +0.000 N 
ATOM     26  C   UNL     1      10.100  15.401  22.536  0.00  0.00    +0.000 C 
ATOM     27  C   UNL     1      10.780  14.125  20.494  0.00  0.00    +0.000 A 
ATOM     28  C   UNL     1      11.609  15.177  20.072  0.00  0.00    +0.000 A 
ATOM     29  C   UNL     1      12.333  15.088  18.881  0.00  0.00    +0.000 A 
ATOM     30  C   UNL     1      12.234  13.948  18.093  0.00  0.00    +0.000 A 
ATOM     31  C   UNL     1      11.409  12.895  18.496  0.00  0.00    +0.000 A 
ATOM     32  C   UNL     1      10.678  12.967  19.697  0.00  0.00    +0.000 A 
ENDBRANCH  20  21
ENDBRANCH  19  20
ENDBRANCH  18  19
ENDBRANCH  17  18
ENDBRANCH   2  17
TORSDOF 11
ENDMDL
MODEL 9
REMARK VINA RESULT:      -7.0      6.223      9.478
REMARK  Name = 
REMARK  13 active torsions:
REMARK  status: ('A' for Active; 'I' for Inactive)
REMARK    1  A    between atoms: C_1  and  N_2
REMARK    2  A    between atoms: N_2  and  C_3
REMARK    3  A    between atoms: N_2  and  C_25
REMARK    4  A    between atoms: C_3  and  C_4
REMARK    5  A    between atoms: C_4  and  C_5
REMARK    6  A    between atoms: C_5  and  N_6
REMARK    7  A    between atoms: C_7  and  C_9
REMARK    8  A    between atoms: C_9  and  C_10
REMARK    9  A    between atoms: C_10  and  C_11
REMARK   10  A    between atoms: C_11  and  O_12
REMARK   11  A    between atoms: O_12  and  C_13
REMARK   12  A    between atoms: N_17  and  C_18
REMARK   13  A    between atoms: C_25  and  C_26
REMARK                            x       y       z     vdW  Elec       q    Type
REMARK                         _______ _______ _______ _____ _____    ______ ____
ROOT
ATOM      1  N   UNL     1       5.450   5.606  16.466  0.00  0.00    +0.000 N 
ATOM      2  C   UNL     1       6.669   6.002  16.958  0.00  0.00    +0.000 C 
ATOM      3  O   UNL     1       7.597   5.223  17.148  0.00  0.00    +0.000 OA
ATOM      4  H   UNL     1       4.722   6.292  16.308  0.00  0.00    +0.000 HD
ENDROOT
BRANCH   1   5
ATOM      5  C   UNL     1       5.242   4.231  16.075  0.00  0.00    +0.000 C 
BRANCH   5   6
ATOM      6  C   UNL     1       4.029   3.604  16.738  0.00  0.00    +0.000 C 
BRANCH   6   7
ATOM      7  C   UNL     1       4.370   3.004  18.111  0.00  0.00    +0.000 C 
BRANCH   7   9
ATOM      8  C   UNL     1       1.949   3.011  18.146  0.00  0.00    +0.000 C 
ATOM      9  N   UNL     1       3.167   2.687  18.902  0.00  0.00    +0.000 NA
BRANCH   9  10
ATOM     10  C   UNL     1       3.148   3.430  20.180  0.00  0.00    +0.000 C 
BRANCH  10  11
ATOM     11  C   UNL     1       2.705   4.878  20.079  0.00  0.00    +0.000 A 
ATOM     12  C   UNL     1       1.611   5.345  20.824  0.00  0.00    +0.000 A 
ATOM     13  C   UNL     1       1.246   6.694  20.783  0.00  0.00    +0.000 A 
ATOM     14  C   UNL     1       1.961   7.586  19.986  0.00  0.00    +0.000 A 
ATOM     15  C   UNL     1       3.035   7.130  19.225  0.00  0.00    +0.000 A 
ATOM     16  C   UNL     1       3.408   5.785  19.275  0.00  0.00    +0.000 A 
ENDBRANCH  10  11
ENDBRANCH   9  10
ENDBRANCH   7   9
ENDBRANCH   6   7
ENDBRANCH   5   6
ENDBRANCH   1   5
BRANCH   2  17
ATOM     17  C   UNL     1       6.756   7.486  17.243  0.00  0.00    +0.000 C 
BRANCH  17  18
ATOM     18  C   UNL     1       8.032   7.830  18.010  0.00  0.00    +0.000 C 
BRANCH  18  19
ATOM     19  C   UNL     1       8.292   9.331  17.991  0.00  0.00    +0.000 C 
BRANCH  19  20
ATOM     20  O   UNL     1       9.176   9.694  19.053  0.00  0.00    +0.000 OA
BRANCH  20  21
ATOM     21  C   UNL     1       9.749  10.950  18.943  0.00  0.00    +0.000 A 
ATOM     22  C   UNL     1      10.388  11.415  17.859  0.00  0.00    +0.000 A 
ATOM     23  C   UNL     1      11.015  12.747  17.808  0.00  0.00    +0.000 A 
ATOM     24  O   UNL     1      11.582  13.074  16.770  0.00  0.00    +0.000 OA
ATOM     25  N   UNL     1      10.926  13.535  18.941  0.00  0.00    +0.000 N 
ATOM     26  C   UNL     1      11.581  14.832  18.915  0.00  0.00    +0.000 C 
ATOM     27  C   UNL     1      10.222  13.102  20.107  0.00  0.00    +0.000 A 
ATOM     28  C   UNL     1      10.100  13.929  21.236  0.00  0.00    +0.000 A 
ATOM     29  C   UNL     1       9.399  13.501  22.366  0.00  0.00    +0.000 A 
ATOM     30  C   UNL     1       8.815  12.242  22.385  0.00  0.00    +0.000 A 
ATOM     31  C   UNL     1       8.931  11.405  21.272  0.00  0.00    +0.000 A 
ATOM     32  C   UNL     1       9.629  11.824  20.122  0.00  0.00    +0.000 A 
ENDBRANCH  20  21
ENDBRANCH  19  20
ENDBRANCH  18  19
ENDBRANCH  17  18
ENDBRANCH   2  17
TORSDOF 11
ENDMDL
