MODEL 1
REMARK VINA RESULT:      -7.1      0.000      0.000
REMARK  Name = 
REMARK  7 active torsions:
REMARK  status: ('A' for Active; 'I' for Inactive)
REMARK    1  A    between atoms: C_2  and  C_9
REMARK    2  A    between atoms: N_3  and  C_4
REMARK    3  A    between atoms: C_4  and  C_5
REMARK    4  A    between atoms: C_5  and  C_6
REMARK    5  A    between atoms: C_6  and  C_7
REMARK    6  A    between atoms: C_7  and  S_8
REMARK    7  A    between atoms: C_11  and  C_12
REMARK                            x       y       z     vdW  Elec       q    Type
REMARK                         _______ _______ _______ _____ _____    ______ ____
ROOT
ATOM      1  C   UNL     1       6.225   4.369  16.358  0.00  0.00    +0.000 A 
ATOM      2  C   UNL     1       4.898   4.011  16.689  0.00  0.00    +0.000 A 
ATOM      3  C   UNL     1       4.857   3.978  18.058  0.00  0.00    +0.000 A 
ATOM      4  O   UNL     1       6.094   4.304  18.535  0.00  0.00    +0.000 OA
ATOM      5  N   UNL     1       6.963   4.545  17.469  0.00  0.00    +0.000 NA
ENDROOT
BRANCH   3   6
ATOM      6  C   UNL     1       3.795   3.681  19.015  0.00  0.00    +0.000 A 
ATOM      7  C   UNL     1       3.347   4.699  19.879  0.00  0.00    +0.000 A 
ATOM      8  C   UNL     1       2.363   4.452  20.839  0.00  0.00    +0.000 A 
ATOM      9  C   UNL     1       1.816   3.183  20.941  0.00  0.00    +0.000 A 
ATOM     10  F   UNL     1       0.884   2.941  21.870  0.00  0.00    +0.000 F 
ATOM     11  C   UNL     1       2.226   2.162  20.091  0.00  0.00    +0.000 A 
ATOM     12  C   UNL     1       3.212   2.409  19.127  0.00  0.00    +0.000 A 
ENDBRANCH   3   6
BRANCH   1  14
ATOM     13  O   UNL     1       7.548   5.386  14.702  0.00  0.00    +0.000 OA
ATOM     14  C   UNL     1       6.732   4.515  14.993  0.00  0.00    +0.000 C 
ATOM     15  N   UNL     1       6.219   3.640  14.058  0.00  0.00    +0.000 N 
ATOM     16  H   UNL     1       5.549   2.947  14.376  0.00  0.00    +0.000 HD
BRANCH  15  17
ATOM     17  C   UNL     1       6.552   3.768  12.657  0.00  0.00    +0.000 C 
BRANCH  17  18
ATOM     18  C   UNL     1       6.499   2.430  11.922  0.00  0.00    +0.000 C 
BRANCH  18  19
ATOM     19  C   UNL     1       5.169   2.263  11.181  0.00  0.00    +0.000 C 
BRANCH  19  20
ATOM     20  C   UNL     1       4.205   3.401  11.503  0.00  0.00    +0.000 C 
BRANCH  20  21
ATOM     21  S   UNL     1       3.243   3.859  10.031  0.00  0.00    +0.000 S 
ATOM     22  H   UNL     1       2.102   3.253  10.392  0.00  0.00    +0.000 HD
ENDBRANCH  20  21
ENDBRANCH  19  20
ENDBRANCH  18  19
ENDBRANCH  17  18
ENDBRANCH  15  17
ENDBRANCH   1  14
TORSDOF 7
ENDMDL
MODEL 2
REMARK VINA RESULT:      -7.0      1.111      1.172
REMARK  Name = 
REMARK  7 active torsions:
REMARK  status: ('A' for Active; 'I' for Inactive)
REMARK    1  A    between atoms: C_2  and  C_9
REMARK    2  A    between atoms: N_3  and  C_4
REMARK    3  A    between atoms: C_4  and  C_5
REMARK    4  A    between atoms: C_5  and  C_6
REMARK    5  A    between atoms: C_6  and  C_7
REMARK    6  A    between atoms: C_7  and  S_8
REMARK    7  A    between atoms: C_11  and  C_12
REMARK                            x       y       z     vdW  Elec       q    Type
REMARK                         _______ _______ _______ _____ _____    ______ ____
ROOT
ATOM      1  C   UNL     1       5.852   5.008  15.640  0.00  0.00    +0.000 A 
ATOM      2  C   UNL     1       5.154   4.025  16.379  0.00  0.00    +0.000 A 
ATOM      3  C   UNL     1       4.548   4.698  17.407  0.00  0.00    +0.000 A 
ATOM      4  O   UNL     1       4.859   6.024  17.298  0.00  0.00    +0.000 OA
ATOM      5  N   UNL     1       5.686   6.224  16.190  0.00  0.00    +0.000 NA
ENDROOT
BRANCH   3   6
ATOM      6  C   UNL     1       3.692   4.270  18.510  0.00  0.00    +0.000 A 
ATOM      7  C   UNL     1       2.559   5.040  18.836  0.00  0.00    +0.000 A 
ATOM      8  C   UNL     1       1.733   4.694  19.908  0.00  0.00    +0.000 A 
ATOM      9  C   UNL     1       2.034   3.571  20.662  0.00  0.00    +0.000 A 
ATOM     10  F   UNL     1       1.253   3.247  21.700  0.00  0.00    +0.000 F 
ATOM     11  C   UNL     1       3.137   2.782  20.355  0.00  0.00    +0.000 A 
ATOM     12  C   UNL     1       3.965   3.128  19.279  0.00  0.00    +0.000 A 
ENDBRANCH   3   6
BRANCH   1  14
ATOM     13  O   UNL     1       7.652   5.408  14.183  0.00  0.00    +0.000 OA
ATOM     14  C   UNL     1       6.657   4.739  14.449  0.00  0.00    +0.000 C 
ATOM     15  N   UNL     1       6.216   3.715  13.637  0.00  0.00    +0.000 N 
ATOM     16  H   UNL     1       5.385   3.207  13.924  0.00  0.00    +0.000 HD
BRANCH  15  17
ATOM     17  C   UNL     1       6.859   3.439  12.371  0.00  0.00    +0.000 C 
BRANCH  17  18
ATOM     18  C   UNL     1       5.861   3.026  11.290  0.00  0.00    +0.000 C 
BRANCH  18  19
ATOM     19  C   UNL     1       4.431   3.395  11.694  0.00  0.00    +0.000 C 
BRANCH  19  20
ATOM     20  C   UNL     1       3.417   2.920  10.656  0.00  0.00    +0.000 C 
BRANCH  20  21
ATOM     21  S   UNL     1       2.945   4.284   9.554  0.00  0.00    +0.000 S 
ATOM     22  H   UNL     1       3.862   4.045   8.604  0.00  0.00    +0.000 HD
ENDBRANCH  20  21
ENDBRANCH  19  20
ENDBRANCH  18  19
ENDBRANCH  17  18
ENDBRANCH  15  17
ENDBRANCH   1  14
TORSDOF 7
ENDMDL
MODEL 3
REMARK VINA RESULT:      -6.9      1.244      1.275
REMARK  Name = 
REMARK  7 active torsions:
REMARK  status: ('A' for Active; 'I' for Inactive)
REMARK    1  A    between atoms: C_2  and  C_9
REMARK    2  A    between atoms: N_3  and  C_4
REMARK    3  A    between atoms: C_4  and  C_5
REMARK    4  A    between atoms: C_5  and  C_6
REMARK    5  A    between atoms: C_6  and  C_7
REMARK    6  A    between atoms: C_7  and  S_8
REMARK    7  A    between atoms: C_11  and  C_12
REMARK                            x       y       z     vdW  Elec       q    Type
REMARK                         _______ _______ _______ _____ _____    ______ ____
ROOT
ATOM      1  C   UNL     1       5.246   5.200  16.245  0.00  0.00    +0.000 A 
ATOM      2  C   UNL     1       4.787   4.146  17.067  0.00  0.00    +0.000 A 
ATOM      3  C   UNL     1       3.865   4.710  17.910  0.00  0.00    +0.000 A 
ATOM      4  O   UNL     1       3.766   6.040  17.612  0.00  0.00    +0.000 OA
ATOM      5  N   UNL     1       4.639   6.356  16.569  0.00  0.00    +0.000 NA
ENDROOT
BRANCH   3   6
ATOM      6  C   UNL     1       3.036   4.170  18.983  0.00  0.00    +0.000 A 
ATOM      7  C   UNL     1       2.934   4.882  20.194  0.00  0.00    +0.000 A 
ATOM      8  C   UNL     1       2.187   4.386  21.265  0.00  0.00    +0.000 A 
ATOM      9  C   UNL     1       1.532   3.173  21.131  0.00  0.00    +0.000 A 
ATOM     10  F   UNL     1       0.828   2.688  22.161  0.00  0.00    +0.000 F 
ATOM     11  C   UNL     1       1.600   2.454  19.943  0.00  0.00    +0.000 A 
ATOM     12  C   UNL     1       2.349   2.952  18.868  0.00  0.00    +0.000 A 
ENDBRANCH   3   6
BRANCH   1  14
ATOM     13  O   UNL     1       7.265   5.756  15.178  0.00  0.00    +0.000 OA
ATOM     14  C   UNL     1       6.254   5.058  15.195  0.00  0.00    +0.000 C 
ATOM     15  N   UNL     1       5.987   4.121  14.219  0.00  0.00    +0.000 N 
ATOM     16  H   UNL     1       5.131   3.582  14.302  0.00  0.00    +0.000 HD
BRANCH  15  17
ATOM     17  C   UNL     1       6.849   3.979  13.066  0.00  0.00    +0.000 C 
BRANCH  17  18
ATOM     18  C   UNL     1       6.072   3.625  11.799  0.00  0.00    +0.000 C 
BRANCH  18  19
ATOM     19  C   UNL     1       4.562   3.659  12.054  0.00  0.00    +0.000 C 
BRANCH  19  20
ATOM     20  C   UNL     1       3.800   2.860  11.000  0.00  0.00    +0.000 C 
BRANCH  20  21
ATOM     21  S   UNL     1       3.159   3.960   9.705  0.00  0.00    +0.000 S 
ATOM     22  H   UNL     1       2.083   4.391  10.381  0.00  0.00    +0.000 HD
ENDBRANCH  20  21
ENDBRANCH  19  20
ENDBRANCH  18  19
ENDBRANCH  17  18
ENDBRANCH  15  17
ENDBRANCH   1  14
TORSDOF 7
ENDMDL
MODEL 4
REMARK VINA RESULT:      -6.8      2.675      3.149
REMARK  Name = 
REMARK  7 active torsions:
REMARK  status: ('A' for Active; 'I' for Inactive)
REMARK    1  A    between atoms: C_2  and  C_9
REMARK    2  A    between atoms: N_3  and  C_4
REMARK    3  A    between atoms: C_4  and  C_5
REMARK    4  A    between atoms: C_5  and  C_6
REMARK    5  A    between atoms: C_6  and  C_7
REMARK    6  A    between atoms: C_7  and  S_8
REMARK    7  A    between atoms: C_11  and  C_12
REMARK                            x       y       z     vdW  Elec       q    Type
REMARK                         _______ _______ _______ _____ _____    ______ ____
ROOT
ATOM      1  C   UNL     1       5.811   5.221  16.153  0.00  0.00    +0.000 A 
ATOM      2  C   UNL     1       4.821   6.228  16.217  0.00  0.00    +0.000 A 
ATOM      3  C   UNL     1       4.354   6.204  17.505  0.00  0.00    +0.000 A 
ATOM      4  O   UNL     1       5.029   5.233  18.190  0.00  0.00    +0.000 OA
ATOM      5  N   UNL     1       5.943   4.607  17.342  0.00  0.00    +0.000 NA
ENDROOT
BRANCH   3   6
ATOM      6  C   UNL     1       3.340   6.981  18.211  0.00  0.00    +0.000 A 
ATOM      7  C   UNL     1       2.858   8.169  17.628  0.00  0.00    +0.000 A 
ATOM      8  C   UNL     1       1.919   8.969  18.283  0.00  0.00    +0.000 A 
ATOM      9  C   UNL     1       1.451   8.583  19.529  0.00  0.00    +0.000 A 
ATOM     10  F   UNL     1       0.562   9.356  20.166  0.00  0.00    +0.000 F 
ATOM     11  C   UNL     1       1.895   7.408  20.124  0.00  0.00    +0.000 A 
ATOM     12  C   UNL     1       2.836   6.604  19.466  0.00  0.00    +0.000 A 
ENDBRANCH   3   6
BRANCH   1  14
ATOM     13  O   UNL     1       7.675   5.387  14.731  0.00  0.00    +0.000 OA
ATOM     14  C   UNL     1       6.578   4.883  14.954  0.00  0.00    +0.000 C 
ATOM     15  N   UNL     1       5.982   3.994  14.083  0.00  0.00    +0.000 N 
ATOM     16  H   UNL     1       5.073   3.620  14.337  0.00  0.00    +0.000 HD
BRANCH  15  17
ATOM     17  C   UNL     1       6.589   3.681  12.808  0.00  0.00    +0.000 C 
BRANCH  17  18
ATOM     18  C   UNL     1       5.649   2.894  11.895  0.00  0.00    +0.000 C 
BRANCH  18  19
ATOM     19  C   UNL     1       4.331   3.646  11.687  0.00  0.00    +0.000 C 
BRANCH  19  20
ATOM     20  C   UNL     1       3.501   3.018  10.571  0.00  0.00    +0.000 C 
BRANCH  20  21
ATOM     21  S   UNL     1       2.826   4.301   9.477  0.00  0.00    +0.000 S 
ATOM     22  H   UNL     1       4.004   4.822   9.097  0.00  0.00    +0.000 HD
ENDBRANCH  20  21
ENDBRANCH  19  20
ENDBRANCH  18  19
ENDBRANCH  17  18
ENDBRANCH  15  17
ENDBRANCH   1  14
TORSDOF 7
ENDMDL
MODEL 5
REMARK VINA RESULT:      -6.7      5.233      6.622
REMARK  Name = 
REMARK  7 active torsions:
REMARK  status: ('A' for Active; 'I' for Inactive)
REMARK    1  A    between atoms: C_2  and  C_9
REMARK    2  A    between atoms: N_3  and  C_4
REMARK    3  A    between atoms: C_4  and  C_5
REMARK    4  A    between atoms: C_5  and  C_6
REMARK    5  A    between atoms: C_6  and  C_7
REMARK    6  A    between atoms: C_7  and  S_8
REMARK    7  A    between atoms: C_11  and  C_12
REMARK                            x       y       z     vdW  Elec       q    Type
REMARK                         _______ _______ _______ _____ _____    ______ ____
ROOT
ATOM      1  C   UNL     1       6.581   6.118  18.125  0.00  0.00    +0.000 A 
ATOM      2  C   UNL     1       5.267   5.809  17.705  0.00  0.00    +0.000 A 
ATOM      3  C   UNL     1       4.845   4.799  18.530  0.00  0.00    +0.000 A 
ATOM      4  O   UNL     1       5.850   4.512  19.410  0.00  0.00    +0.000 OA
ATOM      5  N   UNL     1       6.949   5.335  19.155  0.00  0.00    +0.000 NA
ENDROOT
BRANCH   3   6
ATOM      6  C   UNL     1       3.600   4.042  18.621  0.00  0.00    +0.000 A 
ATOM      7  C   UNL     1       3.439   2.889  17.828  0.00  0.00    +0.000 A 
ATOM      8  C   UNL     1       2.251   2.156  17.848  0.00  0.00    +0.000 A 
ATOM      9  C   UNL     1       1.212   2.570  18.666  0.00  0.00    +0.000 A 
ATOM     10  F   UNL     1       0.066   1.877  18.676  0.00  0.00    +0.000 F 
ATOM     11  C   UNL     1       1.346   3.694  19.473  0.00  0.00    +0.000 A 
ATOM     12  C   UNL     1       2.538   4.430  19.454  0.00  0.00    +0.000 A 
ENDBRANCH   3   6
BRANCH   1  14
ATOM     13  O   UNL     1       7.993   6.948  16.440  0.00  0.00    +0.000 OA
ATOM     14  C   UNL     1       7.431   7.140  17.515  0.00  0.00    +0.000 C 
ATOM     15  N   UNL     1       7.583   8.310  18.230  0.00  0.00    +0.000 N 
ATOM     16  H   UNL     1       7.084   8.394  19.110  0.00  0.00    +0.000 HD
BRANCH  15  17
ATOM     17  C   UNL     1       8.495   9.341  17.786  0.00  0.00    +0.000 C 
BRANCH  17  18
ATOM     18  C   UNL     1       9.117  10.107  18.953  0.00  0.00    +0.000 C 
BRANCH  18  19
ATOM     19  C   UNL     1       9.733  11.426  18.475  0.00  0.00    +0.000 C 
BRANCH  19  20
ATOM     20  C   UNL     1      11.198  11.539  18.885  0.00  0.00    +0.000 C 
BRANCH  20  21
ATOM     21  S   UNL     1      11.485  13.073  19.815  0.00  0.00    +0.000 S 
ATOM     22  H   UNL     1      12.300  12.547  20.742  0.00  0.00    +0.000 HD
ENDBRANCH  20  21
ENDBRANCH  19  20
ENDBRANCH  18  19
ENDBRANCH  17  18
ENDBRANCH  15  17
ENDBRANCH   1  14
TORSDOF 7
ENDMDL
MODEL 6
REMARK VINA RESULT:      -6.6      1.440      1.578
REMARK  Name = 
REMARK  7 active torsions:
REMARK  status: ('A' for Active; 'I' for Inactive)
REMARK    1  A    between atoms: C_2  and  C_9
REMARK    2  A    between atoms: N_3  and  C_4
REMARK    3  A    between atoms: C_4  and  C_5
REMARK    4  A    between atoms: C_5  and  C_6
REMARK    5  A    between atoms: C_6  and  C_7
REMARK    6  A    between atoms: C_7  and  S_8
REMARK    7  A    between atoms: C_11  and  C_12
REMARK                            x       y       z     vdW  Elec       q    Type
REMARK                         _______ _______ _______ _____ _____    ______ ____
ROOT
ATOM      1  C   UNL     1       5.789   4.892  16.881  0.00  0.00    +0.000 A 
ATOM      2  C   UNL     1       4.463   4.615  17.285  0.00  0.00    +0.000 A 
ATOM      3  C   UNL     1       4.561   4.130  18.563  0.00  0.00    +0.000 A 
ATOM      4  O   UNL     1       5.880   4.117  18.919  0.00  0.00    +0.000 OA
ATOM      5  N   UNL     1       6.659   4.590  17.861  0.00  0.00    +0.000 NA
ENDROOT
BRANCH   3   6
ATOM      6  C   UNL     1       3.571   3.666  19.530  0.00  0.00    +0.000 A 
ATOM      7  C   UNL     1       2.310   4.292  19.573  0.00  0.00    +0.000 A 
ATOM      8  C   UNL     1       1.345   3.911  20.509  0.00  0.00    +0.000 A 
ATOM      9  C   UNL     1       1.633   2.898  21.408  0.00  0.00    +0.000 A 
ATOM     10  F   UNL     1       0.715   2.542  22.315  0.00  0.00    +0.000 F 
ATOM     11  C   UNL     1       2.863   2.250  21.380  0.00  0.00    +0.000 A 
ATOM     12  C   UNL     1       3.831   2.630  20.441  0.00  0.00    +0.000 A 
ENDBRANCH   3   6
BRANCH   1  14
ATOM     13  O   UNL     1       5.635   6.429  15.109  0.00  0.00    +0.000 OA
ATOM     14  C   UNL     1       6.166   5.422  15.570  0.00  0.00    +0.000 C 
ATOM     15  N   UNL     1       7.124   4.709  14.880  0.00  0.00    +0.000 N 
ATOM     16  H   UNL     1       7.517   3.887  15.329  0.00  0.00    +0.000 HD
BRANCH  15  17
ATOM     17  C   UNL     1       7.487   5.066  13.527  0.00  0.00    +0.000 C 
BRANCH  17  18
ATOM     18  C   UNL     1       7.100   3.987  12.517  0.00  0.00    +0.000 C 
BRANCH  18  19
ATOM     19  C   UNL     1       5.671   3.495  12.761  0.00  0.00    +0.000 C 
BRANCH  19  20
ATOM     20  C   UNL     1       5.190   2.593  11.628  0.00  0.00    +0.000 C 
BRANCH  20  21
ATOM     21  S   UNL     1       6.476   1.391  11.179  0.00  0.00    +0.000 S 
ATOM     22  H   UNL     1       6.284   1.441   9.852  0.00  0.00    +0.000 HD
ENDBRANCH  20  21
ENDBRANCH  19  20
ENDBRANCH  18  19
ENDBRANCH  17  18
ENDBRANCH  15  17
ENDBRANCH   1  14
TORSDOF 7
ENDMDL
MODEL 7
REMARK VINA RESULT:      -6.6      1.686      1.788
REMARK  Name = 
REMARK  7 active torsions:
REMARK  status: ('A' for Active; 'I' for Inactive)
REMARK    1  A    between atoms: C_2  and  C_9
REMARK    2  A    between atoms: N_3  and  C_4
REMARK    3  A    between atoms: C_4  and  C_5
REMARK    4  A    between atoms: C_5  and  C_6
REMARK    5  A    between atoms: C_6  and  C_7
REMARK    6  A    between atoms: C_7  and  S_8
REMARK    7  A    between atoms: C_11  and  C_12
REMARK                            x       y       z     vdW  Elec       q    Type
REMARK                         _______ _______ _______ _____ _____    ______ ____
ROOT
ATOM      1  C   UNL     1       5.423   5.372  16.646  0.00  0.00    +0.000 A 
ATOM      2  C   UNL     1       5.056   4.284  17.470  0.00  0.00    +0.000 A 
ATOM      3  C   UNL     1       4.002   4.731  18.223  0.00  0.00    +0.000 A 
ATOM      4  O   UNL     1       3.738   6.024  17.871  0.00  0.00    +0.000 OA
ATOM      5  N   UNL     1       4.634   6.436  16.882  0.00  0.00    +0.000 NA
ENDROOT
BRANCH   3   6
ATOM      6  C   UNL     1       3.177   4.105  19.252  0.00  0.00    +0.000 A 
ATOM      7  C   UNL     1       1.839   4.516  19.402  0.00  0.00    +0.000 A 
ATOM      8  C   UNL     1       1.023   3.976  20.399  0.00  0.00    +0.000 A 
ATOM      9  C   UNL     1       1.540   3.017  21.254  0.00  0.00    +0.000 A 
ATOM     10  F   UNL     1       0.765   2.510  22.220  0.00  0.00    +0.000 F 
ATOM     11  C   UNL     1       2.853   2.579  21.121  0.00  0.00    +0.000 A 
ATOM     12  C   UNL     1       3.672   3.119  20.121  0.00  0.00    +0.000 A 
ENDBRANCH   3   6
BRANCH   1  14
ATOM     13  O   UNL     1       7.467   6.127  15.764  0.00  0.00    +0.000 OA
ATOM     14  C   UNL     1       6.519   5.351  15.677  0.00  0.00    +0.000 C 
ATOM     15  N   UNL     1       6.406   4.434  14.653  0.00  0.00    +0.000 N 
ATOM     16  H   UNL     1       5.593   3.826  14.650  0.00  0.00    +0.000 HD
BRANCH  15  17
ATOM     17  C   UNL     1       7.365   4.404  13.571  0.00  0.00    +0.000 C 
BRANCH  17  18
ATOM     18  C   UNL     1       6.716   4.073  12.228  0.00  0.00    +0.000 C 
BRANCH  18  19
ATOM     19  C   UNL     1       5.388   3.337  12.427  0.00  0.00    +0.000 C 
BRANCH  19  20
ATOM     20  C   UNL     1       5.136   2.327  11.311  0.00  0.00    +0.000 C 
BRANCH  20  21
ATOM     21  S   UNL     1       6.557   1.212  11.126  0.00  0.00    +0.000 S 
ATOM     22  H   UNL     1       6.564   1.183   9.785  0.00  0.00    +0.000 HD
ENDBRANCH  20  21
ENDBRANCH  19  20
ENDBRANCH  18  19
ENDBRANCH  17  18
ENDBRANCH  15  17
ENDBRANCH   1  14
TORSDOF 7
ENDMDL
MODEL 8
REMARK VINA RESULT:      -6.6      1.717      1.967
REMARK  Name = 
REMARK  7 active torsions:
REMARK  status: ('A' for Active; 'I' for Inactive)
REMARK    1  A    between atoms: C_2  and  C_9
REMARK    2  A    between atoms: N_3  and  C_4
REMARK    3  A    between atoms: C_4  and  C_5
REMARK    4  A    between atoms: C_5  and  C_6
REMARK    5  A    between atoms: C_6  and  C_7
REMARK    6  A    between atoms: C_7  and  S_8
REMARK    7  A    between atoms: C_11  and  C_12
REMARK                            x       y       z     vdW  Elec       q    Type
REMARK                         _______ _______ _______ _____ _____    ______ ____
ROOT
ATOM      1  C   UNL     1       5.275   4.697  16.356  0.00  0.00    +0.000 A 
ATOM      2  C   UNL     1       4.668   3.694  17.145  0.00  0.00    +0.000 A 
ATOM      3  C   UNL     1       3.915   4.362  18.076  0.00  0.00    +0.000 A 
ATOM      4  O   UNL     1       4.055   5.704  17.861  0.00  0.00    +0.000 OA
ATOM      5  N   UNL     1       4.915   5.921  16.783  0.00  0.00    +0.000 NA
ENDROOT
BRANCH   3   6
ATOM      6  C   UNL     1       3.056   3.915  19.168  0.00  0.00    +0.000 A 
ATOM      7  C   UNL     1       3.581   3.039  20.138  0.00  0.00    +0.000 A 
ATOM      8  C   UNL     1       2.787   2.550  21.178  0.00  0.00    +0.000 A 
ATOM      9  C   UNL     1       1.459   2.938  21.258  0.00  0.00    +0.000 A 
ATOM     10  F   UNL     1       0.692   2.459  22.245  0.00  0.00    +0.000 F 
ATOM     11  C   UNL     1       0.916   3.815  20.325  0.00  0.00    +0.000 A 
ATOM     12  C   UNL     1       1.713   4.306  19.282  0.00  0.00    +0.000 A 
ENDBRANCH   3   6
BRANCH   1  14
ATOM     13  O   UNL     1       7.376   4.716  15.304  0.00  0.00    +0.000 OA
ATOM     14  C   UNL     1       6.181   4.441  15.237  0.00  0.00    +0.000 C 
ATOM     15  N   UNL     1       5.609   3.904  14.103  0.00  0.00    +0.000 N 
ATOM     16  H   UNL     1       4.614   3.703  14.124  0.00  0.00    +0.000 HD
BRANCH  15  17
ATOM     17  C   UNL     1       6.381   3.723  12.893  0.00  0.00    +0.000 C 
BRANCH  17  18
ATOM     18  C   UNL     1       5.497   3.512  11.665  0.00  0.00    +0.000 C 
BRANCH  18  19
ATOM     19  C   UNL     1       5.178   2.027  11.468  0.00  0.00    +0.000 C 
BRANCH  19  20
ATOM     20  C   UNL     1       6.440   1.219  11.179  0.00  0.00    +0.000 C 
BRANCH  20  21
ATOM     21  S   UNL     1       6.105  -0.560  11.323  0.00  0.00    +0.000 S 
ATOM     22  H   UNL     1       5.017  -0.582  10.538  0.00  0.00    +0.000 HD
ENDBRANCH  20  21
ENDBRANCH  19  20
ENDBRANCH  18  19
ENDBRANCH  17  18
ENDBRANCH  15  17
ENDBRANCH   1  14
TORSDOF 7
ENDMDL
MODEL 9
REMARK VINA RESULT:      -6.6      1.688      1.949
REMARK  Name = 
REMARK  7 active torsions:
REMARK  status: ('A' for Active; 'I' for Inactive)
REMARK    1  A    between atoms: C_2  and  C_9
REMARK    2  A    between atoms: N_3  and  C_4
REMARK    3  A    between atoms: C_4  and  C_5
REMARK    4  A    between atoms: C_5  and  C_6
REMARK    5  A    between atoms: C_6  and  C_7
REMARK    6  A    between atoms: C_7  and  S_8
REMARK    7  A    between atoms: C_11  and  C_12
REMARK                            x       y       z     vdW  Elec       q    Type
REMARK                         _______ _______ _______ _____ _____    ______ ____
ROOT
ATOM      1  C   UNL     1       5.487   5.031  16.543  0.00  0.00    +0.000 A 
ATOM      2  C   UNL     1       5.082   4.058  17.486  0.00  0.00    +0.000 A 
ATOM      3  C   UNL     1       4.009   4.605  18.141  0.00  0.00    +0.000 A 
ATOM      4  O   UNL     1       3.772   5.845  17.620  0.00  0.00    +0.000 OA
ATOM      5  N   UNL     1       4.704   6.122  16.618  0.00  0.00    +0.000 NA
ENDROOT
BRANCH   3   6
ATOM      6  C   UNL     1       3.145   4.120  19.213  0.00  0.00    +0.000 A 
ATOM      7  C   UNL     1       3.608   3.089  20.053  0.00  0.00    +0.000 A 
ATOM      8  C   UNL     1       2.803   2.563  21.065  0.00  0.00    +0.000 A 
ATOM      9  C   UNL     1       1.526   3.068  21.249  0.00  0.00    +0.000 A 
ATOM     10  F   UNL     1       0.747   2.556  22.209  0.00  0.00    +0.000 F 
ATOM     11  C   UNL     1       1.046   4.098  20.446  0.00  0.00    +0.000 A 
ATOM     12  C   UNL     1       1.854   4.626  19.431  0.00  0.00    +0.000 A 
ENDBRANCH   3   6
BRANCH   1  14
ATOM     13  O   UNL     1       7.749   4.651  16.030  0.00  0.00    +0.000 OA
ATOM     14  C   UNL     1       6.613   4.878  15.622  0.00  0.00    +0.000 C 
ATOM     15  N   UNL     1       6.327   5.034  14.282  0.00  0.00    +0.000 N 
ATOM     16  H   UNL     1       5.363   5.220  14.022  0.00  0.00    +0.000 HD
BRANCH  15  17
ATOM     17  C   UNL     1       7.379   5.028  13.289  0.00  0.00    +0.000 C 
BRANCH  17  18
ATOM     18  C   UNL     1       7.135   3.995  12.190  0.00  0.00    +0.000 C 
BRANCH  18  19
ATOM     19  C   UNL     1       5.652   3.621  12.108  0.00  0.00    +0.000 C 
BRANCH  19  20
ATOM     20  C   UNL     1       5.467   2.151  11.743  0.00  0.00    +0.000 C 
BRANCH  20  21
ATOM     21  S   UNL     1       6.938   1.514  10.890  0.00  0.00    +0.000 S 
ATOM     22  H   UNL     1       6.671   0.210  11.065  0.00  0.00    +0.000 HD
ENDBRANCH  20  21
ENDBRANCH  19  20
ENDBRANCH  18  19
ENDBRANCH  17  18
ENDBRANCH  15  17
ENDBRANCH   1  14
TORSDOF 7
ENDMDL
