MODEL 1
REMARK VINA RESULT:      -8.8      0.000      0.000
REMARK  Name = 
REMARK  11 active torsions:
REMARK  status: ('A' for Active; 'I' for Inactive)
REMARK    1  A    between atoms: C_1  and  C_2
REMARK    2  A    between atoms: C_2  and  C_3
REMARK    3  A    between atoms: C_2  and  C_4
REMARK    4  A    between atoms: C_4  and  N_5
REMARK    5  A    between atoms: C_6  and  C_8
REMARK    6  A    between atoms: C_9  and  C_10
REMARK    7  A    between atoms: C_13  and  C_14
REMARK    8  A    between atoms: C_14  and  O_15
REMARK    9  A    between atoms: O_15  and  C_16
REMARK   10  A    between atoms: C_19  and  C_20
REMARK   11  A    between atoms: C_20  and  O_21
REMARK                            x       y       z     vdW  Elec       q    Type
REMARK                         _______ _______ _______ _____ _____    ______ ____
ROOT
ATOM      1  C   UNL     1       3.131   5.634  17.754  0.00  0.00    +0.000 A 
ATOM      2  C   UNL     1       3.219   7.015  17.893  0.00  0.00    +0.000 A 
ATOM      3  O   UNL     1       4.389   7.468  17.350  0.00  0.00    +0.000 OA
ATOM      4  C   UNL     1       5.053   6.389  16.857  0.00  0.00    +0.000 A 
ATOM      5  C   UNL     1       6.281   6.429  16.198  0.00  0.00    +0.000 A 
ATOM      6  C   UNL     1       6.790   5.207  15.742  0.00  0.00    +0.000 A 
ATOM      7  C   UNL     1       6.092   4.016  15.944  0.00  0.00    +0.000 A 
ATOM      8  C   UNL     1       4.858   4.009  16.609  0.00  0.00    +0.000 A 
ATOM      9  C   UNL     1       4.328   5.226  17.085  0.00  0.00    +0.000 A 
ENDROOT
BRANCH   2  10
ATOM     10  C   UNL     1       2.349   8.035  18.474  0.00  0.00    +0.000 A 
ATOM     11  C   UNL     1       2.058   8.025  19.845  0.00  0.00    +0.000 A 
ATOM     12  C   UNL     1       1.100   8.886  20.384  0.00  0.00    +0.000 A 
ATOM     13  C   UNL     1       0.424   9.789  19.560  0.00  0.00    +0.000 A 
ATOM     14  C   UNL     1       0.778   9.870  18.206  0.00  0.00    +0.000 A 
ATOM     15  C   UNL     1       1.730   8.997  17.668  0.00  0.00    +0.000 A 
BRANCH  13  16
ATOM     16  C   UNL     1      -0.678  10.650  20.119  0.00  0.00    +0.000 C 
BRANCH  16  17
ATOM     17  O   UNL     1      -1.117  11.550  19.108  0.00  0.00    +0.000 OA
BRANCH  17  18
ATOM     18  C   UNL     1      -2.470  11.604  18.914  0.00  0.00    +0.000 A 
ATOM     19  C   UNL     1      -2.946  10.844  17.845  0.00  0.00    +0.000 A 
ATOM     20  C   UNL     1      -4.313  10.802  17.557  0.00  0.00    +0.000 A 
ATOM     21  C   UNL     1      -5.230  11.502  18.353  0.00  0.00    +0.000 A 
ATOM     22  C   UNL     1      -4.742  12.271  19.418  0.00  0.00    +0.000 A 
ATOM     23  C   UNL     1      -3.374  12.315  19.702  0.00  0.00    +0.000 A 
BRANCH  21  24
ATOM     24  C   UNL     1      -6.698  11.470  18.020  0.00  0.00    +0.000 C 
BRANCH  24  25
ATOM     25  O   UNL     1      -7.502  11.411  19.192  0.00  0.00    +0.000 OA
ATOM     26  H   UNL     1      -7.562  12.320  19.535  0.00  0.00    +0.000 HD
ENDBRANCH  24  25
ENDBRANCH  21  24
ENDBRANCH  17  18
ENDBRANCH  16  17
ENDBRANCH  13  16
ENDBRANCH   2  10
BRANCH   1  28
ATOM     27  N   UNL     1       1.877   4.650  19.524  0.00  0.00    +0.000 N 
ATOM     28  C   UNL     1       1.990   4.835  18.163  0.00  0.00    +0.000 C 
ATOM     29  O   UNL     1       1.171   4.387  17.368  0.00  0.00    +0.000 OA
ATOM     30  H   UNL     1       2.543   5.094  20.140  0.00  0.00    +0.000 HD
BRANCH  27  31
ATOM     31  C   UNL     1       0.766   3.917  20.092  0.00  0.00    +0.000 C 
BRANCH  31  33
ATOM     32  C   UNL     1       1.886   1.723  19.506  0.00  0.00    +0.000 C 
ATOM     33  C   UNL     1       1.174   2.524  20.595  0.00  0.00    +0.000 C 
ATOM     34  C   UNL     1       2.073   2.655  21.824  0.00  0.00    +0.000 C 
ENDBRANCH  31  33
ENDBRANCH  27  31
ENDBRANCH   1  28
TORSDOF 9
ENDMDL
MODEL 2
REMARK VINA RESULT:      -8.8      0.898      1.685
REMARK  Name = 
REMARK  11 active torsions:
REMARK  status: ('A' for Active; 'I' for Inactive)
REMARK    1  A    between atoms: C_1  and  C_2
REMARK    2  A    between atoms: C_2  and  C_3
REMARK    3  A    between atoms: C_2  and  C_4
REMARK    4  A    between atoms: C_4  and  N_5
REMARK    5  A    between atoms: C_6  and  C_8
REMARK    6  A    between atoms: C_9  and  C_10
REMARK    7  A    between atoms: C_13  and  C_14
REMARK    8  A    between atoms: C_14  and  O_15
REMARK    9  A    between atoms: O_15  and  C_16
REMARK   10  A    between atoms: C_19  and  C_20
REMARK   11  A    between atoms: C_20  and  O_21
REMARK                            x       y       z     vdW  Elec       q    Type
REMARK                         _______ _______ _______ _____ _____    ______ ____
ROOT
ATOM      1  C   UNL     1       3.497   5.096  17.447  0.00  0.00    +0.000 A 
ATOM      2  C   UNL     1       3.498   6.465  17.691  0.00  0.00    +0.000 A 
ATOM      3  O   UNL     1       4.626   7.034  17.172  0.00  0.00    +0.000 OA
ATOM      4  C   UNL     1       5.351   6.043  16.589  0.00  0.00    +0.000 A 
ATOM      5  C   UNL     1       6.563   6.215  15.920  0.00  0.00    +0.000 A 
ATOM      6  C   UNL     1       7.143   5.068  15.365  0.00  0.00    +0.000 A 
ATOM      7  C   UNL     1       6.527   3.821  15.481  0.00  0.00    +0.000 A 
ATOM      8  C   UNL     1       5.307   3.681  16.158  0.00  0.00    +0.000 A 
ATOM      9  C   UNL     1       4.707   4.820  16.733  0.00  0.00    +0.000 A 
ENDROOT
BRANCH   2  10
ATOM     10  C   UNL     1       2.572   7.377  18.360  0.00  0.00    +0.000 A 
ATOM     11  C   UNL     1       2.005   8.453  17.664  0.00  0.00    +0.000 A 
ATOM     12  C   UNL     1       1.255   9.425  18.329  0.00  0.00    +0.000 A 
ATOM     13  C   UNL     1       1.044   9.329  19.706  0.00  0.00    +0.000 A 
ATOM     14  C   UNL     1       1.528   8.207  20.391  0.00  0.00    +0.000 A 
ATOM     15  C   UNL     1       2.289   7.241  19.724  0.00  0.00    +0.000 A 
BRANCH  13  16
ATOM     16  C   UNL     1       0.320  10.426  20.442  0.00  0.00    +0.000 C 
BRANCH  16  17
ATOM     17  O   UNL     1       0.019  11.474  19.526  0.00  0.00    +0.000 OA
BRANCH  17  18
ATOM     18  C   UNL     1      -1.295  11.580  19.162  0.00  0.00    +0.000 A 
ATOM     19  C   UNL     1      -2.119  12.214  20.093  0.00  0.00    +0.000 A 
ATOM     20  C   UNL     1      -3.477  12.401  19.828  0.00  0.00    +0.000 A 
ATOM     21  C   UNL     1      -4.030  11.976  18.612  0.00  0.00    +0.000 A 
ATOM     22  C   UNL     1      -3.199  11.330  17.688  0.00  0.00    +0.000 A 
ATOM     23  C   UNL     1      -1.840  11.141  17.956  0.00  0.00    +0.000 A 
BRANCH  21  24
ATOM     24  C   UNL     1      -5.501  12.160  18.346  0.00  0.00    +0.000 C 
BRANCH  24  25
ATOM     25  O   UNL     1      -6.051  11.053  17.642  0.00  0.00    +0.000 OA
ATOM     26  H   UNL     1      -6.516  10.508  18.300  0.00  0.00    +0.000 HD
ENDBRANCH  24  25
ENDBRANCH  21  24
ENDBRANCH  17  18
ENDBRANCH  16  17
ENDBRANCH  13  16
ENDBRANCH   2  10
BRANCH   1  28
ATOM     27  N   UNL     1       2.741   3.269  18.774  0.00  0.00    +0.000 N 
ATOM     28  C   UNL     1       2.418   4.194  17.805  0.00  0.00    +0.000 C 
ATOM     29  O   UNL     1       1.296   4.267  17.313  0.00  0.00    +0.000 OA
ATOM     30  H   UNL     1       3.660   3.292  19.193  0.00  0.00    +0.000 HD
BRANCH  27  31
ATOM     31  C   UNL     1       1.759   2.331  19.274  0.00  0.00    +0.000 C 
BRANCH  31  33
ATOM     32  C   UNL     1       2.271   2.558  21.744  0.00  0.00    +0.000 C 
ATOM     33  C   UNL     1       1.213   2.728  20.654  0.00  0.00    +0.000 C 
ATOM     34  C   UNL     1       0.718   4.174  20.623  0.00  0.00    +0.000 C 
ENDBRANCH  31  33
ENDBRANCH  27  31
ENDBRANCH   1  28
TORSDOF 9
ENDMDL
MODEL 3
REMARK VINA RESULT:      -8.8      1.932      2.614
REMARK  Name = 
REMARK  11 active torsions:
REMARK  status: ('A' for Active; 'I' for Inactive)
REMARK    1  A    between atoms: C_1  and  C_2
REMARK    2  A    between atoms: C_2  and  C_3
REMARK    3  A    between atoms: C_2  and  C_4
REMARK    4  A    between atoms: C_4  and  N_5
REMARK    5  A    between atoms: C_6  and  C_8
REMARK    6  A    between atoms: C_9  and  C_10
REMARK    7  A    between atoms: C_13  and  C_14
REMARK    8  A    between atoms: C_14  and  O_15
REMARK    9  A    between atoms: O_15  and  C_16
REMARK   10  A    between atoms: C_19  and  C_20
REMARK   11  A    between atoms: C_20  and  O_21
REMARK                            x       y       z     vdW  Elec       q    Type
REMARK                         _______ _______ _______ _____ _____    ______ ____
ROOT
ATOM      1  C   UNL     1       3.123   5.608  17.743  0.00  0.00    +0.000 A 
ATOM      2  C   UNL     1       3.236   6.990  17.852  0.00  0.00    +0.000 A 
ATOM      3  O   UNL     1       4.399   7.413  17.272  0.00  0.00    +0.000 OA
ATOM      4  C   UNL     1       5.034   6.314  16.784  0.00  0.00    +0.000 A 
ATOM      5  C   UNL     1       6.245   6.323  16.094  0.00  0.00    +0.000 A 
ATOM      6  C   UNL     1       6.724   5.084  15.649  0.00  0.00    +0.000 A 
ATOM      7  C   UNL     1       6.013   3.908  15.892  0.00  0.00    +0.000 A 
ATOM      8  C   UNL     1       4.796   3.934  16.587  0.00  0.00    +0.000 A 
ATOM      9  C   UNL     1       4.296   5.168  17.052  0.00  0.00    +0.000 A 
ENDROOT
BRANCH   2  10
ATOM     10  C   UNL     1       2.397   8.034  18.435  0.00  0.00    +0.000 A 
ATOM     11  C   UNL     1       2.053   9.171  17.690  0.00  0.00    +0.000 A 
ATOM     12  C   UNL     1       1.395  10.249  18.285  0.00  0.00    +0.000 A 
ATOM     13  C   UNL     1       1.053  10.204  19.637  0.00  0.00    +0.000 A 
ATOM     14  C   UNL     1       1.307   9.033  20.364  0.00  0.00    +0.000 A 
ATOM     15  C   UNL     1       1.977   7.959  19.769  0.00  0.00    +0.000 A 
BRANCH  13  16
ATOM     16  C   UNL     1       0.432  11.403  20.304  0.00  0.00    +0.000 C 
BRANCH  16  17
ATOM     17  O   UNL     1      -0.945  11.465  19.950  0.00  0.00    +0.000 OA
BRANCH  17  18
ATOM     18  C   UNL     1      -1.795  11.849  20.951  0.00  0.00    +0.000 A 
ATOM     19  C   UNL     1      -1.440  11.414  22.229  0.00  0.00    +0.000 A 
ATOM     20  C   UNL     1      -2.218  11.759  23.337  0.00  0.00    +0.000 A 
ATOM     21  C   UNL     1      -3.354  12.567  23.186  0.00  0.00    +0.000 A 
ATOM     22  C   UNL     1      -3.709  12.989  21.899  0.00  0.00    +0.000 A 
ATOM     23  C   UNL     1      -2.932  12.641  20.790  0.00  0.00    +0.000 A 
BRANCH  21  24
ATOM     24  C   UNL     1      -4.199  12.912  24.384  0.00  0.00    +0.000 C 
BRANCH  24  25
ATOM     25  O   UNL     1      -4.806  11.756  24.949  0.00  0.00    +0.000 OA
ATOM     26  H   UNL     1      -4.261  10.996  24.682  0.00  0.00    +0.000 HD
ENDBRANCH  24  25
ENDBRANCH  21  24
ENDBRANCH  17  18
ENDBRANCH  16  17
ENDBRANCH  13  16
ENDBRANCH   2  10
BRANCH   1  28
ATOM     27  N   UNL     1       1.919   4.648  19.560  0.00  0.00    +0.000 N 
ATOM     28  C   UNL     1       1.981   4.835  18.196  0.00  0.00    +0.000 C 
ATOM     29  O   UNL     1       1.119   4.410  17.433  0.00  0.00    +0.000 OA
ATOM     30  H   UNL     1       2.620   5.073  20.150  0.00  0.00    +0.000 HD
BRANCH  27  31
ATOM     31  C   UNL     1       0.814   3.940  20.171  0.00  0.00    +0.000 C 
BRANCH  31  33
ATOM     32  C   UNL     1       1.869   1.728  19.529  0.00  0.00    +0.000 C 
ATOM     33  C   UNL     1       1.207   2.533  20.647  0.00  0.00    +0.000 C 
ATOM     34  C   UNL     1       2.145   2.631  21.849  0.00  0.00    +0.000 C 
ENDBRANCH  31  33
ENDBRANCH  27  31
ENDBRANCH   1  28
TORSDOF 9
ENDMDL
MODEL 4
REMARK VINA RESULT:      -8.7      0.996      1.572
REMARK  Name = 
REMARK  11 active torsions:
REMARK  status: ('A' for Active; 'I' for Inactive)
REMARK    1  A    between atoms: C_1  and  C_2
REMARK    2  A    between atoms: C_2  and  C_3
REMARK    3  A    between atoms: C_2  and  C_4
REMARK    4  A    between atoms: C_4  and  N_5
REMARK    5  A    between atoms: C_6  and  C_8
REMARK    6  A    between atoms: C_9  and  C_10
REMARK    7  A    between atoms: C_13  and  C_14
REMARK    8  A    between atoms: C_14  and  O_15
REMARK    9  A    between atoms: O_15  and  C_16
REMARK   10  A    between atoms: C_19  and  C_20
REMARK   11  A    between atoms: C_20  and  O_21
REMARK                            x       y       z     vdW  Elec       q    Type
REMARK                         _______ _______ _______ _____ _____    ______ ____
ROOT
ATOM      1  C   UNL     1       3.589   5.028  17.360  0.00  0.00    +0.000 A 
ATOM      2  C   UNL     1       3.602   6.391  17.638  0.00  0.00    +0.000 A 
ATOM      3  O   UNL     1       4.731   6.964  17.125  0.00  0.00    +0.000 OA
ATOM      4  C   UNL     1       5.444   5.982  16.512  0.00  0.00    +0.000 A 
ATOM      5  C   UNL     1       6.652   6.162  15.839  0.00  0.00    +0.000 A 
ATOM      6  C   UNL     1       7.218   5.025  15.250  0.00  0.00    +0.000 A 
ATOM      7  C   UNL     1       6.594   3.780  15.341  0.00  0.00    +0.000 A 
ATOM      8  C   UNL     1       5.379   3.633  16.023  0.00  0.00    +0.000 A 
ATOM      9  C   UNL     1       4.791   4.762  16.631  0.00  0.00    +0.000 A 
ENDROOT
BRANCH   2  10
ATOM     10  C   UNL     1       2.689   7.293  18.337  0.00  0.00    +0.000 A 
ATOM     11  C   UNL     1       2.177   8.428  17.692  0.00  0.00    +0.000 A 
ATOM     12  C   UNL     1       1.441   9.383  18.395  0.00  0.00    +0.000 A 
ATOM     13  C   UNL     1       1.189   9.214  19.758  0.00  0.00    +0.000 A 
ATOM     14  C   UNL     1       1.615   8.036  20.387  0.00  0.00    +0.000 A 
ATOM     15  C   UNL     1       2.363   7.086  19.682  0.00  0.00    +0.000 A 
BRANCH  13  16
ATOM     16  C   UNL     1       0.480  10.289  20.539  0.00  0.00    +0.000 C 
BRANCH  16  17
ATOM     17  O   UNL     1       0.167  11.365  19.661  0.00  0.00    +0.000 OA
BRANCH  17  18
ATOM     18  C   UNL     1      -1.166  11.642  19.521  0.00  0.00    +0.000 A 
ATOM     19  C   UNL     1      -1.788  11.026  18.435  0.00  0.00    +0.000 A 
ATOM     20  C   UNL     1      -3.152  11.215  18.198  0.00  0.00    +0.000 A 
ATOM     21  C   UNL     1      -3.921  12.008  19.061  0.00  0.00    +0.000 A 
ATOM     22  C   UNL     1      -3.286  12.632  20.142  0.00  0.00    +0.000 A 
ATOM     23  C   UNL     1      -1.921  12.444  20.377  0.00  0.00    +0.000 A 
BRANCH  21  24
ATOM     24  C   UNL     1      -5.385  12.226  18.782  0.00  0.00    +0.000 C 
BRANCH  24  25
ATOM     25  O   UNL     1      -5.933  13.241  19.615  0.00  0.00    +0.000 OA
ATOM     26  H   UNL     1      -6.901  13.172  19.538  0.00  0.00    +0.000 HD
ENDBRANCH  24  25
ENDBRANCH  21  24
ENDBRANCH  17  18
ENDBRANCH  16  17
ENDBRANCH  13  16
ENDBRANCH   2  10
BRANCH   1  28
ATOM     27  N   UNL     1       2.796   3.242  18.721  0.00  0.00    +0.000 N 
ATOM     28  C   UNL     1       2.506   4.126  17.704  0.00  0.00    +0.000 C 
ATOM     29  O   UNL     1       1.407   4.165  17.161  0.00  0.00    +0.000 OA
ATOM     30  H   UNL     1       3.695   3.293  19.179  0.00  0.00    +0.000 HD
BRANCH  27  31
ATOM     31  C   UNL     1       1.803   2.310  19.213  0.00  0.00    +0.000 C 
BRANCH  31  33
ATOM     32  C   UNL     1       2.397   2.606  21.657  0.00  0.00    +0.000 C 
ATOM     33  C   UNL     1       1.286   2.682  20.610  0.00  0.00    +0.000 C 
ATOM     34  C   UNL     1       0.682   4.086  20.587  0.00  0.00    +0.000 C 
ENDBRANCH  31  33
ENDBRANCH  27  31
ENDBRANCH   1  28
TORSDOF 9
ENDMDL
MODEL 5
REMARK VINA RESULT:      -8.6      2.957      3.589
REMARK  Name = 
REMARK  11 active torsions:
REMARK  status: ('A' for Active; 'I' for Inactive)
REMARK    1  A    between atoms: C_1  and  C_2
REMARK    2  A    between atoms: C_2  and  C_3
REMARK    3  A    between atoms: C_2  and  C_4
REMARK    4  A    between atoms: C_4  and  N_5
REMARK    5  A    between atoms: C_6  and  C_8
REMARK    6  A    between atoms: C_9  and  C_10
REMARK    7  A    between atoms: C_13  and  C_14
REMARK    8  A    between atoms: C_14  and  O_15
REMARK    9  A    between atoms: O_15  and  C_16
REMARK   10  A    between atoms: C_19  and  C_20
REMARK   11  A    between atoms: C_20  and  O_21
REMARK                            x       y       z     vdW  Elec       q    Type
REMARK                         _______ _______ _______ _____ _____    ______ ____
ROOT
ATOM      1  C   UNL     1       3.489   5.099  17.430  0.00  0.00    +0.000 A 
ATOM      2  C   UNL     1       3.493   6.461  17.715  0.00  0.00    +0.000 A 
ATOM      3  O   UNL     1       4.604   7.049  17.179  0.00  0.00    +0.000 OA
ATOM      4  C   UNL     1       5.314   6.078  16.546  0.00  0.00    +0.000 A 
ATOM      5  C   UNL     1       6.505   6.273  15.848  0.00  0.00    +0.000 A 
ATOM      6  C   UNL     1       7.071   5.146  15.241  0.00  0.00    +0.000 A 
ATOM      7  C   UNL     1       6.462   3.894  15.340  0.00  0.00    +0.000 A 
ATOM      8  C   UNL     1       5.264   3.730  16.047  0.00  0.00    +0.000 A 
ATOM      9  C   UNL     1       4.677   4.849  16.674  0.00  0.00    +0.000 A 
ENDROOT
BRANCH   2  10
ATOM     10  C   UNL     1       2.586   7.350  18.437  0.00  0.00    +0.000 A 
ATOM     11  C   UNL     1       2.036   8.474  17.805  0.00  0.00    +0.000 A 
ATOM     12  C   UNL     1       1.305   9.419  18.527  0.00  0.00    +0.000 A 
ATOM     13  C   UNL     1       1.096   9.249  19.897  0.00  0.00    +0.000 A 
ATOM     14  C   UNL     1       1.560   8.081  20.516  0.00  0.00    +0.000 A 
ATOM     15  C   UNL     1       2.303   7.141  19.792  0.00  0.00    +0.000 A 
BRANCH  13  16
ATOM     16  C   UNL     1       0.393  10.315  20.696  0.00  0.00    +0.000 C 
BRANCH  16  17
ATOM     17  O   UNL     1       1.346  11.294  21.096  0.00  0.00    +0.000 OA
BRANCH  17  18
ATOM     18  C   UNL     1       1.222  12.517  20.495  0.00  0.00    +0.000 A 
ATOM     19  C   UNL     1      -0.055  13.077  20.549  0.00  0.00    +0.000 A 
ATOM     20  C   UNL     1      -0.303  14.333  19.989  0.00  0.00    +0.000 A 
ATOM     21  C   UNL     1       0.733  15.060  19.386  0.00  0.00    +0.000 A 
ATOM     22  C   UNL     1       2.009  14.486  19.327  0.00  0.00    +0.000 A 
ATOM     23  C   UNL     1       2.255  13.228  19.885  0.00  0.00    +0.000 A 
BRANCH  21  24
ATOM     24  C   UNL     1       0.450  16.402  18.763  0.00  0.00    +0.000 C 
BRANCH  24  25
ATOM     25  O   UNL     1      -0.901  16.507  18.331  0.00  0.00    +0.000 OA
ATOM     26  H   UNL     1      -1.202  17.401  18.571  0.00  0.00    +0.000 HD
ENDBRANCH  24  25
ENDBRANCH  21  24
ENDBRANCH  17  18
ENDBRANCH  16  17
ENDBRANCH  13  16
ENDBRANCH   2  10
BRANCH   1  28
ATOM     27  N   UNL     1       2.774   3.240  18.735  0.00  0.00    +0.000 N 
ATOM     28  C   UNL     1       2.423   4.183  17.793  0.00  0.00    +0.000 C 
ATOM     29  O   UNL     1       1.290   4.261  17.329  0.00  0.00    +0.000 OA
ATOM     30  H   UNL     1       3.702   3.260  19.133  0.00  0.00    +0.000 HD
BRANCH  27  31
ATOM     31  C   UNL     1       1.808   2.286  19.237  0.00  0.00    +0.000 C 
BRANCH  31  33
ATOM     32  C   UNL     1       2.468   2.548  21.667  0.00  0.00    +0.000 C 
ATOM     33  C   UNL     1       1.326   2.625  20.655  0.00  0.00    +0.000 C 
ATOM     34  C   UNL     1       0.700   4.020  20.675  0.00  0.00    +0.000 C 
ENDBRANCH  31  33
ENDBRANCH  27  31
ENDBRANCH   1  28
TORSDOF 9
ENDMDL
MODEL 6
REMARK VINA RESULT:      -8.5      1.723      2.132
REMARK  Name = 
REMARK  11 active torsions:
REMARK  status: ('A' for Active; 'I' for Inactive)
REMARK    1  A    between atoms: C_1  and  C_2
REMARK    2  A    between atoms: C_2  and  C_3
REMARK    3  A    between atoms: C_2  and  C_4
REMARK    4  A    between atoms: C_4  and  N_5
REMARK    5  A    between atoms: C_6  and  C_8
REMARK    6  A    between atoms: C_9  and  C_10
REMARK    7  A    between atoms: C_13  and  C_14
REMARK    8  A    between atoms: C_14  and  O_15
REMARK    9  A    between atoms: O_15  and  C_16
REMARK   10  A    between atoms: C_19  and  C_20
REMARK   11  A    between atoms: C_20  and  O_21
REMARK                            x       y       z     vdW  Elec       q    Type
REMARK                         _______ _______ _______ _____ _____    ______ ____
ROOT
ATOM      1  C   UNL     1       3.172   5.612  17.768  0.00  0.00    +0.000 A 
ATOM      2  C   UNL     1       3.254   6.998  17.850  0.00  0.00    +0.000 A 
ATOM      3  O   UNL     1       4.453   7.428  17.354  0.00  0.00    +0.000 OA
ATOM      4  C   UNL     1       5.143   6.329  16.947  0.00  0.00    +0.000 A 
ATOM      5  C   UNL     1       6.406   6.342  16.356  0.00  0.00    +0.000 A 
ATOM      6  C   UNL     1       6.938   5.102  15.983  0.00  0.00    +0.000 A 
ATOM      7  C   UNL     1       6.229   3.920  16.198  0.00  0.00    +0.000 A 
ATOM      8  C   UNL     1       4.960   3.940  16.793  0.00  0.00    +0.000 A 
ATOM      9  C   UNL     1       4.404   5.176  17.184  0.00  0.00    +0.000 A 
ENDROOT
BRANCH   2  10
ATOM     10  C   UNL     1       2.354   8.041  18.336  0.00  0.00    +0.000 A 
ATOM     11  C   UNL     1       2.018   9.130  17.520  0.00  0.00    +0.000 A 
ATOM     12  C   UNL     1       1.298  10.213  18.026  0.00  0.00    +0.000 A 
ATOM     13  C   UNL     1       0.883  10.220  19.359  0.00  0.00    +0.000 A 
ATOM     14  C   UNL     1       1.132   9.093  20.154  0.00  0.00    +0.000 A 
ATOM     15  C   UNL     1       1.865   8.015  19.648  0.00  0.00    +0.000 A 
BRANCH  13  16
ATOM     16  C   UNL     1       0.192  11.429  19.934  0.00  0.00    +0.000 C 
BRANCH  16  17
ATOM     17  O   UNL     1      -1.205  11.166  20.012  0.00  0.00    +0.000 OA
BRANCH  17  18
ATOM     18  C   UNL     1      -1.817  10.873  18.824  0.00  0.00    +0.000 A 
ATOM     19  C   UNL     1      -1.732  11.870  17.851  0.00  0.00    +0.000 A 
ATOM     20  C   UNL     1      -2.301  11.681  16.590  0.00  0.00    +0.000 A 
ATOM     21  C   UNL     1      -2.945  10.476  16.273  0.00  0.00    +0.000 A 
ATOM     22  C   UNL     1      -3.036   9.486  17.259  0.00  0.00    +0.000 A 
ATOM     23  C   UNL     1      -2.469   9.678  18.522  0.00  0.00    +0.000 A 
BRANCH  21  24
ATOM     24  C   UNL     1      -3.577  10.292  14.918  0.00  0.00    +0.000 C 
BRANCH  24  25
ATOM     25  O   UNL     1      -2.598  10.184  13.892  0.00  0.00    +0.000 OA
ATOM     26  H   UNL     1      -2.792   9.364  13.406  0.00  0.00    +0.000 HD
ENDBRANCH  24  25
ENDBRANCH  21  24
ENDBRANCH  17  18
ENDBRANCH  16  17
ENDBRANCH  13  16
ENDBRANCH   2  10
BRANCH   1  28
ATOM     27  N   UNL     1       1.884   4.609  19.501  0.00  0.00    +0.000 N 
ATOM     28  C   UNL     1       2.010   4.830  18.146  0.00  0.00    +0.000 C 
ATOM     29  O   UNL     1       1.184   4.426  17.334  0.00  0.00    +0.000 OA
ATOM     30  H   UNL     1       2.557   5.018  20.133  0.00  0.00    +0.000 HD
BRANCH  27  31
ATOM     31  C   UNL     1       0.751   3.887  20.041  0.00  0.00    +0.000 C 
BRANCH  31  33
ATOM     32  C   UNL     1       1.994   1.750  19.493  0.00  0.00    +0.000 C 
ATOM     33  C   UNL     1       1.124   2.476  20.518  0.00  0.00    +0.000 C 
ATOM     34  C   UNL     1       1.850   2.553  21.861  0.00  0.00    +0.000 C 
ENDBRANCH  31  33
ENDBRANCH  27  31
ENDBRANCH   1  28
TORSDOF 9
ENDMDL
MODEL 7
REMARK VINA RESULT:      -8.5      2.737      3.219
REMARK  Name = 
REMARK  11 active torsions:
REMARK  status: ('A' for Active; 'I' for Inactive)
REMARK    1  A    between atoms: C_1  and  C_2
REMARK    2  A    between atoms: C_2  and  C_3
REMARK    3  A    between atoms: C_2  and  C_4
REMARK    4  A    between atoms: C_4  and  N_5
REMARK    5  A    between atoms: C_6  and  C_8
REMARK    6  A    between atoms: C_9  and  C_10
REMARK    7  A    between atoms: C_13  and  C_14
REMARK    8  A    between atoms: C_14  and  O_15
REMARK    9  A    between atoms: O_15  and  C_16
REMARK   10  A    between atoms: C_19  and  C_20
REMARK   11  A    between atoms: C_20  and  O_21
REMARK                            x       y       z     vdW  Elec       q    Type
REMARK                         _______ _______ _______ _____ _____    ______ ____
ROOT
ATOM      1  C   UNL     1       3.115   5.598  17.764  0.00  0.00    +0.000 A 
ATOM      2  C   UNL     1       3.197   6.982  17.872  0.00  0.00    +0.000 A 
ATOM      3  O   UNL     1       4.368   7.427  17.327  0.00  0.00    +0.000 OA
ATOM      4  C   UNL     1       5.040   6.340  16.863  0.00  0.00    +0.000 A 
ATOM      5  C   UNL     1       6.272   6.372  16.211  0.00  0.00    +0.000 A 
ATOM      6  C   UNL     1       6.789   5.142  15.785  0.00  0.00    +0.000 A 
ATOM      7  C   UNL     1       6.095   3.953  16.009  0.00  0.00    +0.000 A 
ATOM      8  C   UNL     1       4.857   3.955  16.666  0.00  0.00    +0.000 A 
ATOM      9  C   UNL     1       4.318   5.180  17.111  0.00  0.00    +0.000 A 
ENDROOT
BRANCH   2  10
ATOM     10  C   UNL     1       2.318   8.010  18.425  0.00  0.00    +0.000 A 
ATOM     11  C   UNL     1       1.863   9.065  17.622  0.00  0.00    +0.000 A 
ATOM     12  C   UNL     1       1.164  10.140  18.175  0.00  0.00    +0.000 A 
ATOM     13  C   UNL     1       0.891  10.171  19.544  0.00  0.00    +0.000 A 
ATOM     14  C   UNL     1       1.259   9.075  20.336  0.00  0.00    +0.000 A 
ATOM     15  C   UNL     1       1.970   8.005  19.781  0.00  0.00    +0.000 A 
BRANCH  13  16
ATOM     16  C   UNL     1       0.224  11.374  20.159  0.00  0.00    +0.000 C 
BRANCH  16  17
ATOM     17  O   UNL     1       0.241  11.236  21.575  0.00  0.00    +0.000 OA
BRANCH  17  18
ATOM     18  C   UNL     1      -0.640  12.031  22.256  0.00  0.00    +0.000 A 
ATOM     19  C   UNL     1      -1.756  11.372  22.773  0.00  0.00    +0.000 A 
ATOM     20  C   UNL     1      -2.718  12.073  23.505  0.00  0.00    +0.000 A 
ATOM     21  C   UNL     1      -2.564  13.444  23.753  0.00  0.00    +0.000 A 
ATOM     22  C   UNL     1      -1.446  14.100  23.222  0.00  0.00    +0.000 A 
ATOM     23  C   UNL     1      -0.486  13.398  22.486  0.00  0.00    +0.000 A 
BRANCH  21  24
ATOM     24  C   UNL     1      -3.618  14.195  24.523  0.00  0.00    +0.000 C 
BRANCH  24  25
ATOM     25  O   UNL     1      -3.130  14.647  25.780  0.00  0.00    +0.000 OA
ATOM     26  H   UNL     1      -3.387  15.582  25.859  0.00  0.00    +0.000 HD
ENDBRANCH  24  25
ENDBRANCH  21  24
ENDBRANCH  17  18
ENDBRANCH  16  17
ENDBRANCH  13  16
ENDBRANCH   2  10
BRANCH   1  28
ATOM     27  N   UNL     1       1.875   4.615  19.544  0.00  0.00    +0.000 N 
ATOM     28  C   UNL     1       1.975   4.802  18.182  0.00  0.00    +0.000 C 
ATOM     29  O   UNL     1       1.145   4.360  17.395  0.00  0.00    +0.000 OA
ATOM     30  H   UNL     1       2.550   5.054  20.155  0.00  0.00    +0.000 HD
BRANCH  27  31
ATOM     31  C   UNL     1       0.767   3.886  20.122  0.00  0.00    +0.000 C 
BRANCH  31  33
ATOM     32  C   UNL     1       1.896   1.692  19.552  0.00  0.00    +0.000 C 
ATOM     33  C   UNL     1       1.177   2.497  20.634  0.00  0.00    +0.000 C 
ATOM     34  C   UNL     1       2.072   2.637  21.865  0.00  0.00    +0.000 C 
ENDBRANCH  31  33
ENDBRANCH  27  31
ENDBRANCH   1  28
TORSDOF 9
ENDMDL
MODEL 8
REMARK VINA RESULT:      -8.5      1.867      2.057
REMARK  Name = 
REMARK  11 active torsions:
REMARK  status: ('A' for Active; 'I' for Inactive)
REMARK    1  A    between atoms: C_1  and  C_2
REMARK    2  A    between atoms: C_2  and  C_3
REMARK    3  A    between atoms: C_2  and  C_4
REMARK    4  A    between atoms: C_4  and  N_5
REMARK    5  A    between atoms: C_6  and  C_8
REMARK    6  A    between atoms: C_9  and  C_10
REMARK    7  A    between atoms: C_13  and  C_14
REMARK    8  A    between atoms: C_14  and  O_15
REMARK    9  A    between atoms: O_15  and  C_16
REMARK   10  A    between atoms: C_19  and  C_20
REMARK   11  A    between atoms: C_20  and  O_21
REMARK                            x       y       z     vdW  Elec       q    Type
REMARK                         _______ _______ _______ _____ _____    ______ ____
ROOT
ATOM      1  C   UNL     1       3.571   5.060  17.380  0.00  0.00    +0.000 A 
ATOM      2  C   UNL     1       3.677   6.411  17.690  0.00  0.00    +0.000 A 
ATOM      3  O   UNL     1       4.809   6.934  17.130  0.00  0.00    +0.000 OA
ATOM      4  C   UNL     1       5.431   5.931  16.456  0.00  0.00    +0.000 A 
ATOM      5  C   UNL     1       6.610   6.060  15.723  0.00  0.00    +0.000 A 
ATOM      6  C   UNL     1       7.078   4.910  15.078  0.00  0.00    +0.000 A 
ATOM      7  C   UNL     1       6.389   3.700  15.172  0.00  0.00    +0.000 A 
ATOM      8  C   UNL     1       5.205   3.603  15.915  0.00  0.00    +0.000 A 
ATOM      9  C   UNL     1       4.716   4.746  16.581  0.00  0.00    +0.000 A 
ENDROOT
BRANCH   2  10
ATOM     10  C   UNL     1       2.855   7.344  18.458  0.00  0.00    +0.000 A 
ATOM     11  C   UNL     1       2.510   7.061  19.787  0.00  0.00    +0.000 A 
ATOM     12  C   UNL     1       1.593   7.855  20.477  0.00  0.00    +0.000 A 
ATOM     13  C   UNL     1       1.013   8.961  19.854  0.00  0.00    +0.000 A 
ATOM     14  C   UNL     1       1.425   9.306  18.559  0.00  0.00    +0.000 A 
ATOM     15  C   UNL     1       2.336   8.501  17.866  0.00  0.00    +0.000 A 
BRANCH  13  16
ATOM     16  C   UNL     1      -0.049   9.762  20.561  0.00  0.00    +0.000 C 
BRANCH  16  17
ATOM     17  O   UNL     1      -0.323  10.935  19.802  0.00  0.00    +0.000 OA
BRANCH  17  18
ATOM     18  C   UNL     1      -1.244  10.788  18.801  0.00  0.00    +0.000 A 
ATOM     19  C   UNL     1      -1.220  11.783  17.823  0.00  0.00    +0.000 A 
ATOM     20  C   UNL     1      -2.099  11.733  16.738  0.00  0.00    +0.000 A 
ATOM     21  C   UNL     1      -3.002  10.670  16.602  0.00  0.00    +0.000 A 
ATOM     22  C   UNL     1      -3.028   9.682  17.595  0.00  0.00    +0.000 A 
ATOM     23  C   UNL     1      -2.150   9.734  18.682  0.00  0.00    +0.000 A 
BRANCH  21  24
ATOM     24  C   UNL     1      -3.962  10.639  15.442  0.00  0.00    +0.000 C 
BRANCH  24  25
ATOM     25  O   UNL     1      -3.316  10.251  14.236  0.00  0.00    +0.000 OA
ATOM     26  H   UNL     1      -3.952   9.705  13.742  0.00  0.00    +0.000 HD
ENDBRANCH  24  25
ENDBRANCH  21  24
ENDBRANCH  17  18
ENDBRANCH  16  17
ENDBRANCH  13  16
ENDBRANCH   2  10
BRANCH   1  28
ATOM     27  N   UNL     1       2.759   3.259  18.710  0.00  0.00    +0.000 N 
ATOM     28  C   UNL     1       2.457   4.210  17.760  0.00  0.00    +0.000 C 
ATOM     29  O   UNL     1       1.328   4.347  17.301  0.00  0.00    +0.000 OA
ATOM     30  H   UNL     1       3.689   3.230  19.103  0.00  0.00    +0.000 HD
BRANCH  27  31
ATOM     31  C   UNL     1       1.743   2.368  19.229  0.00  0.00    +0.000 C 
BRANCH  31  33
ATOM     32  C   UNL     1       2.426   2.627  21.654  0.00  0.00    +0.000 C 
ATOM     33  C   UNL     1       1.286   2.753  20.644  0.00  0.00    +0.000 C 
ATOM     34  C   UNL     1       0.740   4.181  20.645  0.00  0.00    +0.000 C 
ENDBRANCH  31  33
ENDBRANCH  27  31
ENDBRANCH   1  28
TORSDOF 9
ENDMDL
MODEL 9
REMARK VINA RESULT:      -8.5      2.572      3.149
REMARK  Name = 
REMARK  11 active torsions:
REMARK  status: ('A' for Active; 'I' for Inactive)
REMARK    1  A    between atoms: C_1  and  C_2
REMARK    2  A    between atoms: C_2  and  C_3
REMARK    3  A    between atoms: C_2  and  C_4
REMARK    4  A    between atoms: C_4  and  N_5
REMARK    5  A    between atoms: C_6  and  C_8
REMARK    6  A    between atoms: C_9  and  C_10
REMARK    7  A    between atoms: C_13  and  C_14
REMARK    8  A    between atoms: C_14  and  O_15
REMARK    9  A    between atoms: O_15  and  C_16
REMARK   10  A    between atoms: C_19  and  C_20
REMARK   11  A    between atoms: C_20  and  O_21
REMARK                            x       y       z     vdW  Elec       q    Type
REMARK                         _______ _______ _______ _____ _____    ______ ____
ROOT
ATOM      1  C   UNL     1       3.631   4.979  17.317  0.00  0.00    +0.000 A 
ATOM      2  C   UNL     1       3.736   6.329  17.637  0.00  0.00    +0.000 A 
ATOM      3  O   UNL     1       4.855   6.862  17.062  0.00  0.00    +0.000 OA
ATOM      4  C   UNL     1       5.470   5.868  16.368  0.00  0.00    +0.000 A 
ATOM      5  C   UNL     1       6.635   6.010  15.617  0.00  0.00    +0.000 A 
ATOM      6  C   UNL     1       7.099   4.868  14.953  0.00  0.00    +0.000 A 
ATOM      7  C   UNL     1       6.417   3.654  15.048  0.00  0.00    +0.000 A 
ATOM      8  C   UNL     1       5.246   3.544  15.811  0.00  0.00    +0.000 A 
ATOM      9  C   UNL     1       4.763   4.678  16.495  0.00  0.00    +0.000 A 
ENDROOT
BRANCH   2  10
ATOM     10  C   UNL     1       2.923   7.250  18.427  0.00  0.00    +0.000 A 
ATOM     11  C   UNL     1       2.575   6.938  19.749  0.00  0.00    +0.000 A 
ATOM     12  C   UNL     1       1.665   7.724  20.458  0.00  0.00    +0.000 A 
ATOM     13  C   UNL     1       1.095   8.851  19.862  0.00  0.00    +0.000 A 
ATOM     14  C   UNL     1       1.511   9.223  18.576  0.00  0.00    +0.000 A 
ATOM     15  C   UNL     1       2.414   8.426  17.864  0.00  0.00    +0.000 A 
BRANCH  13  16
ATOM     16  C   UNL     1       0.041   9.644  20.588  0.00  0.00    +0.000 C 
BRANCH  16  17
ATOM     17  O   UNL     1       0.652  10.780  21.190  0.00  0.00    +0.000 OA
BRANCH  17  18
ATOM     18  C   UNL     1       0.367  11.983  20.604  0.00  0.00    +0.000 A 
ATOM     19  C   UNL     1       1.474  12.792  20.342  0.00  0.00    +0.000 A 
ATOM     20  C   UNL     1       1.314  14.036  19.728  0.00  0.00    +0.000 A 
ATOM     21  C   UNL     1       0.042  14.481  19.343  0.00  0.00    +0.000 A 
ATOM     22  C   UNL     1      -1.065  13.669  19.620  0.00  0.00    +0.000 A 
ATOM     23  C   UNL     1      -0.904  12.425  20.238  0.00  0.00    +0.000 A 
BRANCH  21  24
ATOM     24  C   UNL     1      -0.123  15.835  18.703  0.00  0.00    +0.000 C 
BRANCH  24  25
ATOM     25  O   UNL     1      -1.380  16.418  19.023  0.00  0.00    +0.000 OA
ATOM     26  H   UNL     1      -1.314  17.363  18.800  0.00  0.00    +0.000 HD
ENDBRANCH  24  25
ENDBRANCH  21  24
ENDBRANCH  17  18
ENDBRANCH  16  17
ENDBRANCH  13  16
ENDBRANCH   2  10
BRANCH   1  28
ATOM     27  N   UNL     1       2.839   3.195  18.680  0.00  0.00    +0.000 N 
ATOM     28  C   UNL     1       2.528   4.121  17.708  0.00  0.00    +0.000 C 
ATOM     29  O   UNL     1       1.399   4.231  17.241  0.00  0.00    +0.000 OA
ATOM     30  H   UNL     1       3.768   3.188  19.078  0.00  0.00    +0.000 HD
BRANCH  27  31
ATOM     31  C   UNL     1       1.834   2.298  19.212  0.00  0.00    +0.000 C 
BRANCH  31  33
ATOM     32  C   UNL     1       2.590   2.658  21.602  0.00  0.00    +0.000 C 
ATOM     33  C   UNL     1       1.404   2.674  20.638  0.00  0.00    +0.000 C 
ATOM     34  C   UNL     1       0.745   4.053  20.639  0.00  0.00    +0.000 C 
ENDBRANCH  31  33
ENDBRANCH  27  31
ENDBRANCH   1  28
TORSDOF 9
ENDMDL
