MODEL 1
REMARK VINA RESULT:      -8.1      0.000      0.000
REMARK  Name = 
REMARK  16 active torsions:
REMARK  status: ('A' for Active; 'I' for Inactive)
REMARK    1  A    between atoms: C_1  and  C_2
REMARK    2  A    between atoms: C_2  and  N_3
REMARK    3  A    between atoms: N_3  and  C_4
REMARK    4  A    between atoms: C_4  and  C_5
REMARK    5  A    between atoms: C_6  and  C_8
REMARK    6  A    between atoms: N_10  and  C_11
REMARK    7  A    between atoms: C_11  and  C_12
REMARK    8  A    between atoms: C_11  and  C_13
REMARK    9  A    between atoms: C_11  and  C_14
REMARK   10  A    between atoms: C_16  and  C_17
REMARK   11  A    between atoms: C_17  and  O_19
REMARK   12  A    between atoms: O_19  and  C_20
REMARK   13  A    between atoms: C_21  and  O_22
REMARK   14  A    between atoms: O_22  and  C_23
REMARK   15  A    between atoms: C_23  and  C_25
REMARK   16  A    between atoms: N_33  and  C_34
REMARK                            x       y       z     vdW  Elec       q    Type
REMARK                         _______ _______ _______ _____ _____    ______ ____
ROOT
ATOM      1  C   UNL     1       3.165   4.792  19.447  0.00  0.00    +0.000 A 
ATOM      2  N   UNL     1       4.363   5.177  19.764  0.00  0.00    +0.000 NA
ATOM      3  C   UNL     1       5.371   5.114  18.830  0.00  0.00    +0.000 A 
ATOM      4  C   UNL     1       5.228   4.573  17.613  0.00  0.00    +0.000 A 
ATOM      5  C   UNL     1       3.880   4.044  17.287  0.00  0.00    +0.000 A 
ATOM      6  O   UNL     1       3.730   3.386  16.255  0.00  0.00    +0.000 OA
ATOM      7  N   UNL     1       2.861   4.338  18.181  0.00  0.00    +0.000 N 
ATOM      8  C   UNL     1       1.514   4.061  17.709  0.00  0.00    +0.000 C 
ENDROOT
BRANCH   1   9
ATOM      9  C   UNL     1       2.081   4.871  20.611  0.00  0.00    +0.000 C 
ATOM     10  C   UNL     1       2.454   3.968  21.800  0.00  0.00    +0.000 C 
ATOM     11  C   UNL     1       0.719   4.329  20.100  0.00  0.00    +0.000 C 
BRANCH   9  14
ATOM     12  C   UNL     1       1.773   7.331  20.222  0.00  0.00    +0.000 C 
ATOM     13  O   UNL     1       1.931   7.289  19.013  0.00  0.00    +0.000 OA
ATOM     14  N   UNL     1       1.912   6.256  21.081  0.00  0.00    +0.000 N 
ATOM     15  H   UNL     1       1.749   6.441  22.066  0.00  0.00    +0.000 HD
BRANCH  12  17
ATOM     16  N   UNL     1       1.075   9.759  20.112  0.00  0.00    +0.000 N 
ATOM     17  C   UNL     1       1.403   8.661  20.924  0.00  0.00    +0.000 C 
ATOM     18  O   UNL     1       1.396   8.668  22.152  0.00  0.00    +0.000 OA
BRANCH  16  20
ATOM     19  C   UNL     1      -0.443  11.477  21.093  0.00  0.00    +0.000 C 
ATOM     20  C   UNL     1       0.983  11.072  20.755  0.00  0.00    +0.000 C 
ENDBRANCH  16  20
BRANCH  16  21
ATOM     21  C   UNL     1       0.983   9.610  18.654  0.00  0.00    +0.000 C 
ATOM     22  C   UNL     1      -0.362   9.847  17.985  0.00  0.00    +0.000 C 
ENDBRANCH  16  21
ENDBRANCH  12  17
ENDBRANCH   9  14
ENDBRANCH   1   9
BRANCH   3  23
ATOM     23  C   UNL     1       6.707   5.706  19.186  0.00  0.00    +0.000 C 
ATOM     24  O   UNL     1       7.506   5.237  19.982  0.00  0.00    +0.000 OA
BRANCH  23  25
ATOM     25  O   UNL     1       6.905   6.838  18.454  0.00  0.00    +0.000 OA
ATOM     26  C   UNL     1       8.247   7.327  18.437  0.00  0.00    +0.000 C 
ENDBRANCH  23  25
ENDBRANCH   3  23
BRANCH   4  27
ATOM     27  O   UNL     1       6.232   4.506  16.635  0.00  0.00    +0.000 OA
BRANCH  27  28
ATOM     28  C   UNL     1       5.990   5.399  15.629  0.00  0.00    +0.000 C 
ATOM     29  O   UNL     1       5.535   6.529  15.758  0.00  0.00    +0.000 OA
BRANCH  28  30
ATOM     30  C   UNL     1       6.396   4.853  14.303  0.00  0.00    +0.000 A 
ATOM     31  C   UNL     1       5.592   3.847  13.742  0.00  0.00    +0.000 A 
ATOM     32  C   UNL     1       5.881   3.328  12.478  0.00  0.00    +0.000 A 
ATOM     33  C   UNL     1       6.977   3.809  11.766  0.00  0.00    +0.000 A 
ATOM     34  C   UNL     1       7.790   4.799  12.319  0.00  0.00    +0.000 A 
ATOM     35  C   UNL     1       7.504   5.322  13.585  0.00  0.00    +0.000 A 
ENDBRANCH  28  30
ENDBRANCH  27  28
ENDBRANCH   4  27
TORSDOF 10
ENDMDL
MODEL 2
REMARK VINA RESULT:      -7.7      2.423      4.466
REMARK  Name = 
REMARK  16 active torsions:
REMARK  status: ('A' for Active; 'I' for Inactive)
REMARK    1  A    between atoms: C_1  and  C_2
REMARK    2  A    between atoms: C_2  and  N_3
REMARK    3  A    between atoms: N_3  and  C_4
REMARK    4  A    between atoms: C_4  and  C_5
REMARK    5  A    between atoms: C_6  and  C_8
REMARK    6  A    between atoms: N_10  and  C_11
REMARK    7  A    between atoms: C_11  and  C_12
REMARK    8  A    between atoms: C_11  and  C_13
REMARK    9  A    between atoms: C_11  and  C_14
REMARK   10  A    between atoms: C_16  and  C_17
REMARK   11  A    between atoms: C_17  and  O_19
REMARK   12  A    between atoms: O_19  and  C_20
REMARK   13  A    between atoms: C_21  and  O_22
REMARK   14  A    between atoms: O_22  and  C_23
REMARK   15  A    between atoms: C_23  and  C_25
REMARK   16  A    between atoms: N_33  and  C_34
REMARK                            x       y       z     vdW  Elec       q    Type
REMARK                         _______ _______ _______ _____ _____    ______ ____
ROOT
ATOM      1  C   UNL     1       1.449   7.825  20.280  0.00  0.00    +0.000 A 
ATOM      2  N   UNL     1       1.395   6.616  20.749  0.00  0.00    +0.000 NA
ATOM      3  C   UNL     1       2.067   5.602  20.107  0.00  0.00    +0.000 A 
ATOM      4  C   UNL     1       2.709   5.753  18.940  0.00  0.00    +0.000 A 
ATOM      5  C   UNL     1       2.687   7.117  18.355  0.00  0.00    +0.000 A 
ATOM      6  O   UNL     1       3.112   7.283  17.209  0.00  0.00    +0.000 OA
ATOM      7  N   UNL     1       2.188   8.133  19.156  0.00  0.00    +0.000 N 
ATOM      8  C   UNL     1       2.435   9.485  18.682  0.00  0.00    +0.000 C 
ENDROOT
BRANCH   1   9
ATOM      9  C   UNL     1       0.605   8.915  21.075  0.00  0.00    +0.000 C 
ATOM     10  C   UNL     1       1.404   9.512  22.247  0.00  0.00    +0.000 C 
ATOM     11  C   UNL     1      -0.637   8.249  21.726  0.00  0.00    +0.000 C 
BRANCH   9  14
ATOM     12  C   UNL     1      -0.580  11.079  20.612  0.00  0.00    +0.000 C 
ATOM     13  O   UNL     1      -1.089  11.184  21.716  0.00  0.00    +0.000 OA
ATOM     14  N   UNL     1       0.167   9.999  20.179  0.00  0.00    +0.000 N 
ATOM     15  H   UNL     1       0.529  10.051  19.232  0.00  0.00    +0.000 HD
BRANCH  12  17
ATOM     16  N   UNL     1       0.153  13.268  19.580  0.00  0.00    +0.000 N 
ATOM     17  C   UNL     1      -0.754  12.195  19.554  0.00  0.00    +0.000 C 
ATOM     18  O   UNL     1      -1.662  12.064  18.738  0.00  0.00    +0.000 OA
BRANCH  16  20
ATOM     19  C   UNL     1      -0.561  15.657  19.583  0.00  0.00    +0.000 C 
ATOM     20  C   UNL     1      -0.162  14.441  18.762  0.00  0.00    +0.000 C 
ENDBRANCH  16  20
BRANCH  16  21
ATOM     21  C   UNL     1       1.287  13.265  20.513  0.00  0.00    +0.000 C 
ATOM     22  C   UNL     1       2.650  13.699  19.998  0.00  0.00    +0.000 C 
ENDBRANCH  16  21
ENDBRANCH  12  17
ENDBRANCH   9  14
ENDBRANCH   1   9
BRANCH   3  23
ATOM     23  C   UNL     1       2.103   4.248  20.759  0.00  0.00    +0.000 C 
ATOM     24  O   UNL     1       3.060   3.764  21.347  0.00  0.00    +0.000 OA
BRANCH  23  25
ATOM     25  O   UNL     1       0.887   3.650  20.621  0.00  0.00    +0.000 OA
ATOM     26  C   UNL     1       0.766   2.761  19.510  0.00  0.00    +0.000 C 
ENDBRANCH  23  25
ENDBRANCH   3  23
BRANCH   4  27
ATOM     27  O   UNL     1       3.414   4.743  18.268  0.00  0.00    +0.000 OA
BRANCH  27  28
ATOM     28  C   UNL     1       4.761   4.895  18.441  0.00  0.00    +0.000 C 
ATOM     29  O   UNL     1       5.338   5.083  19.505  0.00  0.00    +0.000 OA
BRANCH  28  30
ATOM     30  C   UNL     1       5.497   4.756  17.153  0.00  0.00    +0.000 A 
ATOM     31  C   UNL     1       4.768   4.324  16.032  0.00  0.00    +0.000 A 
ATOM     32  C   UNL     1       5.379   4.224  14.781  0.00  0.00    +0.000 A 
ATOM     33  C   UNL     1       6.725   4.552  14.639  0.00  0.00    +0.000 A 
ATOM     34  C   UNL     1       7.462   4.971  15.747  0.00  0.00    +0.000 A 
ATOM     35  C   UNL     1       6.853   5.074  17.003  0.00  0.00    +0.000 A 
ENDBRANCH  28  30
ENDBRANCH  27  28
ENDBRANCH   4  27
TORSDOF 10
ENDMDL
MODEL 3
REMARK VINA RESULT:      -7.6      2.729      5.056
REMARK  Name = 
REMARK  16 active torsions:
REMARK  status: ('A' for Active; 'I' for Inactive)
REMARK    1  A    between atoms: C_1  and  C_2
REMARK    2  A    between atoms: C_2  and  N_3
REMARK    3  A    between atoms: N_3  and  C_4
REMARK    4  A    between atoms: C_4  and  C_5
REMARK    5  A    between atoms: C_6  and  C_8
REMARK    6  A    between atoms: N_10  and  C_11
REMARK    7  A    between atoms: C_11  and  C_12
REMARK    8  A    between atoms: C_11  and  C_13
REMARK    9  A    between atoms: C_11  and  C_14
REMARK   10  A    between atoms: C_16  and  C_17
REMARK   11  A    between atoms: C_17  and  O_19
REMARK   12  A    between atoms: O_19  and  C_20
REMARK   13  A    between atoms: C_21  and  O_22
REMARK   14  A    between atoms: O_22  and  C_23
REMARK   15  A    between atoms: C_23  and  C_25
REMARK   16  A    between atoms: N_33  and  C_34
REMARK                            x       y       z     vdW  Elec       q    Type
REMARK                         _______ _______ _______ _____ _____    ______ ____
ROOT
ATOM      1  C   UNL     1       1.171   8.440  20.108  0.00  0.00    +0.000 A 
ATOM      2  N   UNL     1       1.114   7.269  20.664  0.00  0.00    +0.000 NA
ATOM      3  C   UNL     1       1.798   6.213  20.106  0.00  0.00    +0.000 A 
ATOM      4  C   UNL     1       2.454   6.281  18.940  0.00  0.00    +0.000 A 
ATOM      5  C   UNL     1       2.436   7.598  18.256  0.00  0.00    +0.000 A 
ATOM      6  O   UNL     1       2.875   7.682  17.107  0.00  0.00    +0.000 OA
ATOM      7  N   UNL     1       1.923   8.669  18.975  0.00  0.00    +0.000 N 
ATOM      8  C   UNL     1       2.173   9.983  18.407  0.00  0.00    +0.000 C 
ENDROOT
BRANCH   1   9
ATOM      9  C   UNL     1       0.314   9.583  20.812  0.00  0.00    +0.000 C 
ATOM     10  C   UNL     1       1.169  10.821  21.134  0.00  0.00    +0.000 C 
ATOM     11  C   UNL     1      -0.209   9.080  22.184  0.00  0.00    +0.000 C 
BRANCH   9  14
ATOM     12  C   UNL     1      -0.995  11.265  19.486  0.00  0.00    +0.000 C 
ATOM     13  O   UNL     1      -0.333  12.234  19.822  0.00  0.00    +0.000 OA
ATOM     14  N   UNL     1      -0.826   9.980  19.968  0.00  0.00    +0.000 N 
ATOM     15  H   UNL     1      -1.452   9.272  19.597  0.00  0.00    +0.000 HD
BRANCH  12  17
ATOM     16  N   UNL     1      -3.352  11.973  18.904  0.00  0.00    +0.000 N 
ATOM     17  C   UNL     1      -2.143  11.412  18.458  0.00  0.00    +0.000 C 
ATOM     18  O   UNL     1      -1.920  11.049  17.307  0.00  0.00    +0.000 OA
BRANCH  16  20
ATOM     19  C   UNL     1      -5.412  10.689  18.336  0.00  0.00    +0.000 C 
ATOM     20  C   UNL     1      -4.512  11.872  18.016  0.00  0.00    +0.000 C 
ENDBRANCH  16  20
BRANCH  16  21
ATOM     21  C   UNL     1      -3.473  12.498  20.270  0.00  0.00    +0.000 C 
ATOM     22  C   UNL     1      -4.469  13.618  20.529  0.00  0.00    +0.000 C 
ENDBRANCH  16  21
ENDBRANCH  12  17
ENDBRANCH   9  14
ENDBRANCH   1   9
BRANCH   3  23
ATOM     23  C   UNL     1       1.829   4.911  20.856  0.00  0.00    +0.000 C 
ATOM     24  O   UNL     1       2.645   4.599  21.712  0.00  0.00    +0.000 OA
BRANCH  23  25
ATOM     25  O   UNL     1       0.783   4.135  20.455  0.00  0.00    +0.000 OA
ATOM     26  C   UNL     1       1.088   2.755  20.251  0.00  0.00    +0.000 C 
ENDBRANCH  23  25
ENDBRANCH   3  23
BRANCH   4  27
ATOM     27  O   UNL     1       3.171   5.228  18.352  0.00  0.00    +0.000 OA
BRANCH  27  28
ATOM     28  C   UNL     1       4.513   5.377  18.562  0.00  0.00    +0.000 C 
ATOM     29  O   UNL     1       5.055   5.622  19.634  0.00  0.00    +0.000 OA
BRANCH  28  30
ATOM     30  C   UNL     1       5.291   5.157  17.311  0.00  0.00    +0.000 A 
ATOM     31  C   UNL     1       6.565   5.744  17.227  0.00  0.00    +0.000 A 
ATOM     32  C   UNL     1       7.372   5.535  16.108  0.00  0.00    +0.000 A 
ATOM     33  C   UNL     1       6.912   4.739  15.061  0.00  0.00    +0.000 A 
ATOM     34  C   UNL     1       5.645   4.160  15.128  0.00  0.00    +0.000 A 
ATOM     35  C   UNL     1       4.832   4.367  16.249  0.00  0.00    +0.000 A 
ENDBRANCH  28  30
ENDBRANCH  27  28
ENDBRANCH   4  27
TORSDOF 10
ENDMDL
MODEL 4
REMARK VINA RESULT:      -7.6      2.344      4.311
REMARK  Name = 
REMARK  16 active torsions:
REMARK  status: ('A' for Active; 'I' for Inactive)
REMARK    1  A    between atoms: C_1  and  C_2
REMARK    2  A    between atoms: C_2  and  N_3
REMARK    3  A    between atoms: N_3  and  C_4
REMARK    4  A    between atoms: C_4  and  C_5
REMARK    5  A    between atoms: C_6  and  C_8
REMARK    6  A    between atoms: N_10  and  C_11
REMARK    7  A    between atoms: C_11  and  C_12
REMARK    8  A    between atoms: C_11  and  C_13
REMARK    9  A    between atoms: C_11  and  C_14
REMARK   10  A    between atoms: C_16  and  C_17
REMARK   11  A    between atoms: C_17  and  O_19
REMARK   12  A    between atoms: O_19  and  C_20
REMARK   13  A    between atoms: C_21  and  O_22
REMARK   14  A    between atoms: O_22  and  C_23
REMARK   15  A    between atoms: C_23  and  C_25
REMARK   16  A    between atoms: N_33  and  C_34
REMARK                            x       y       z     vdW  Elec       q    Type
REMARK                         _______ _______ _______ _____ _____    ______ ____
ROOT
ATOM      1  C   UNL     1       1.629   7.542  20.266  0.00  0.00    +0.000 A 
ATOM      2  N   UNL     1       1.519   6.335  20.729  0.00  0.00    +0.000 NA
ATOM      3  C   UNL     1       2.122   5.290  20.068  0.00  0.00    +0.000 A 
ATOM      4  C   UNL     1       2.748   5.415  18.890  0.00  0.00    +0.000 A 
ATOM      5  C   UNL     1       2.789   6.782  18.313  0.00  0.00    +0.000 A 
ATOM      6  O   UNL     1       3.200   6.932  17.160  0.00  0.00    +0.000 OA
ATOM      7  N   UNL     1       2.361   7.818  19.130  0.00  0.00    +0.000 N 
ATOM      8  C   UNL     1       2.673   9.158  18.660  0.00  0.00    +0.000 C 
ENDROOT
BRANCH   1   9
ATOM      9  C   UNL     1       0.862   8.671  21.085  0.00  0.00    +0.000 C 
ATOM     10  C   UNL     1       1.527   8.941  22.446  0.00  0.00    +0.000 C 
ATOM     11  C   UNL     1      -0.576   8.193  21.422  0.00  0.00    +0.000 C 
BRANCH   9  14
ATOM     12  C   UNL     1       0.579  11.159  20.904  0.00  0.00    +0.000 C 
ATOM     13  O   UNL     1       0.268  11.336  22.070  0.00  0.00    +0.000 OA
ATOM     14  N   UNL     1       0.794   9.925  20.316  0.00  0.00    +0.000 N 
ATOM     15  H   UNL     1       1.049   9.931  19.333  0.00  0.00    +0.000 HD
BRANCH  12  17
ATOM     16  N   UNL     1      -0.413  12.919  19.383  0.00  0.00    +0.000 N 
ATOM     17  C   UNL     1       0.750  12.359  19.940  0.00  0.00    +0.000 C 
ATOM     18  O   UNL     1       1.890  12.764  19.739  0.00  0.00    +0.000 OA
BRANCH  16  20
ATOM     19  C   UNL     1      -0.189  15.318  18.742  0.00  0.00    +0.000 C 
ATOM     20  C   UNL     1      -0.243  13.870  18.282  0.00  0.00    +0.000 C 
ENDBRANCH  16  20
BRANCH  16  21
ATOM     21  C   UNL     1      -1.741  12.446  19.792  0.00  0.00    +0.000 C 
ATOM     22  C   UNL     1      -2.518  13.262  20.812  0.00  0.00    +0.000 C 
ENDBRANCH  16  21
ENDBRANCH  12  17
ENDBRANCH   9  14
ENDBRANCH   1   9
BRANCH   3  23
ATOM     23  C   UNL     1       2.098   3.932  20.712  0.00  0.00    +0.000 C 
ATOM     24  O   UNL     1       3.013   3.424  21.341  0.00  0.00    +0.000 OA
BRANCH  23  25
ATOM     25  O   UNL     1       0.877   3.361  20.509  0.00  0.00    +0.000 OA
ATOM     26  C   UNL     1       0.775   2.533  19.350  0.00  0.00    +0.000 C 
ENDBRANCH  23  25
ENDBRANCH   3  23
BRANCH   4  27
ATOM     27  O   UNL     1       3.384   4.373  18.198  0.00  0.00    +0.000 OA
BRANCH  27  28
ATOM     28  C   UNL     1       4.736   4.412  18.396  0.00  0.00    +0.000 C 
ATOM     29  O   UNL     1       5.311   4.366  19.477  0.00  0.00    +0.000 OA
BRANCH  28  30
ATOM     30  C   UNL     1       5.477   4.474  17.105  0.00  0.00    +0.000 A 
ATOM     31  C   UNL     1       4.777   4.124  15.938  0.00  0.00    +0.000 A 
ATOM     32  C   UNL     1       5.391   4.212  14.687  0.00  0.00    +0.000 A 
ATOM     33  C   UNL     1       6.711   4.646  14.592  0.00  0.00    +0.000 A 
ATOM     34  C   UNL     1       7.420   4.985  15.745  0.00  0.00    +0.000 A 
ATOM     35  C   UNL     1       6.808   4.899  17.002  0.00  0.00    +0.000 A 
ENDBRANCH  28  30
ENDBRANCH  27  28
ENDBRANCH   4  27
TORSDOF 10
ENDMDL
MODEL 5
REMARK VINA RESULT:      -7.4      2.590      4.808
REMARK  Name = 
REMARK  16 active torsions:
REMARK  status: ('A' for Active; 'I' for Inactive)
REMARK    1  A    between atoms: C_1  and  C_2
REMARK    2  A    between atoms: C_2  and  N_3
REMARK    3  A    between atoms: N_3  and  C_4
REMARK    4  A    between atoms: C_4  and  C_5
REMARK    5  A    between atoms: C_6  and  C_8
REMARK    6  A    between atoms: N_10  and  C_11
REMARK    7  A    between atoms: C_11  and  C_12
REMARK    8  A    between atoms: C_11  and  C_13
REMARK    9  A    between atoms: C_11  and  C_14
REMARK   10  A    between atoms: C_16  and  C_17
REMARK   11  A    between atoms: C_17  and  O_19
REMARK   12  A    between atoms: O_19  and  C_20
REMARK   13  A    between atoms: C_21  and  O_22
REMARK   14  A    between atoms: O_22  and  C_23
REMARK   15  A    between atoms: C_23  and  C_25
REMARK   16  A    between atoms: N_33  and  C_34
REMARK                            x       y       z     vdW  Elec       q    Type
REMARK                         _______ _______ _______ _____ _____    ______ ____
ROOT
ATOM      1  C   UNL     1       1.399   8.662  19.985  0.00  0.00    +0.000 A 
ATOM      2  N   UNL     1       1.354   7.491  20.541  0.00  0.00    +0.000 NA
ATOM      3  C   UNL     1       1.967   6.420  19.931  0.00  0.00    +0.000 A 
ATOM      4  C   UNL     1       2.535   6.476  18.719  0.00  0.00    +0.000 A 
ATOM      5  C   UNL     1       2.499   7.796  18.040  0.00  0.00    +0.000 A 
ATOM      6  O   UNL     1       2.852   7.872  16.861  0.00  0.00    +0.000 OA
ATOM      7  N   UNL     1       2.070   8.876  18.798  0.00  0.00    +0.000 N 
ATOM      8  C   UNL     1       2.309  10.186  18.215  0.00  0.00    +0.000 C 
ENDROOT
BRANCH   1   9
ATOM      9  C   UNL     1       0.627   9.824  20.753  0.00  0.00    +0.000 C 
ATOM     10  C   UNL     1       0.619   9.595  22.274  0.00  0.00    +0.000 C 
ATOM     11  C   UNL     1      -0.868   9.830  20.334  0.00  0.00    +0.000 C 
BRANCH   9  14
ATOM     12  C   UNL     1       0.936  12.277  21.186  0.00  0.00    +0.000 C 
ATOM     13  O   UNL     1       0.059  12.368  22.030  0.00  0.00    +0.000 OA
ATOM     14  N   UNL     1       1.225  11.137  20.458  0.00  0.00    +0.000 N 
ATOM     15  H   UNL     1       1.985  11.209  19.789  0.00  0.00    +0.000 HD
BRANCH  12  17
ATOM     16  N   UNL     1       1.313  14.439  19.931  0.00  0.00    +0.000 N 
ATOM     17  C   UNL     1       1.825  13.495  20.838  0.00  0.00    +0.000 C 
ATOM     18  O   UNL     1       2.917  13.576  21.393  0.00  0.00    +0.000 OA
BRANCH  16  20
ATOM     19  C   UNL     1       2.950  14.993  18.133  0.00  0.00    +0.000 C 
ATOM     20  C   UNL     1       2.242  15.441  19.402  0.00  0.00    +0.000 C 
ENDBRANCH  16  20
BRANCH  16  21
ATOM     21  C   UNL     1      -0.060  14.321  19.424  0.00  0.00    +0.000 C 
ATOM     22  C   UNL     1      -0.317  13.404  18.239  0.00  0.00    +0.000 C 
ENDBRANCH  16  21
ENDBRANCH  12  17
ENDBRANCH   9  14
ENDBRANCH   1   9
BRANCH   3  23
ATOM     23  C   UNL     1       2.022   5.114  20.674  0.00  0.00    +0.000 C 
ATOM     24  O   UNL     1       2.738   4.869  21.633  0.00  0.00    +0.000 OA
BRANCH  23  25
ATOM     25  O   UNL     1       1.122   4.249  20.129  0.00  0.00    +0.000 OA
ATOM     26  C   UNL     1       1.052   2.966  20.753  0.00  0.00    +0.000 C 
ENDBRANCH  23  25
ENDBRANCH   3  23
BRANCH   4  27
ATOM     27  O   UNL     1       3.178   5.407  18.077  0.00  0.00    +0.000 OA
BRANCH  27  28
ATOM     28  C   UNL     1       4.530   5.466  18.271  0.00  0.00    +0.000 C 
ATOM     29  O   UNL     1       5.099   5.709  19.329  0.00  0.00    +0.000 OA
BRANCH  28  30
ATOM     30  C   UNL     1       5.277   5.146  17.023  0.00  0.00    +0.000 A 
ATOM     31  C   UNL     1       6.628   5.526  16.960  0.00  0.00    +0.000 A 
ATOM     32  C   UNL     1       7.405   5.210  15.844  0.00  0.00    +0.000 A 
ATOM     33  C   UNL     1       6.837   4.514  14.779  0.00  0.00    +0.000 A 
ATOM     34  C   UNL     1       5.493   4.143  14.825  0.00  0.00    +0.000 A 
ATOM     35  C   UNL     1       4.711   4.457  15.942  0.00  0.00    +0.000 A 
ENDBRANCH  28  30
ENDBRANCH  27  28
ENDBRANCH   4  27
TORSDOF 10
ENDMDL
MODEL 6
REMARK VINA RESULT:      -7.3      2.732      4.981
REMARK  Name = 
REMARK  16 active torsions:
REMARK  status: ('A' for Active; 'I' for Inactive)
REMARK    1  A    between atoms: C_1  and  C_2
REMARK    2  A    between atoms: C_2  and  N_3
REMARK    3  A    between atoms: N_3  and  C_4
REMARK    4  A    between atoms: C_4  and  C_5
REMARK    5  A    between atoms: C_6  and  C_8
REMARK    6  A    between atoms: N_10  and  C_11
REMARK    7  A    between atoms: C_11  and  C_12
REMARK    8  A    between atoms: C_11  and  C_13
REMARK    9  A    between atoms: C_11  and  C_14
REMARK   10  A    between atoms: C_16  and  C_17
REMARK   11  A    between atoms: C_17  and  O_19
REMARK   12  A    between atoms: O_19  and  C_20
REMARK   13  A    between atoms: C_21  and  O_22
REMARK   14  A    between atoms: O_22  and  C_23
REMARK   15  A    between atoms: C_23  and  C_25
REMARK   16  A    between atoms: N_33  and  C_34
REMARK                            x       y       z     vdW  Elec       q    Type
REMARK                         _______ _______ _______ _____ _____    ______ ____
ROOT
ATOM      1  C   UNL     1       1.261   8.319  19.900  0.00  0.00    +0.000 A 
ATOM      2  N   UNL     1       1.154   7.169  20.493  0.00  0.00    +0.000 NA
ATOM      3  C   UNL     1       2.014   6.147  20.162  0.00  0.00    +0.000 A 
ATOM      4  C   UNL     1       2.914   6.219  19.172  0.00  0.00    +0.000 A 
ATOM      5  C   UNL     1       2.967   7.504  18.430  0.00  0.00    +0.000 A 
ATOM      6  O   UNL     1       3.651   7.575  17.406  0.00  0.00    +0.000 OA
ATOM      7  N   UNL     1       2.236   8.559  18.955  0.00  0.00    +0.000 N 
ATOM      8  C   UNL     1       2.523   9.866  18.385  0.00  0.00    +0.000 C 
ENDROOT
BRANCH   1   9
ATOM      9  C   UNL     1       0.194   9.420  20.329  0.00  0.00    +0.000 C 
ATOM     10  C   UNL     1       0.845  10.568  21.120  0.00  0.00    +0.000 C 
ATOM     11  C   UNL     1      -0.848   8.797  21.297  0.00  0.00    +0.000 C 
BRANCH   9  14
ATOM     12  C   UNL     1      -1.344  11.062  19.214  0.00  0.00    +0.000 C 
ATOM     13  O   UNL     1      -1.735  11.588  20.243  0.00  0.00    +0.000 OA
ATOM     14  N   UNL     1      -0.499   9.968  19.150  0.00  0.00    +0.000 N 
ATOM     15  H   UNL     1      -0.258   9.638  18.221  0.00  0.00    +0.000 HD
BRANCH  12  17
ATOM     16  N   UNL     1      -3.015  11.110  17.317  0.00  0.00    +0.000 N 
ATOM     17  C   UNL     1      -1.800  11.592  17.833  0.00  0.00    +0.000 C 
ATOM     18  O   UNL     1      -1.084  12.422  17.281  0.00  0.00    +0.000 OA
BRANCH  16  20
ATOM     19  C   UNL     1      -2.894  10.292  14.965  0.00  0.00    +0.000 C 
ATOM     20  C   UNL     1      -3.317  11.402  15.914  0.00  0.00    +0.000 C 
ENDBRANCH  16  20
BRANCH  16  21
ATOM     21  C   UNL     1      -3.866  10.219  18.117  0.00  0.00    +0.000 C 
ATOM     22  C   UNL     1      -5.328  10.590  18.307  0.00  0.00    +0.000 C 
ENDBRANCH  16  21
ENDBRANCH  12  17
ENDBRANCH   9  14
ENDBRANCH   1   9
BRANCH   3  23
ATOM     23  C   UNL     1       1.958   4.881  20.971  0.00  0.00    +0.000 C 
ATOM     24  O   UNL     1       2.727   4.573  21.869  0.00  0.00    +0.000 OA
BRANCH  23  25
ATOM     25  O   UNL     1       0.890   4.137  20.567  0.00  0.00    +0.000 OA
ATOM     26  C   UNL     1       1.170   2.762  20.299  0.00  0.00    +0.000 C 
ENDBRANCH  23  25
ENDBRANCH   3  23
BRANCH   4  27
ATOM     27  O   UNL     1       3.812   5.201  18.819  0.00  0.00    +0.000 OA
BRANCH  27  28
ATOM     28  C   UNL     1       3.488   4.666  17.604  0.00  0.00    +0.000 C 
ATOM     29  O   UNL     1       2.375   4.298  17.249  0.00  0.00    +0.000 OA
BRANCH  28  30
ATOM     30  C   UNL     1       4.668   4.616  16.696  0.00  0.00    +0.000 A 
ATOM     31  C   UNL     1       5.942   4.724  17.280  0.00  0.00    +0.000 A 
ATOM     32  C   UNL     1       7.094   4.630  16.498  0.00  0.00    +0.000 A 
ATOM     33  C   UNL     1       6.983   4.430  15.124  0.00  0.00    +0.000 A 
ATOM     34  C   UNL     1       5.725   4.334  14.531  0.00  0.00    +0.000 A 
ATOM     35  C   UNL     1       4.566   4.428  15.312  0.00  0.00    +0.000 A 
ENDBRANCH  28  30
ENDBRANCH  27  28
ENDBRANCH   4  27
TORSDOF 10
ENDMDL
MODEL 7
REMARK VINA RESULT:      -7.3      2.438      4.558
REMARK  Name = 
REMARK  16 active torsions:
REMARK  status: ('A' for Active; 'I' for Inactive)
REMARK    1  A    between atoms: C_1  and  C_2
REMARK    2  A    between atoms: C_2  and  N_3
REMARK    3  A    between atoms: N_3  and  C_4
REMARK    4  A    between atoms: C_4  and  C_5
REMARK    5  A    between atoms: C_6  and  C_8
REMARK    6  A    between atoms: N_10  and  C_11
REMARK    7  A    between atoms: C_11  and  C_12
REMARK    8  A    between atoms: C_11  and  C_13
REMARK    9  A    between atoms: C_11  and  C_14
REMARK   10  A    between atoms: C_16  and  C_17
REMARK   11  A    between atoms: C_17  and  O_19
REMARK   12  A    between atoms: O_19  and  C_20
REMARK   13  A    between atoms: C_21  and  O_22
REMARK   14  A    between atoms: O_22  and  C_23
REMARK   15  A    between atoms: C_23  and  C_25
REMARK   16  A    between atoms: N_33  and  C_34
REMARK                            x       y       z     vdW  Elec       q    Type
REMARK                         _______ _______ _______ _____ _____    ______ ____
ROOT
ATOM      1  C   UNL     1       1.347   7.725  20.239  0.00  0.00    +0.000 A 
ATOM      2  N   UNL     1       1.117   6.501  20.606  0.00  0.00    +0.000 NA
ATOM      3  C   UNL     1       1.686   5.460  19.910  0.00  0.00    +0.000 A 
ATOM      4  C   UNL     1       2.398   5.615  18.785  0.00  0.00    +0.000 A 
ATOM      5  C   UNL     1       2.578   7.010  18.312  0.00  0.00    +0.000 A 
ATOM      6  O   UNL     1       3.076   7.205  17.201  0.00  0.00    +0.000 OA
ATOM      7  N   UNL     1       2.173   8.019  19.174  0.00  0.00    +0.000 N 
ATOM      8  C   UNL     1       2.613   9.359  18.822  0.00  0.00    +0.000 C 
ENDROOT
BRANCH   1   9
ATOM      9  C   UNL     1       0.611   8.852  21.089  0.00  0.00    +0.000 C 
ATOM     10  C   UNL     1       1.501   9.384  22.225  0.00  0.00    +0.000 C 
ATOM     11  C   UNL     1      -0.635   8.252  21.794  0.00  0.00    +0.000 C 
BRANCH   9  14
ATOM     12  C   UNL     1      -0.430  11.106  20.715  0.00  0.00    +0.000 C 
ATOM     13  O   UNL     1      -0.846  11.244  21.854  0.00  0.00    +0.000 OA
ATOM     14  N   UNL     1       0.194   9.972  20.227  0.00  0.00    +0.000 N 
ATOM     15  H   UNL     1       0.489  10.001  19.256  0.00  0.00    +0.000 HD
BRANCH  12  17
ATOM     16  N   UNL     1       0.437  13.189  19.574  0.00  0.00    +0.000 N 
ATOM     17  C   UNL     1      -0.593  12.238  19.672  0.00  0.00    +0.000 C 
ATOM     18  O   UNL     1      -1.604  12.225  18.976  0.00  0.00    +0.000 OA
BRANCH  16  20
ATOM     19  C   UNL     1      -0.497  15.501  19.588  0.00  0.00    +0.000 C 
ATOM     20  C   UNL     1       0.171  14.395  18.786  0.00  0.00    +0.000 C 
ENDBRANCH  16  20
BRANCH  16  21
ATOM     21  C   UNL     1       1.668  13.041  20.360  0.00  0.00    +0.000 C 
ATOM     22  C   UNL     1       2.866  13.905  19.999  0.00  0.00    +0.000 C 
ENDBRANCH  16  21
ENDBRANCH  12  17
ENDBRANCH   9  14
ENDBRANCH   1   9
BRANCH   3  23
ATOM     23  C   UNL     1       1.519   4.067  20.451  0.00  0.00    +0.000 C 
ATOM     24  O   UNL     1       0.725   3.233  20.042  0.00  0.00    +0.000 OA
BRANCH  23  25
ATOM     25  O   UNL     1       2.416   3.866  21.456  0.00  0.00    +0.000 OA
ATOM     26  C   UNL     1       2.797   2.506  21.671  0.00  0.00    +0.000 C 
ENDBRANCH  23  25
ENDBRANCH   3  23
BRANCH   4  27
ATOM     27  O   UNL     1       3.002   4.576  18.061  0.00  0.00    +0.000 OA
BRANCH  27  28
ATOM     28  C   UNL     1       4.334   4.489  18.354  0.00  0.00    +0.000 C 
ATOM     29  O   UNL     1       4.822   4.351  19.470  0.00  0.00    +0.000 OA
BRANCH  28  30
ATOM     30  C   UNL     1       5.170   4.535  17.122  0.00  0.00    +0.000 A 
ATOM     31  C   UNL     1       6.545   4.778  17.279  0.00  0.00    +0.000 A 
ATOM     32  C   UNL     1       7.398   4.779  16.175  0.00  0.00    +0.000 A 
ATOM     33  C   UNL     1       6.884   4.542  14.902  0.00  0.00    +0.000 A 
ATOM     34  C   UNL     1       5.519   4.312  14.732  0.00  0.00    +0.000 A 
ATOM     35  C   UNL     1       4.659   4.309  15.837  0.00  0.00    +0.000 A 
ENDBRANCH  28  30
ENDBRANCH  27  28
ENDBRANCH   4  27
TORSDOF 10
ENDMDL
MODEL 8
REMARK VINA RESULT:      -7.3      2.490      4.806
REMARK  Name = 
REMARK  16 active torsions:
REMARK  status: ('A' for Active; 'I' for Inactive)
REMARK    1  A    between atoms: C_1  and  C_2
REMARK    2  A    between atoms: C_2  and  N_3
REMARK    3  A    between atoms: N_3  and  C_4
REMARK    4  A    between atoms: C_4  and  C_5
REMARK    5  A    between atoms: C_6  and  C_8
REMARK    6  A    between atoms: N_10  and  C_11
REMARK    7  A    between atoms: C_11  and  C_12
REMARK    8  A    between atoms: C_11  and  C_13
REMARK    9  A    between atoms: C_11  and  C_14
REMARK   10  A    between atoms: C_16  and  C_17
REMARK   11  A    between atoms: C_17  and  O_19
REMARK   12  A    between atoms: O_19  and  C_20
REMARK   13  A    between atoms: C_21  and  O_22
REMARK   14  A    between atoms: O_22  and  C_23
REMARK   15  A    between atoms: C_23  and  C_25
REMARK   16  A    between atoms: N_33  and  C_34
REMARK                            x       y       z     vdW  Elec       q    Type
REMARK                         _______ _______ _______ _____ _____    ______ ____
ROOT
ATOM      1  C   UNL     1       1.513   7.468  20.348  0.00  0.00    +0.000 A 
ATOM      2  N   UNL     1       1.342   6.308  20.903  0.00  0.00    +0.000 NA
ATOM      3  C   UNL     1       1.893   5.186  20.328  0.00  0.00    +0.000 A 
ATOM      4  C   UNL     1       2.525   5.186  19.147  0.00  0.00    +0.000 A 
ATOM      5  C   UNL     1       2.634   6.500  18.464  0.00  0.00    +0.000 A 
ATOM      6  O   UNL     1       3.052   6.539  17.305  0.00  0.00    +0.000 OA
ATOM      7  N   UNL     1       2.258   7.617  19.197  0.00  0.00    +0.000 N 
ATOM      8  C   UNL     1       2.636   8.899  18.624  0.00  0.00    +0.000 C 
ENDROOT
BRANCH   1   9
ATOM      9  C   UNL     1       0.803   8.694  21.073  0.00  0.00    +0.000 C 
ATOM     10  C   UNL     1       1.660   9.252  22.223  0.00  0.00    +0.000 C 
ATOM     11  C   UNL     1      -0.517   8.221  21.740  0.00  0.00    +0.000 C 
BRANCH   9  14
ATOM     12  C   UNL     1      -0.327  10.836  20.410  0.00  0.00    +0.000 C 
ATOM     13  O   UNL     1      -1.026  10.924  21.406  0.00  0.00    +0.000 OA
ATOM     14  N   UNL     1       0.508   9.773  20.114  0.00  0.00    +0.000 N 
ATOM     15  H   UNL     1       1.031   9.838  19.247  0.00  0.00    +0.000 HD
BRANCH  12  17
ATOM     16  N   UNL     1       0.288  13.172  19.662  0.00  0.00    +0.000 N 
ATOM     17  C   UNL     1      -0.334  11.954  19.339  0.00  0.00    +0.000 C 
ATOM     18  O   UNL     1      -0.863  11.700  18.261  0.00  0.00    +0.000 OA
BRANCH  16  20
ATOM     19  C   UNL     1       1.208  15.302  18.747  0.00  0.00    +0.000 C 
ATOM     20  C   UNL     1       0.057  14.307  18.766  0.00  0.00    +0.000 C 
ENDBRANCH  16  20
BRANCH  16  21
ATOM     21  C   UNL     1       1.010  13.329  20.931  0.00  0.00    +0.000 C 
ATOM     22  C   UNL     1       0.350  14.124  22.046  0.00  0.00    +0.000 C 
ENDBRANCH  16  21
ENDBRANCH  12  17
ENDBRANCH   9  14
ENDBRANCH   1   9
BRANCH   3  23
ATOM     23  C   UNL     1       1.801   3.885  21.076  0.00  0.00    +0.000 C 
ATOM     24  O   UNL     1       2.475   3.569  22.045  0.00  0.00    +0.000 OA
BRANCH  23  25
ATOM     25  O   UNL     1       0.821   3.117  20.523  0.00  0.00    +0.000 OA
ATOM     26  C   UNL     1       1.275   1.958  19.821  0.00  0.00    +0.000 C 
ENDBRANCH  23  25
ENDBRANCH   3  23
BRANCH   4  27
ATOM     27  O   UNL     1       3.108   4.063  18.541  0.00  0.00    +0.000 OA
BRANCH  27  28
ATOM     28  C   UNL     1       4.385   3.877  18.991  0.00  0.00    +0.000 C 
ATOM     29  O   UNL     1       4.727   3.159  19.923  0.00  0.00    +0.000 OA
BRANCH  28  30
ATOM     30  C   UNL     1       5.371   4.633  18.168  0.00  0.00    +0.000 A 
ATOM     31  C   UNL     1       6.201   5.552  18.832  0.00  0.00    +0.000 A 
ATOM     32  C   UNL     1       7.185   6.255  18.135  0.00  0.00    +0.000 A 
ATOM     33  C   UNL     1       7.346   6.048  16.767  0.00  0.00    +0.000 A 
ATOM     34  C   UNL     1       6.520   5.147  16.095  0.00  0.00    +0.000 A 
ATOM     35  C   UNL     1       5.532   4.440  16.790  0.00  0.00    +0.000 A 
ENDBRANCH  28  30
ENDBRANCH  27  28
ENDBRANCH   4  27
TORSDOF 10
ENDMDL
MODEL 9
REMARK VINA RESULT:      -7.2      2.663      8.684
REMARK  Name = 
REMARK  16 active torsions:
REMARK  status: ('A' for Active; 'I' for Inactive)
REMARK    1  A    between atoms: C_1  and  C_2
REMARK    2  A    between atoms: C_2  and  N_3
REMARK    3  A    between atoms: N_3  and  C_4
REMARK    4  A    between atoms: C_4  and  C_5
REMARK    5  A    between atoms: C_6  and  C_8
REMARK    6  A    between atoms: N_10  and  C_11
REMARK    7  A    between atoms: C_11  and  C_12
REMARK    8  A    between atoms: C_11  and  C_13
REMARK    9  A    between atoms: C_11  and  C_14
REMARK   10  A    between atoms: C_16  and  C_17
REMARK   11  A    between atoms: C_17  and  O_19
REMARK   12  A    between atoms: O_19  and  C_20
REMARK   13  A    between atoms: C_21  and  O_22
REMARK   14  A    between atoms: O_22  and  C_23
REMARK   15  A    between atoms: C_23  and  C_25
REMARK   16  A    between atoms: N_33  and  C_34
REMARK                            x       y       z     vdW  Elec       q    Type
REMARK                         _______ _______ _______ _____ _____    ______ ____
ROOT
ATOM      1  C   UNL     1       1.704   7.778  19.932  0.00  0.00    +0.000 A 
ATOM      2  N   UNL     1       1.232   8.163  21.077  0.00  0.00    +0.000 NA
ATOM      3  C   UNL     1       0.783   9.454  21.233  0.00  0.00    +0.000 A 
ATOM      4  C   UNL     1       0.894  10.402  20.291  0.00  0.00    +0.000 A 
ATOM      5  C   UNL     1       1.523   9.984  19.014  0.00  0.00    +0.000 A 
ATOM      6  O   UNL     1       1.806  10.844  18.177  0.00  0.00    +0.000 OA
ATOM      7  N   UNL     1       1.748   8.625  18.844  0.00  0.00    +0.000 N 
ATOM      8  C   UNL     1       2.095   8.211  17.494  0.00  0.00    +0.000 C 
ENDROOT
BRANCH   1   9
ATOM      9  C   UNL     1       2.232   6.277  19.869  0.00  0.00    +0.000 C 
ATOM     10  C   UNL     1       1.498   5.458  18.793  0.00  0.00    +0.000 C 
ATOM     11  C   UNL     1       1.927   5.555  21.210  0.00  0.00    +0.000 C 
BRANCH   9  14
ATOM     12  C   UNL     1       4.390   5.060  19.466  0.00  0.00    +0.000 C 
ATOM     13  O   UNL     1       3.950   3.944  19.689  0.00  0.00    +0.000 OA
ATOM     14  N   UNL     1       3.681   6.239  19.611  0.00  0.00    +0.000 N 
ATOM     15  H   UNL     1       4.179   7.095  19.388  0.00  0.00    +0.000 HD
BRANCH  12  17
ATOM     16  N   UNL     1       6.083   5.408  17.621  0.00  0.00    +0.000 N 
ATOM     17  C   UNL     1       5.853   5.253  18.999  0.00  0.00    +0.000 C 
ATOM     18  O   UNL     1       6.724   5.283  19.863  0.00  0.00    +0.000 OA
BRANCH  16  20
ATOM     19  C   UNL     1       7.597   4.769  15.745  0.00  0.00    +0.000 C 
ATOM     20  C   UNL     1       7.469   5.327  17.154  0.00  0.00    +0.000 C 
ENDBRANCH  16  20
BRANCH  16  21
ATOM     21  C   UNL     1       4.960   5.492  16.680  0.00  0.00    +0.000 C 
ATOM     22  C   UNL     1       4.837   6.730  15.807  0.00  0.00    +0.000 C 
ENDBRANCH  16  21
ENDBRANCH  12  17
ENDBRANCH   9  14
ENDBRANCH   1   9
BRANCH   3  23
ATOM     23  C   UNL     1       0.108   9.822  22.525  0.00  0.00    +0.000 C 
ATOM     24  O   UNL     1       0.596   9.716  23.640  0.00  0.00    +0.000 OA
BRANCH  23  25
ATOM     25  O   UNL     1      -1.131  10.323  22.258  0.00  0.00    +0.000 OA
ATOM     26  C   UNL     1      -1.625  11.267  23.209  0.00  0.00    +0.000 C 
ENDBRANCH  23  25
ENDBRANCH   3  23
BRANCH   4  27
ATOM     27  O   UNL     1       0.434  11.722  20.415  0.00  0.00    +0.000 OA
BRANCH  27  28
ATOM     28  C   UNL     1       1.476  12.582  20.619  0.00  0.00    +0.000 C 
ATOM     29  O   UNL     1       2.500  12.341  21.247  0.00  0.00    +0.000 OA
BRANCH  28  30
ATOM     30  C   UNL     1       1.253  13.885  19.932  0.00  0.00    +0.000 A 
ATOM     31  C   UNL     1       2.388  14.616  19.544  0.00  0.00    +0.000 A 
ATOM     32  C   UNL     1       2.256  15.818  18.847  0.00  0.00    +0.000 A 
ATOM     33  C   UNL     1       0.988  16.302  18.535  0.00  0.00    +0.000 A 
ATOM     34  C   UNL     1      -0.147  15.591  18.925  0.00  0.00    +0.000 A 
ATOM     35  C   UNL     1      -0.019  14.384  19.623  0.00  0.00    +0.000 A 
ENDBRANCH  28  30
ENDBRANCH  27  28
ENDBRANCH   4  27
TORSDOF 10
ENDMDL
