MODEL 1
REMARK VINA RESULT:      -6.8      0.000      0.000
REMARK  Name = 
REMARK  3 active torsions:
REMARK  status: ('A' for Active; 'I' for Inactive)
REMARK    1  A    between atoms: N_1  and  C_2
REMARK    2  A    between atoms: C_2  and  C_3
REMARK    3  A    between atoms: C_4  and  C_5
REMARK                            x       y       z     vdW  Elec       q    Type
REMARK                         _______ _______ _______ _____ _____    ______ ____
ROOT
ATOM      1  C   UNL     1       3.574   3.116  18.405  0.00  0.00    +0.000 A 
ATOM      2  C   UNL     1       4.265   4.317  18.045  0.00  0.00    +0.000 A 
ATOM      3  C   UNL     1       4.060   5.474  18.839  0.00  0.00    +0.000 A 
ATOM      4  C   UNL     1       3.220   5.499  19.966  0.00  0.00    +0.000 A 
ATOM      5  C   UNL     1       2.511   4.342  20.285  0.00  0.00    +0.000 A 
ATOM      6  N   UNL     1       1.613   4.111  21.299  0.00  0.00    +0.000 NA
ATOM      7  C   UNL     1       1.220   2.868  21.132  0.00  0.00    +0.000 A 
ATOM      8  N   UNL     1       1.834   2.289  20.060  0.00  0.00    +0.000 N 
ATOM      9  C   UNL     1       2.699   3.210  19.512  0.00  0.00    +0.000 A 
ATOM     10  H   UNL     1       1.672   1.360  19.696  0.00  0.00    +0.000 HD
ENDROOT
BRANCH   2  11
ATOM     11  C   UNL     1       5.211   4.408  16.890  0.00  0.00    +0.000 A 
ATOM     12  C   UNL     1       6.601   4.545  17.062  0.00  0.00    +0.000 A 
ATOM     13  C   UNL     1       7.460   4.776  15.982  0.00  0.00    +0.000 A 
ATOM     14  C   UNL     1       6.965   4.773  14.685  0.00  0.00    +0.000 A 
ATOM     15  C   UNL     1       5.613   4.531  14.471  0.00  0.00    +0.000 A 
ATOM     16  C   UNL     1       4.748   4.368  15.560  0.00  0.00    +0.000 A 
ENDBRANCH   2  11
BRANCH   1  17
ATOM     17  C   UNL     1       3.748   1.775  17.742  0.00  0.00    +0.000 C 
BRANCH  17  18
ATOM     18  N   UNL     1       4.306   0.795  18.673  0.00  0.00    +0.000 NA
ATOM     19  H   UNL     1       4.430   1.234  19.582  0.00  0.00    +0.000 HD
ATOM     20  H   UNL     1       5.241   0.542  18.361  0.00  0.00    +0.000 HD
ENDBRANCH  17  18
ENDBRANCH   1  17
TORSDOF 3
ENDMDL
MODEL 2
REMARK VINA RESULT:      -6.7      0.095      1.166
REMARK  Name = 
REMARK  3 active torsions:
REMARK  status: ('A' for Active; 'I' for Inactive)
REMARK    1  A    between atoms: N_1  and  C_2
REMARK    2  A    between atoms: C_2  and  C_3
REMARK    3  A    between atoms: C_4  and  C_5
REMARK                            x       y       z     vdW  Elec       q    Type
REMARK                         _______ _______ _______ _____ _____    ______ ____
ROOT
ATOM      1  C   UNL     1       3.562   3.156  18.404  0.00  0.00    +0.000 A 
ATOM      2  C   UNL     1       4.230   4.372  18.051  0.00  0.00    +0.000 A 
ATOM      3  C   UNL     1       4.029   5.511  18.872  0.00  0.00    +0.000 A 
ATOM      4  C   UNL     1       3.214   5.503  20.017  0.00  0.00    +0.000 A 
ATOM      5  C   UNL     1       2.526   4.331  20.330  0.00  0.00    +0.000 A 
ATOM      6  N   UNL     1       1.654   4.069  21.358  0.00  0.00    +0.000 NA
ATOM      7  C   UNL     1       1.273   2.824  21.176  0.00  0.00    +0.000 A 
ATOM      8  N   UNL     1       1.870   2.274  20.080  0.00  0.00    +0.000 N 
ATOM      9  C   UNL     1       2.711   3.217  19.531  0.00  0.00    +0.000 A 
ATOM     10  H   UNL     1       1.711   1.350  19.702  0.00  0.00    +0.000 HD
ENDROOT
BRANCH   2  11
ATOM     11  C   UNL     1       5.149   4.497  16.879  0.00  0.00    +0.000 A 
ATOM     12  C   UNL     1       4.687   4.469  15.550  0.00  0.00    +0.000 A 
ATOM     13  C   UNL     1       5.565   4.439  14.462  0.00  0.00    +0.000 A 
ATOM     14  C   UNL     1       6.934   4.541  14.668  0.00  0.00    +0.000 A 
ATOM     15  C   UNL     1       7.420   4.681  15.964  0.00  0.00    +0.000 A 
ATOM     16  C   UNL     1       6.540   4.643  17.052  0.00  0.00    +0.000 A 
ENDBRANCH   2  11
BRANCH   1  17
ATOM     17  C   UNL     1       3.738   1.830  17.711  0.00  0.00    +0.000 C 
BRANCH  17  18
ATOM     18  N   UNL     1       4.272   0.823  18.627  0.00  0.00    +0.000 NA
ATOM     19  H   UNL     1       3.881  -0.085  18.388  0.00  0.00    +0.000 HD
ATOM     20  H   UNL     1       3.939   1.025  19.567  0.00  0.00    +0.000 HD
ENDBRANCH  17  18
ENDBRANCH   1  17
TORSDOF 3
ENDMDL
MODEL 3
REMARK VINA RESULT:      -6.6      2.067      3.395
REMARK  Name = 
REMARK  3 active torsions:
REMARK  status: ('A' for Active; 'I' for Inactive)
REMARK    1  A    between atoms: N_1  and  C_2
REMARK    2  A    between atoms: C_2  and  C_3
REMARK    3  A    between atoms: C_4  and  C_5
REMARK                            x       y       z     vdW  Elec       q    Type
REMARK                         _______ _______ _______ _____ _____    ______ ____
ROOT
ATOM      1  C   UNL     1       3.216   4.978  18.970  0.00  0.00    +0.000 A 
ATOM      2  C   UNL     1       4.463   4.644  18.352  0.00  0.00    +0.000 A 
ATOM      3  C   UNL     1       4.606   3.354  17.780  0.00  0.00    +0.000 A 
ATOM      4  C   UNL     1       3.582   2.391  17.782  0.00  0.00    +0.000 A 
ATOM      5  C   UNL     1       2.385   2.701  18.428  0.00  0.00    +0.000 A 
ATOM      6  N   UNL     1       1.255   1.940  18.601  0.00  0.00    +0.000 NA
ATOM      7  C   UNL     1       0.437   2.696  19.300  0.00  0.00    +0.000 A 
ATOM      8  N   UNL     1       0.991   3.912  19.574  0.00  0.00    +0.000 N 
ATOM      9  C   UNL     1       2.240   3.955  18.995  0.00  0.00    +0.000 A 
ATOM     10  H   UNL     1       0.586   4.651  20.132  0.00  0.00    +0.000 HD
ENDROOT
BRANCH   2  11
ATOM     11  C   UNL     1       5.614   5.593  18.255  0.00  0.00    +0.000 A 
ATOM     12  C   UNL     1       5.639   6.660  17.338  0.00  0.00    +0.000 A 
ATOM     13  C   UNL     1       6.778   7.451  17.154  0.00  0.00    +0.000 A 
ATOM     14  C   UNL     1       7.894   7.263  17.958  0.00  0.00    +0.000 A 
ATOM     15  C   UNL     1       7.864   6.290  18.950  0.00  0.00    +0.000 A 
ATOM     16  C   UNL     1       6.747   5.457  19.084  0.00  0.00    +0.000 A 
ENDBRANCH   2  11
BRANCH   1  17
ATOM     17  C   UNL     1       2.853   6.326  19.535  0.00  0.00    +0.000 C 
BRANCH  17  18
ATOM     18  N   UNL     1       2.238   6.196  20.856  0.00  0.00    +0.000 NA
ATOM     19  H   UNL     1       1.723   5.321  20.897  0.00  0.00    +0.000 HD
ATOM     20  H   UNL     1       1.541   6.930  20.965  0.00  0.00    +0.000 HD
ENDBRANCH  17  18
ENDBRANCH   1  17
TORSDOF 3
ENDMDL
MODEL 4
REMARK VINA RESULT:      -6.5      1.115      2.690
REMARK  Name = 
REMARK  3 active torsions:
REMARK  status: ('A' for Active; 'I' for Inactive)
REMARK    1  A    between atoms: N_1  and  C_2
REMARK    2  A    between atoms: C_2  and  C_3
REMARK    3  A    between atoms: C_4  and  C_5
REMARK                            x       y       z     vdW  Elec       q    Type
REMARK                         _______ _______ _______ _____ _____    ______ ____
ROOT
ATOM      1  C   UNL     1       3.740   4.412  19.089  0.00  0.00    +0.000 A 
ATOM      2  C   UNL     1       4.181   3.631  17.974  0.00  0.00    +0.000 A 
ATOM      3  C   UNL     1       3.658   2.321  17.823  0.00  0.00    +0.000 A 
ATOM      4  C   UNL     1       2.724   1.755  18.708  0.00  0.00    +0.000 A 
ATOM      5  C   UNL     1       2.334   2.501  19.820  0.00  0.00    +0.000 A 
ATOM      6  N   UNL     1       1.474   2.176  20.841  0.00  0.00    +0.000 NA
ATOM      7  C   UNL     1       1.481   3.219  21.641  0.00  0.00    +0.000 A 
ATOM      8  N   UNL     1       2.303   4.202  21.172  0.00  0.00    +0.000 N 
ATOM      9  C   UNL     1       2.844   3.777  19.979  0.00  0.00    +0.000 A 
ATOM     10  H   UNL     1       2.517   5.081  21.624  0.00  0.00    +0.000 HD
ENDROOT
BRANCH   2  11
ATOM     11  C   UNL     1       5.143   4.132  16.945  0.00  0.00    +0.000 A 
ATOM     12  C   UNL     1       4.777   4.331  15.601  0.00  0.00    +0.000 A 
ATOM     13  C   UNL     1       5.718   4.659  14.619  0.00  0.00    +0.000 A 
ATOM     14  C   UNL     1       7.038   4.900  14.973  0.00  0.00    +0.000 A 
ATOM     15  C   UNL     1       7.413   4.821  16.309  0.00  0.00    +0.000 A 
ATOM     16  C   UNL     1       6.481   4.426  17.277  0.00  0.00    +0.000 A 
ENDBRANCH   2  11
BRANCH   1  17
ATOM     17  C   UNL     1       4.108   5.849  19.349  0.00  0.00    +0.000 C 
BRANCH  17  18
ATOM     18  N   UNL     1       2.932   6.636  19.720  0.00  0.00    +0.000 NA
ATOM     19  H   UNL     1       2.473   6.194  20.512  0.00  0.00    +0.000 HD
ATOM     20  H   UNL     1       2.259   6.599  18.958  0.00  0.00    +0.000 HD
ENDBRANCH  17  18
ENDBRANCH   1  17
TORSDOF 3
ENDMDL
MODEL 5
REMARK VINA RESULT:      -6.5      2.003      3.213
REMARK  Name = 
REMARK  3 active torsions:
REMARK  status: ('A' for Active; 'I' for Inactive)
REMARK    1  A    between atoms: N_1  and  C_2
REMARK    2  A    between atoms: C_2  and  C_3
REMARK    3  A    between atoms: C_4  and  C_5
REMARK                            x       y       z     vdW  Elec       q    Type
REMARK                         _______ _______ _______ _____ _____    ______ ____
ROOT
ATOM      1  C   UNL     1       3.285   4.938  18.920  0.00  0.00    +0.000 A 
ATOM      2  C   UNL     1       4.509   4.553  18.286  0.00  0.00    +0.000 A 
ATOM      3  C   UNL     1       4.597   3.252  17.728  0.00  0.00    +0.000 A 
ATOM      4  C   UNL     1       3.542   2.324  17.761  0.00  0.00    +0.000 A 
ATOM      5  C   UNL     1       2.368   2.684  18.423  0.00  0.00    +0.000 A 
ATOM      6  N   UNL     1       1.216   1.965  18.627  0.00  0.00    +0.000 NA
ATOM      7  C   UNL     1       0.436   2.757  19.329  0.00  0.00    +0.000 A 
ATOM      8  N   UNL     1       1.037   3.956  19.577  0.00  0.00    +0.000 N 
ATOM      9  C   UNL     1       2.276   3.949  18.976  0.00  0.00    +0.000 A 
ATOM     10  H   UNL     1       0.667   4.717  20.132  0.00  0.00    +0.000 HD
ENDROOT
BRANCH   2  11
ATOM     11  C   UNL     1       5.690   5.461  18.156  0.00  0.00    +0.000 A 
ATOM     12  C   UNL     1       6.835   5.332  18.964  0.00  0.00    +0.000 A 
ATOM     13  C   UNL     1       7.870   6.273  18.936  0.00  0.00    +0.000 A 
ATOM     14  C   UNL     1       7.837   7.317  18.022  0.00  0.00    +0.000 A 
ATOM     15  C   UNL     1       6.773   7.413  17.133  0.00  0.00    +0.000 A 
ATOM     16  C   UNL     1       5.709   6.507  17.211  0.00  0.00    +0.000 A 
ENDBRANCH   2  11
BRANCH   1  17
ATOM     17  C   UNL     1       2.979   6.305  19.473  0.00  0.00    +0.000 C 
BRANCH  17  18
ATOM     18  N   UNL     1       2.313   6.211  20.772  0.00  0.00    +0.000 NA
ATOM     19  H   UNL     1       1.385   5.817  20.642  0.00  0.00    +0.000 HD
ATOM     20  H   UNL     1       2.164   7.152  21.132  0.00  0.00    +0.000 HD
ENDBRANCH  17  18
ENDBRANCH   1  17
TORSDOF 3
ENDMDL
MODEL 6
REMARK VINA RESULT:      -6.5      1.917      2.216
REMARK  Name = 
REMARK  3 active torsions:
REMARK  status: ('A' for Active; 'I' for Inactive)
REMARK    1  A    between atoms: N_1  and  C_2
REMARK    2  A    between atoms: C_2  and  C_3
REMARK    3  A    between atoms: C_4  and  C_5
REMARK                            x       y       z     vdW  Elec       q    Type
REMARK                         _______ _______ _______ _____ _____    ______ ____
ROOT
ATOM      1  C   UNL     1       3.568   3.908  18.348  0.00  0.00    +0.000 A 
ATOM      2  C   UNL     1       4.081   5.112  18.927  0.00  0.00    +0.000 A 
ATOM      3  C   UNL     1       3.323   5.745  19.946  0.00  0.00    +0.000 A 
ATOM      4  C   UNL     1       2.098   5.245  20.420  0.00  0.00    +0.000 A 
ATOM      5  C   UNL     1       1.577   4.099  19.820  0.00  0.00    +0.000 A 
ATOM      6  N   UNL     1       0.402   3.431  20.068  0.00  0.00    +0.000 NA
ATOM      7  C   UNL     1       0.384   2.437  19.209  0.00  0.00    +0.000 A 
ATOM      8  N   UNL     1       1.501   2.433  18.426  0.00  0.00    +0.000 N 
ATOM      9  C   UNL     1       2.306   3.479  18.821  0.00  0.00    +0.000 A 
ATOM     10  H   UNL     1       1.705   1.802  17.663  0.00  0.00    +0.000 HD
ENDROOT
BRANCH   2  11
ATOM     11  C   UNL     1       5.387   5.723  18.533  0.00  0.00    +0.000 A 
ATOM     12  C   UNL     1       6.591   5.430  19.199  0.00  0.00    +0.000 A 
ATOM     13  C   UNL     1       7.778   6.115  18.919  0.00  0.00    +0.000 A 
ATOM     14  C   UNL     1       7.819   7.044  17.889  0.00  0.00    +0.000 A 
ATOM     15  C   UNL     1       6.674   7.280  17.136  0.00  0.00    +0.000 A 
ATOM     16  C   UNL     1       5.474   6.640  17.465  0.00  0.00    +0.000 A 
ENDBRANCH   2  11
BRANCH   1  17
ATOM     17  C   UNL     1       4.280   3.052  17.334  0.00  0.00    +0.000 C 
BRANCH  17  18
ATOM     18  N   UNL     1       4.187   1.634  17.682  0.00  0.00    +0.000 NA
ATOM     19  H   UNL     1       3.321   1.257  17.305  0.00  0.00    +0.000 HD
ATOM     20  H   UNL     1       4.106   1.550  18.693  0.00  0.00    +0.000 HD
ENDBRANCH  17  18
ENDBRANCH   1  17
TORSDOF 3
ENDMDL
MODEL 7
REMARK VINA RESULT:      -6.5      1.283      1.713
REMARK  Name = 
REMARK  3 active torsions:
REMARK  status: ('A' for Active; 'I' for Inactive)
REMARK    1  A    between atoms: N_1  and  C_2
REMARK    2  A    between atoms: C_2  and  C_3
REMARK    3  A    between atoms: C_4  and  C_5
REMARK                            x       y       z     vdW  Elec       q    Type
REMARK                         _______ _______ _______ _____ _____    ______ ____
ROOT
ATOM      1  C   UNL     1       3.973   3.552  19.105  0.00  0.00    +0.000 A 
ATOM      2  C   UNL     1       3.784   4.247  17.868  0.00  0.00    +0.000 A 
ATOM      3  C   UNL     1       2.484   4.719  17.554  0.00  0.00    +0.000 A 
ATOM      4  C   UNL     1       1.374   4.545  18.398  0.00  0.00    +0.000 A 
ATOM      5  C   UNL     1       1.550   3.824  19.579  0.00  0.00    +0.000 A 
ATOM      6  N   UNL     1       0.639   3.488  20.550  0.00  0.00    +0.000 NA
ATOM      7  C   UNL     1       1.318   2.786  21.430  0.00  0.00    +0.000 A 
ATOM      8  N   UNL     1       2.628   2.666  21.069  0.00  0.00    +0.000 N 
ATOM      9  C   UNL     1       2.814   3.354  19.891  0.00  0.00    +0.000 A 
ATOM     10  H   UNL     1       3.344   2.139  21.551  0.00  0.00    +0.000 HD
ENDROOT
BRANCH   2  11
ATOM     11  C   UNL     1       4.892   4.526  16.903  0.00  0.00    +0.000 A 
ATOM     12  C   UNL     1       5.064   3.788  15.717  0.00  0.00    +0.000 A 
ATOM     13  C   UNL     1       6.184   3.958  14.897  0.00  0.00    +0.000 A 
ATOM     14  C   UNL     1       7.115   4.946  15.184  0.00  0.00    +0.000 A 
ATOM     15  C   UNL     1       6.918   5.768  16.288  0.00  0.00    +0.000 A 
ATOM     16  C   UNL     1       5.831   5.549  17.143  0.00  0.00    +0.000 A 
ENDBRANCH   2  11
BRANCH   1  17
ATOM     17  C   UNL     1       5.294   3.074  19.647  0.00  0.00    +0.000 C 
BRANCH  17  18
ATOM     18  N   UNL     1       5.203   1.691  20.114  0.00  0.00    +0.000 NA
ATOM     19  H   UNL     1       4.233   1.476  20.328  0.00  0.00    +0.000 HD
ATOM     20  H   UNL     1       5.703   1.610  20.996  0.00  0.00    +0.000 HD
ENDBRANCH  17  18
ENDBRANCH   1  17
TORSDOF 3
ENDMDL
MODEL 8
REMARK VINA RESULT:      -6.5      2.116      5.419
REMARK  Name = 
REMARK  3 active torsions:
REMARK  status: ('A' for Active; 'I' for Inactive)
REMARK    1  A    between atoms: N_1  and  C_2
REMARK    2  A    between atoms: C_2  and  C_3
REMARK    3  A    between atoms: C_4  and  C_5
REMARK                            x       y       z     vdW  Elec       q    Type
REMARK                         _______ _______ _______ _____ _____    ______ ____
ROOT
ATOM      1  C   UNL     1       4.493   3.626  17.504  0.00  0.00    +0.000 A 
ATOM      2  C   UNL     1       4.191   4.373  18.686  0.00  0.00    +0.000 A 
ATOM      3  C   UNL     1       4.890   5.587  18.911  0.00  0.00    +0.000 A 
ATOM      4  C   UNL     1       5.858   6.096  18.027  0.00  0.00    +0.000 A 
ATOM      5  C   UNL     1       6.185   5.341  16.901  0.00  0.00    +0.000 A 
ATOM      6  N   UNL     1       7.104   5.589  15.911  0.00  0.00    +0.000 NA
ATOM      7  C   UNL     1       7.031   4.552  15.108  0.00  0.00    +0.000 A 
ATOM      8  N   UNL     1       6.099   3.652  15.536  0.00  0.00    +0.000 N 
ATOM      9  C   UNL     1       5.513   4.152  16.678  0.00  0.00    +0.000 A 
ATOM     10  H   UNL     1       5.885   2.755  15.121  0.00  0.00    +0.000 HD
ENDROOT
BRANCH   2  11
ATOM     11  C   UNL     1       3.159   3.955  19.684  0.00  0.00    +0.000 A 
ATOM     12  C   UNL     1       3.455   3.111  20.769  0.00  0.00    +0.000 A 
ATOM     13  C   UNL     1       2.457   2.608  21.610  0.00  0.00    +0.000 A 
ATOM     14  C   UNL     1       1.140   3.020  21.451  0.00  0.00    +0.000 A 
ATOM     15  C   UNL     1       0.828   3.940  20.457  0.00  0.00    +0.000 A 
ATOM     16  C   UNL     1       1.821   4.387  19.577  0.00  0.00    +0.000 A 
ENDBRANCH   2  11
BRANCH   1  17
ATOM     17  C   UNL     1       3.783   2.376  17.054  0.00  0.00    +0.000 C 
BRANCH  17  18
ATOM     18  N   UNL     1       4.137   1.235  17.898  0.00  0.00    +0.000 NA
ATOM     19  H   UNL     1       3.922   0.375  17.401  0.00  0.00    +0.000 HD
ATOM     20  H   UNL     1       3.536   1.236  18.719  0.00  0.00    +0.000 HD
ENDBRANCH  17  18
ENDBRANCH   1  17
TORSDOF 3
ENDMDL
MODEL 9
REMARK VINA RESULT:      -6.4      2.400      5.580
REMARK  Name = 
REMARK  3 active torsions:
REMARK  status: ('A' for Active; 'I' for Inactive)
REMARK    1  A    between atoms: N_1  and  C_2
REMARK    2  A    between atoms: C_2  and  C_3
REMARK    3  A    between atoms: C_4  and  C_5
REMARK                            x       y       z     vdW  Elec       q    Type
REMARK                         _______ _______ _______ _____ _____    ______ ____
ROOT
ATOM      1  C   UNL     1       4.640   3.885  17.317  0.00  0.00    +0.000 A 
ATOM      2  C   UNL     1       4.729   4.401  18.649  0.00  0.00    +0.000 A 
ATOM      3  C   UNL     1       5.756   5.335  18.941  0.00  0.00    +0.000 A 
ATOM      4  C   UNL     1       6.685   5.785  17.987  0.00  0.00    +0.000 A 
ATOM      5  C   UNL     1       6.627   5.243  16.703  0.00  0.00    +0.000 A 
ATOM      6  N   UNL     1       7.423   5.481  15.610  0.00  0.00    +0.000 NA
ATOM      7  C   UNL     1       6.955   4.695  14.667  0.00  0.00    +0.000 A 
ATOM      8  N   UNL     1       5.887   3.969  15.106  0.00  0.00    +0.000 N 
ATOM      9  C   UNL     1       5.633   4.326  16.411  0.00  0.00    +0.000 A 
ATOM     10  H   UNL     1       5.380   3.262  14.590  0.00  0.00    +0.000 HD
ENDROOT
BRANCH   2  11
ATOM     11  C   UNL     1       3.779   4.028  19.742  0.00  0.00    +0.000 A 
ATOM     12  C   UNL     1       3.822   2.777  20.385  0.00  0.00    +0.000 A 
ATOM     13  C   UNL     1       2.841   2.383  21.301  0.00  0.00    +0.000 A 
ATOM     14  C   UNL     1       1.842   3.270  21.678  0.00  0.00    +0.000 A 
ATOM     15  C   UNL     1       1.833   4.554  21.144  0.00  0.00    +0.000 A 
ATOM     16  C   UNL     1       2.778   4.919  20.178  0.00  0.00    +0.000 A 
ENDBRANCH   2  11
BRANCH   1  17
ATOM     17  C   UNL     1       3.560   2.970  16.804  0.00  0.00    +0.000 C 
BRANCH  17  18
ATOM     18  N   UNL     1       2.246   3.607  16.887  0.00  0.00    +0.000 NA
ATOM     19  H   UNL     1       1.552   2.905  17.130  0.00  0.00    +0.000 HD
ATOM     20  H   UNL     1       1.985   3.941  15.961  0.00  0.00    +0.000 HD
ENDBRANCH  17  18
ENDBRANCH   1  17
TORSDOF 3
ENDMDL
