MODEL 1
REMARK VINA RESULT:      -7.4      0.000      0.000
REMARK  Name = 
REMARK  5 active torsions:
REMARK  status: ('A' for Active; 'I' for Inactive)
REMARK    1  A    between atoms: C_1  and  C_2
REMARK    2  A    between atoms: C_4  and  C_5
REMARK    3  A    between atoms: C_10  and  C_12
REMARK    4  A    between atoms: C_12  and  C_13
REMARK    5  A    between atoms: C_13  and  C_14
REMARK                            x       y       z     vdW  Elec       q    Type
REMARK                         _______ _______ _______ _____ _____    ______ ____
ROOT
ATOM      1  C   UNL     1       7.189   5.772  16.860  0.00  0.00    +0.000 C 
ATOM      2  C   UNL     1       7.327   4.695  17.960  0.00  0.00    +0.000 C 
ATOM      3  C   UNL     1       5.999   4.304  18.607  0.00  0.00    +0.000 C 
ATOM      4  C   UNL     1       5.239   5.534  19.079  0.00  0.00    +0.000 C 
ATOM      5  N   UNL     1       5.013   6.431  17.950  0.00  0.00    +0.000 N 
ATOM      6  C   UNL     1       3.772   6.905  17.540  0.00  0.00    +0.000 C 
ATOM      7  O   UNL     1       3.646   7.649  16.565  0.00  0.00    +0.000 OA
ATOM      8  C   UNL     1       6.234   6.906  17.288  0.00  0.00    +0.000 C 
ENDROOT
BRANCH   1  12
ATOM      9  C   UNL     1       5.255   3.408  12.712  0.00  0.00    +0.000 C 
ATOM     10  C   UNL     1       6.015   4.163  13.733  0.00  0.00    +0.000 A 
ATOM     11  C   UNL     1       5.789   4.400  15.070  0.00  0.00    +0.000 A 
ATOM     12  C   UNL     1       6.890   5.177  15.507  0.00  0.00    +0.000 A 
ATOM     13  N   UNL     1       7.729   5.432  14.490  0.00  0.00    +0.000 NA
ATOM     14  N   UNL     1       7.183   4.805  13.440  0.00  0.00    +0.000 N 
ATOM     15  H   UNL     1       7.661   4.861  12.547  0.00  0.00    +0.000 HD
ENDBRANCH   1  12
BRANCH   6  16
ATOM     16  C   UNL     1       2.566   6.459  18.347  0.00  0.00    +0.000 C 
BRANCH  16  17
ATOM     17  C   UNL     1       2.002   5.128  17.855  0.00  0.00    +0.000 C 
BRANCH  17  18
ATOM     18  C   UNL     1       1.827   4.148  18.973  0.00  0.00    +0.000 A 
ATOM     19  C   UNL     1       1.904   4.419  20.328  0.00  0.00    +0.000 A 
ATOM     20  S   UNL     1       1.649   2.987  21.235  0.00  0.00    +0.000 S 
ATOM     21  C   UNL     1       1.461   2.119  19.771  0.00  0.00    +0.000 A 
ATOM     22  N   UNL     1       1.569   2.820  18.664  0.00  0.00    +0.000 NA
ENDBRANCH  17  18
ENDBRANCH  16  17
ENDBRANCH   6  16
TORSDOF 4
ENDMDL
MODEL 2
REMARK VINA RESULT:      -7.3      1.058      1.194
REMARK  Name = 
REMARK  5 active torsions:
REMARK  status: ('A' for Active; 'I' for Inactive)
REMARK    1  A    between atoms: C_1  and  C_2
REMARK    2  A    between atoms: C_4  and  C_5
REMARK    3  A    between atoms: C_10  and  C_12
REMARK    4  A    between atoms: C_12  and  C_13
REMARK    5  A    between atoms: C_13  and  C_14
REMARK                            x       y       z     vdW  Elec       q    Type
REMARK                         _______ _______ _______ _____ _____    ______ ____
ROOT
ATOM      1  C   UNL     1       7.250   5.822  16.820  0.00  0.00    +0.000 C 
ATOM      2  C   UNL     1       7.455   4.766  17.931  0.00  0.00    +0.000 C 
ATOM      3  C   UNL     1       6.162   4.356  18.635  0.00  0.00    +0.000 C 
ATOM      4  C   UNL     1       5.393   5.577  19.117  0.00  0.00    +0.000 C 
ATOM      5  N   UNL     1       5.103   6.450  17.984  0.00  0.00    +0.000 N 
ATOM      6  C   UNL     1       3.837   6.890  17.616  0.00  0.00    +0.000 C 
ATOM      7  O   UNL     1       3.657   7.615  16.635  0.00  0.00    +0.000 OA
ATOM      8  C   UNL     1       6.286   6.941  17.268  0.00  0.00    +0.000 C 
ENDROOT
BRANCH   1  12
ATOM      9  C   UNL     1       5.194   3.380  12.778  0.00  0.00    +0.000 C 
ATOM     10  C   UNL     1       5.985   4.151  13.761  0.00  0.00    +0.000 A 
ATOM     11  C   UNL     1       5.794   4.421  15.098  0.00  0.00    +0.000 A 
ATOM     12  C   UNL     1       6.912   5.198  15.489  0.00  0.00    +0.000 A 
ATOM     13  N   UNL     1       7.728   5.421  14.446  0.00  0.00    +0.000 NA
ATOM     14  N   UNL     1       7.151   4.776  13.425  0.00  0.00    +0.000 N 
ATOM     15  H   UNL     1       7.608   4.806  12.520  0.00  0.00    +0.000 HD
ENDBRANCH   1  12
BRANCH   6  16
ATOM     16  C   UNL     1       2.673   6.430  18.475  0.00  0.00    +0.000 C 
BRANCH  16  17
ATOM     17  C   UNL     1       1.907   5.271  17.840  0.00  0.00    +0.000 C 
BRANCH  17  18
ATOM     18  C   UNL     1       2.432   3.943  18.288  0.00  0.00    +0.000 A 
ATOM     19  C   UNL     1       2.930   2.936  17.478  0.00  0.00    +0.000 A 
ATOM     20  S   UNL     1       3.405   1.591  18.429  0.00  0.00    +0.000 S 
ATOM     21  C   UNL     1       2.913   2.438  19.834  0.00  0.00    +0.000 A 
ATOM     22  N   UNL     1       2.429   3.645  19.643  0.00  0.00    +0.000 NA
ENDBRANCH  17  18
ENDBRANCH  16  17
ENDBRANCH   6  16
TORSDOF 4
ENDMDL
MODEL 3
REMARK VINA RESULT:      -7.2      1.999      3.589
REMARK  Name = 
REMARK  5 active torsions:
REMARK  status: ('A' for Active; 'I' for Inactive)
REMARK    1  A    between atoms: C_1  and  C_2
REMARK    2  A    between atoms: C_4  and  C_5
REMARK    3  A    between atoms: C_10  and  C_12
REMARK    4  A    between atoms: C_12  and  C_13
REMARK    5  A    between atoms: C_13  and  C_14
REMARK                            x       y       z     vdW  Elec       q    Type
REMARK                         _______ _______ _______ _____ _____    ______ ____
ROOT
ATOM      1  C   UNL     1       7.152   4.997  17.771  0.00  0.00    +0.000 C 
ATOM      2  C   UNL     1       7.071   4.428  16.335  0.00  0.00    +0.000 C 
ATOM      3  C   UNL     1       5.684   4.545  15.705  0.00  0.00    +0.000 C 
ATOM      4  C   UNL     1       4.617   3.972  16.626  0.00  0.00    +0.000 C 
ATOM      5  N   UNL     1       4.655   4.668  17.909  0.00  0.00    +0.000 N 
ATOM      6  C   UNL     1       3.575   5.310  18.504  0.00  0.00    +0.000 C 
ATOM      7  O   UNL     1       3.678   5.895  19.584  0.00  0.00    +0.000 OA
ATOM      8  C   UNL     1       5.935   4.574  18.621  0.00  0.00    +0.000 C 
ENDROOT
BRANCH   1  12
ATOM      9  C   UNL     1       8.848   9.787  18.613  0.00  0.00    +0.000 C 
ATOM     10  C   UNL     1       8.214   8.527  18.166  0.00  0.00    +0.000 A 
ATOM     11  C   UNL     1       8.313   7.229  18.616  0.00  0.00    +0.000 A 
ATOM     12  C   UNL     1       7.444   6.477  17.788  0.00  0.00    +0.000 A 
ATOM     13  N   UNL     1       6.868   7.259  16.862  0.00  0.00    +0.000 NA
ATOM     14  N   UNL     1       7.343   8.485  17.117  0.00  0.00    +0.000 N 
ATOM     15  H   UNL     1       7.031   9.251  16.529  0.00  0.00    +0.000 HD
ENDBRANCH   1  12
BRANCH   6  16
ATOM     16  C   UNL     1       2.254   5.266  17.758  0.00  0.00    +0.000 C 
BRANCH  16  17
ATOM     17  C   UNL     1       1.503   3.957  17.989  0.00  0.00    +0.000 C 
BRANCH  17  18
ATOM     18  C   UNL     1       1.739   3.412  19.364  0.00  0.00    +0.000 A 
ATOM     19  C   UNL     1       2.668   2.451  19.723  0.00  0.00    +0.000 A 
ATOM     20  S   UNL     1       2.572   2.132  21.405  0.00  0.00    +0.000 S 
ATOM     21  C   UNL     1       1.310   3.283  21.529  0.00  0.00    +0.000 A 
ATOM     22  N   UNL     1       0.964   3.886  20.412  0.00  0.00    +0.000 NA
ENDBRANCH  17  18
ENDBRANCH  16  17
ENDBRANCH   6  16
TORSDOF 4
ENDMDL
MODEL 4
REMARK VINA RESULT:      -7.1      2.098      3.509
REMARK  Name = 
REMARK  5 active torsions:
REMARK  status: ('A' for Active; 'I' for Inactive)
REMARK    1  A    between atoms: C_1  and  C_2
REMARK    2  A    between atoms: C_4  and  C_5
REMARK    3  A    between atoms: C_10  and  C_12
REMARK    4  A    between atoms: C_12  and  C_13
REMARK    5  A    between atoms: C_13  and  C_14
REMARK                            x       y       z     vdW  Elec       q    Type
REMARK                         _______ _______ _______ _____ _____    ______ ____
ROOT
ATOM      1  C   UNL     1       7.109   4.740  17.662  0.00  0.00    +0.000 C 
ATOM      2  C   UNL     1       6.948   4.482  16.147  0.00  0.00    +0.000 C 
ATOM      3  C   UNL     1       5.597   4.927  15.588  0.00  0.00    +0.000 C 
ATOM      4  C   UNL     1       4.452   4.353  16.408  0.00  0.00    +0.000 C 
ATOM      5  N   UNL     1       4.592   4.770  17.800  0.00  0.00    +0.000 N 
ATOM      6  C   UNL     1       3.620   5.439  18.536  0.00  0.00    +0.000 C 
ATOM      7  O   UNL     1       3.807   5.780  19.706  0.00  0.00    +0.000 OA
ATOM      8  C   UNL     1       5.839   4.347  18.446  0.00  0.00    +0.000 C 
ENDROOT
BRANCH   1  12
ATOM      9  C   UNL     1       8.317   9.746  17.785  0.00  0.00    +0.000 C 
ATOM     10  C   UNL     1       8.109   8.296  17.989  0.00  0.00    +0.000 A 
ATOM     11  C   UNL     1       7.457   7.339  17.244  0.00  0.00    +0.000 A 
ATOM     12  C   UNL     1       7.625   6.126  17.958  0.00  0.00    +0.000 A 
ATOM     13  N   UNL     1       8.313   6.330  19.093  0.00  0.00    +0.000 NA
ATOM     14  N   UNL     1       8.596   7.639  19.082  0.00  0.00    +0.000 N 
ATOM     15  H   UNL     1       9.126   8.021  19.859  0.00  0.00    +0.000 HD
ENDBRANCH   1  12
BRANCH   6  16
ATOM     16  C   UNL     1       2.310   5.741  17.831  0.00  0.00    +0.000 C 
BRANCH  16  17
ATOM     17  C   UNL     1       1.393   4.522  17.768  0.00  0.00    +0.000 C 
BRANCH  17  18
ATOM     18  C   UNL     1       1.493   3.682  19.003  0.00  0.00    +0.000 A 
ATOM     19  C   UNL     1       0.986   3.990  20.254  0.00  0.00    +0.000 A 
ATOM     20  S   UNL     1       1.351   2.738  21.367  0.00  0.00    +0.000 S 
ATOM     21  C   UNL     1       2.153   1.889  20.115  0.00  0.00    +0.000 A 
ATOM     22  N   UNL     1       2.161   2.469  18.934  0.00  0.00    +0.000 NA
ENDBRANCH  17  18
ENDBRANCH  16  17
ENDBRANCH   6  16
TORSDOF 4
ENDMDL
MODEL 5
REMARK VINA RESULT:      -6.7      2.039      3.564
REMARK  Name = 
REMARK  5 active torsions:
REMARK  status: ('A' for Active; 'I' for Inactive)
REMARK    1  A    between atoms: C_1  and  C_2
REMARK    2  A    between atoms: C_4  and  C_5
REMARK    3  A    between atoms: C_10  and  C_12
REMARK    4  A    between atoms: C_12  and  C_13
REMARK    5  A    between atoms: C_13  and  C_14
REMARK                            x       y       z     vdW  Elec       q    Type
REMARK                         _______ _______ _______ _____ _____    ______ ____
ROOT
ATOM      1  C   UNL     1       7.430   5.454  18.586  0.00  0.00    +0.000 C 
ATOM      2  C   UNL     1       7.711   4.524  17.382  0.00  0.00    +0.000 C 
ATOM      3  C   UNL     1       6.508   4.334  16.459  0.00  0.00    +0.000 C 
ATOM      4  C   UNL     1       5.275   3.920  17.249  0.00  0.00    +0.000 C 
ATOM      5  N   UNL     1       4.985   4.928  18.265  0.00  0.00    +0.000 N 
ATOM      6  C   UNL     1       3.773   5.593  18.410  0.00  0.00    +0.000 C 
ATOM      7  O   UNL     1       3.597   6.448  19.281  0.00  0.00    +0.000 OA
ATOM      8  C   UNL     1       6.064   5.150  19.235  0.00  0.00    +0.000 C 
ENDROOT
BRANCH   1  12
ATOM      9  C   UNL     1       8.943  10.366  18.246  0.00  0.00    +0.000 C 
ATOM     10  C   UNL     1       8.349   9.016  18.125  0.00  0.00    +0.000 A 
ATOM     11  C   UNL     1       8.522   7.859  18.851  0.00  0.00    +0.000 A 
ATOM     12  C   UNL     1       7.658   6.908  18.255  0.00  0.00    +0.000 A 
ATOM     13  N   UNL     1       7.014   7.439  17.204  0.00  0.00    +0.000 NA
ATOM     14  N   UNL     1       7.443   8.707  17.153  0.00  0.00    +0.000 N 
ATOM     15  H   UNL     1       7.076   9.308  16.423  0.00  0.00    +0.000 HD
ENDBRANCH   1  12
BRANCH   6  16
ATOM     16  C   UNL     1       2.667   5.225  17.437  0.00  0.00    +0.000 C 
BRANCH  16  17
ATOM     17  C   UNL     1       1.345   4.940  18.147  0.00  0.00    +0.000 C 
BRANCH  17  18
ATOM     18  C   UNL     1       1.504   3.933  19.243  0.00  0.00    +0.000 A 
ATOM     19  C   UNL     1       1.159   4.099  20.573  0.00  0.00    +0.000 A 
ATOM     20  S   UNL     1       1.534   2.683  21.464  0.00  0.00    +0.000 S 
ATOM     21  C   UNL     1       2.127   1.963  20.028  0.00  0.00    +0.000 A 
ATOM     22  N   UNL     1       2.059   2.698  18.940  0.00  0.00    +0.000 NA
ENDBRANCH  17  18
ENDBRANCH  16  17
ENDBRANCH   6  16
TORSDOF 4
ENDMDL
MODEL 6
REMARK VINA RESULT:      -6.6      1.171      1.326
REMARK  Name = 
REMARK  5 active torsions:
REMARK  status: ('A' for Active; 'I' for Inactive)
REMARK    1  A    between atoms: C_1  and  C_2
REMARK    2  A    between atoms: C_4  and  C_5
REMARK    3  A    between atoms: C_10  and  C_12
REMARK    4  A    between atoms: C_12  and  C_13
REMARK    5  A    between atoms: C_13  and  C_14
REMARK                            x       y       z     vdW  Elec       q    Type
REMARK                         _______ _______ _______ _____ _____    ______ ____
ROOT
ATOM      1  C   UNL     1       7.102   5.700  16.594  0.00  0.00    +0.000 C 
ATOM      2  C   UNL     1       7.326   4.705  17.755  0.00  0.00    +0.000 C 
ATOM      3  C   UNL     1       6.069   4.430  18.579  0.00  0.00    +0.000 C 
ATOM      4  C   UNL     1       5.419   5.728  19.033  0.00  0.00    +0.000 C 
ATOM      5  N   UNL     1       5.098   6.547  17.868  0.00  0.00    +0.000 N 
ATOM      6  C   UNL     1       3.837   7.048  17.566  0.00  0.00    +0.000 C 
ATOM      7  O   UNL     1       3.627   7.721  16.554  0.00  0.00    +0.000 OA
ATOM      8  C   UNL     1       6.250   6.909  17.034  0.00  0.00    +0.000 C 
ENDROOT
BRANCH   1  12
ATOM      9  C   UNL     1       6.501   3.418  12.015  0.00  0.00    +0.000 C 
ATOM     10  C   UNL     1       6.404   4.021  13.362  0.00  0.00    +0.000 A 
ATOM     11  C   UNL     1       7.332   4.636  14.172  0.00  0.00    +0.000 A 
ATOM     12  C   UNL     1       6.621   5.019  15.336  0.00  0.00    +0.000 A 
ATOM     13  N   UNL     1       5.338   4.634  15.261  0.00  0.00    +0.000 NA
ATOM     14  N   UNL     1       5.234   4.044  14.064  0.00  0.00    +0.000 N 
ATOM     15  H   UNL     1       4.330   3.674  13.789  0.00  0.00    +0.000 HD
ENDBRANCH   1  12
BRANCH   6  16
ATOM     16  C   UNL     1       2.718   6.725  18.539  0.00  0.00    +0.000 C 
BRANCH  16  17
ATOM     17  C   UNL     1       1.979   5.442  18.164  0.00  0.00    +0.000 C 
BRANCH  17  18
ATOM     18  C   UNL     1       1.914   4.479  19.309  0.00  0.00    +0.000 A 
ATOM     19  C   UNL     1       1.588   3.136  19.242  0.00  0.00    +0.000 A 
ATOM     20  S   UNL     1       1.632   2.435  20.806  0.00  0.00    +0.000 S 
ATOM     21  C   UNL     1       2.073   3.958  21.452  0.00  0.00    +0.000 A 
ATOM     22  N   UNL     1       2.194   4.942  20.587  0.00  0.00    +0.000 NA
ENDBRANCH  17  18
ENDBRANCH  16  17
ENDBRANCH   6  16
TORSDOF 4
ENDMDL
MODEL 7
REMARK VINA RESULT:      -6.6      1.785      2.311
REMARK  Name = 
REMARK  5 active torsions:
REMARK  status: ('A' for Active; 'I' for Inactive)
REMARK    1  A    between atoms: C_1  and  C_2
REMARK    2  A    between atoms: C_4  and  C_5
REMARK    3  A    between atoms: C_10  and  C_12
REMARK    4  A    between atoms: C_12  and  C_13
REMARK    5  A    between atoms: C_13  and  C_14
REMARK                            x       y       z     vdW  Elec       q    Type
REMARK                         _______ _______ _______ _____ _____    ______ ____
ROOT
ATOM      1  C   UNL     1       5.995   5.948  16.305  0.00  0.00    +0.000 C 
ATOM      2  C   UNL     1       7.245   6.062  17.207  0.00  0.00    +0.000 C 
ATOM      3  C   UNL     1       7.442   4.867  18.139  0.00  0.00    +0.000 C 
ATOM      4  C   UNL     1       6.172   4.572  18.924  0.00  0.00    +0.000 C 
ATOM      5  N   UNL     1       5.072   4.323  17.998  0.00  0.00    +0.000 N 
ATOM      6  C   UNL     1       4.279   3.181  17.986  0.00  0.00    +0.000 C 
ATOM      7  O   UNL     1       3.373   3.023  17.165  0.00  0.00    +0.000 OA
ATOM      8  C   UNL     1       4.769   5.435  17.090  0.00  0.00    +0.000 C 
ENDROOT
BRANCH   1  12
ATOM      9  C   UNL     1       5.969   2.988  12.089  0.00  0.00    +0.000 C 
ATOM     10  C   UNL     1       6.221   3.926  13.204  0.00  0.00    +0.000 A 
ATOM     11  C   UNL     1       5.494   4.246  14.329  0.00  0.00    +0.000 A 
ATOM     12  C   UNL     1       6.276   5.201  15.024  0.00  0.00    +0.000 A 
ATOM     13  N   UNL     1       7.404   5.477  14.351  0.00  0.00    +0.000 NA
ATOM     14  N   UNL     1       7.348   4.693  13.267  0.00  0.00    +0.000 N 
ATOM     15  H   UNL     1       8.116   4.735  12.605  0.00  0.00    +0.000 HD
ENDBRANCH   1  12
BRANCH   6  16
ATOM     16  C   UNL     1       4.582   2.124  19.032  0.00  0.00    +0.000 C 
BRANCH  16  17
ATOM     17  C   UNL     1       4.122   2.542  20.427  0.00  0.00    +0.000 C 
BRANCH  17  18
ATOM     18  C   UNL     1       2.827   3.293  20.387  0.00  0.00    +0.000 A 
ATOM     19  C   UNL     1       2.654   4.651  20.595  0.00  0.00    +0.000 A 
ATOM     20  S   UNL     1       0.995   5.064  20.462  0.00  0.00    +0.000 S 
ATOM     21  C   UNL     1       0.634   3.420  20.146  0.00  0.00    +0.000 A 
ATOM     22  N   UNL     1       1.658   2.595  20.128  0.00  0.00    +0.000 NA
ENDBRANCH  17  18
ENDBRANCH  16  17
ENDBRANCH   6  16
TORSDOF 4
ENDMDL
MODEL 8
REMARK VINA RESULT:      -6.6      1.819      2.371
REMARK  Name = 
REMARK  5 active torsions:
REMARK  status: ('A' for Active; 'I' for Inactive)
REMARK    1  A    between atoms: C_1  and  C_2
REMARK    2  A    between atoms: C_4  and  C_5
REMARK    3  A    between atoms: C_10  and  C_12
REMARK    4  A    between atoms: C_12  and  C_13
REMARK    5  A    between atoms: C_13  and  C_14
REMARK                            x       y       z     vdW  Elec       q    Type
REMARK                         _______ _______ _______ _____ _____    ______ ____
ROOT
ATOM      1  C   UNL     1       5.803   5.784  16.279  0.00  0.00    +0.000 C 
ATOM      2  C   UNL     1       6.869   5.655  17.391  0.00  0.00    +0.000 C 
ATOM      3  C   UNL     1       6.762   4.362  18.198  0.00  0.00    +0.000 C 
ATOM      4  C   UNL     1       5.345   4.155  18.713  0.00  0.00    +0.000 C 
ATOM      5  N   UNL     1       4.416   4.134  17.587  0.00  0.00    +0.000 N 
ATOM      6  C   UNL     1       3.522   3.106  17.307  0.00  0.00    +0.000 C 
ATOM      7  O   UNL     1       2.773   3.141  16.328  0.00  0.00    +0.000 OA
ATOM      8  C   UNL     1       4.406   5.356  16.775  0.00  0.00    +0.000 C 
ENDROOT
BRANCH   1  12
ATOM      9  C   UNL     1       6.309   3.094  11.915  0.00  0.00    +0.000 C 
ATOM     10  C   UNL     1       6.411   3.971  13.101  0.00  0.00    +0.000 A 
ATOM     11  C   UNL     1       5.571   4.186  14.171  0.00  0.00    +0.000 A 
ATOM     12  C   UNL     1       6.236   5.132  14.989  0.00  0.00    +0.000 A 
ATOM     13  N   UNL     1       7.404   5.503  14.439  0.00  0.00    +0.000 NA
ATOM     14  N   UNL     1       7.486   4.786  13.311  0.00  0.00    +0.000 N 
ATOM     15  H   UNL     1       8.306   4.905  12.726  0.00  0.00    +0.000 HD
ENDBRANCH   1  12
BRANCH   6  16
ATOM     16  C   UNL     1       3.513   1.925  18.260  0.00  0.00    +0.000 C 
BRANCH  16  17
ATOM     17  C   UNL     1       2.233   1.864  19.091  0.00  0.00    +0.000 C 
BRANCH  17  18
ATOM     18  C   UNL     1       2.037   3.103  19.908  0.00  0.00    +0.000 A 
ATOM     19  C   UNL     1       1.326   4.232  19.539  0.00  0.00    +0.000 A 
ATOM     20  S   UNL     1       1.383   5.404  20.789  0.00  0.00    +0.000 S 
ATOM     21  C   UNL     1       2.345   4.334  21.718  0.00  0.00    +0.000 A 
ATOM     22  N   UNL     1       2.618   3.172  21.166  0.00  0.00    +0.000 NA
ENDBRANCH  17  18
ENDBRANCH  16  17
ENDBRANCH   6  16
TORSDOF 4
ENDMDL
MODEL 9
REMARK VINA RESULT:      -6.5      3.135      4.092
REMARK  Name = 
REMARK  5 active torsions:
REMARK  status: ('A' for Active; 'I' for Inactive)
REMARK    1  A    between atoms: C_1  and  C_2
REMARK    2  A    between atoms: C_4  and  C_5
REMARK    3  A    between atoms: C_10  and  C_12
REMARK    4  A    between atoms: C_12  and  C_13
REMARK    5  A    between atoms: C_13  and  C_14
REMARK                            x       y       z     vdW  Elec       q    Type
REMARK                         _______ _______ _______ _____ _____    ______ ____
ROOT
ATOM      1  C   UNL     1       5.032   4.111  17.721  0.00  0.00    +0.000 C 
ATOM      2  C   UNL     1       3.818   3.155  17.727  0.00  0.00    +0.000 C 
ATOM      3  C   UNL     1       2.482   3.855  17.477  0.00  0.00    +0.000 C 
ATOM      4  C   UNL     1       2.304   5.040  18.415  0.00  0.00    +0.000 C 
ATOM      5  N   UNL     1       3.412   5.974  18.237  0.00  0.00    +0.000 N 
ATOM      6  C   UNL     1       3.280   7.323  17.929  0.00  0.00    +0.000 C 
ATOM      7  O   UNL     1       4.259   8.056  17.776  0.00  0.00    +0.000 OA
ATOM      8  C   UNL     1       4.740   5.409  18.504  0.00  0.00    +0.000 C 
ENDROOT
BRANCH   1  12
ATOM      9  C   UNL     1       6.567   3.844  12.811  0.00  0.00    +0.000 C 
ATOM     10  C   UNL     1       6.219   4.182  14.209  0.00  0.00    +0.000 A 
ATOM     11  C   UNL     1       5.641   3.450  15.223  0.00  0.00    +0.000 A 
ATOM     12  C   UNL     1       5.588   4.326  16.335  0.00  0.00    +0.000 A 
ATOM     13  N   UNL     1       6.075   5.536  16.016  0.00  0.00    +0.000 NA
ATOM     14  N   UNL     1       6.453   5.418  14.737  0.00  0.00    +0.000 N 
ATOM     15  H   UNL     1       6.862   6.227  14.282  0.00  0.00    +0.000 HD
ENDBRANCH   1  12
BRANCH   6  16
ATOM     16  C   UNL     1       1.868   7.859  17.781  0.00  0.00    +0.000 C 
BRANCH  16  17
ATOM     17  C   UNL     1       1.819   9.384  17.844  0.00  0.00    +0.000 C 
BRANCH  17  18
ATOM     18  C   UNL     1       0.948   9.870  18.961  0.00  0.00    +0.000 A 
ATOM     19  C   UNL     1       0.090  10.956  18.926  0.00  0.00    +0.000 A 
ATOM     20  S   UNL     1      -0.694  11.140  20.440  0.00  0.00    +0.000 S 
ATOM     21  C   UNL     1       0.162   9.777  21.025  0.00  0.00    +0.000 A 
ATOM     22  N   UNL     1       0.979   9.197  20.174  0.00  0.00    +0.000 NA
ENDBRANCH  17  18
ENDBRANCH  16  17
ENDBRANCH   6  16
TORSDOF 4
ENDMDL
