MODEL 1
REMARK VINA RESULT:      -7.2      0.000      0.000
REMARK  Name = 
REMARK  4 active torsions:
REMARK  status: ('A' for Active; 'I' for Inactive)
REMARK    1  A    between atoms: C_1  and  C_2
REMARK    2  A    between atoms: C_2  and  N_3
REMARK    3  A    between atoms: C_7  and  O_8
REMARK    4  A    between atoms: C_16  and  O_17
REMARK                            x       y       z     vdW  Elec       q    Type
REMARK                         _______ _______ _______ _____ _____    ______ ____
ROOT
ATOM      1  N   UNL     1       2.660   5.899  19.667  0.00  0.00    +0.000 N 
ATOM      2  C   UNL     1       3.482   5.425  18.653  0.00  0.00    +0.000 A 
ATOM      3  C   UNL     1       4.125   4.185  18.480  0.00  0.00    +0.000 A 
ATOM      4  C   UNL     1       4.941   4.006  17.357  0.00  0.00    +0.000 A 
ATOM      5  C   UNL     1       5.102   5.036  16.441  0.00  0.00    +0.000 A 
ATOM      6  C   UNL     1       4.458   6.260  16.608  0.00  0.00    +0.000 A 
ATOM      7  C   UNL     1       3.631   6.459  17.734  0.00  0.00    +0.000 A 
ATOM      8  C   UNL     1       2.850   7.560  18.200  0.00  0.00    +0.000 A 
ATOM      9  C   UNL     1       2.652   8.852  17.675  0.00  0.00    +0.000 A 
ATOM     10  C   UNL     1       1.833   9.762  18.341  0.00  0.00    +0.000 A 
ATOM     11  C   UNL     1       1.174   9.410  19.517  0.00  0.00    +0.000 A 
ATOM     12  C   UNL     1       0.358  10.354  20.162  0.00  0.00    +0.000 A 
ATOM     13  C   UNL     1      -0.318  10.022  21.330  0.00  0.00    +0.000 A 
ATOM     14  C   UNL     1      -0.219   8.752  21.866  0.00  0.00    +0.000 A 
ATOM     15  C   UNL     1       0.583   7.797  21.237  0.00  0.00    +0.000 A 
ATOM     16  C   UNL     1       1.321   8.104  20.068  0.00  0.00    +0.000 A 
ATOM     17  C   UNL     1       2.208   7.188  19.393  0.00  0.00    +0.000 A 
ENDROOT
BRANCH   1  19
ATOM     18  C   UNL     1       1.308   4.113  20.722  0.00  0.00    +0.000 C 
ATOM     19  C   UNL     1       2.424   5.131  20.881  0.00  0.00    +0.000 C 
ENDBRANCH   1  19
BRANCH   5  20
ATOM     20  O   UNL     1       5.899   4.887  15.342  0.00  0.00    +0.000 OA
ATOM     21  H   UNL     1       6.278   3.993  15.353  0.00  0.00    +0.000 HD
ENDBRANCH   5  20
BRANCH  13  22
ATOM     22  O   UNL     1      -1.105  10.924  21.982  0.00  0.00    +0.000 OA
ATOM     23  H   UNL     1      -1.422  11.580  21.341  0.00  0.00    +0.000 HD
ENDBRANCH  13  22
TORSDOF 3
ENDMDL
MODEL 2
REMARK VINA RESULT:      -6.9      1.820      6.523
REMARK  Name = 
REMARK  4 active torsions:
REMARK  status: ('A' for Active; 'I' for Inactive)
REMARK    1  A    between atoms: C_1  and  C_2
REMARK    2  A    between atoms: C_2  and  N_3
REMARK    3  A    between atoms: C_7  and  O_8
REMARK    4  A    between atoms: C_16  and  O_17
REMARK                            x       y       z     vdW  Elec       q    Type
REMARK                         _______ _______ _______ _____ _____    ______ ____
ROOT
ATOM      1  N   UNL     1       2.886   7.129  17.958  0.00  0.00    +0.000 N 
ATOM      2  C   UNL     1       2.279   8.262  18.481  0.00  0.00    +0.000 A 
ATOM      3  C   UNL     1       2.221   9.588  18.009  0.00  0.00    +0.000 A 
ATOM      4  C   UNL     1       1.560  10.545  18.786  0.00  0.00    +0.000 A 
ATOM      5  C   UNL     1       0.977  10.183  19.992  0.00  0.00    +0.000 A 
ATOM      6  C   UNL     1       1.027   8.870  20.454  0.00  0.00    +0.000 A 
ATOM      7  C   UNL     1       1.689   7.889  19.684  0.00  0.00    +0.000 A 
ATOM      8  C   UNL     1       1.924   6.492  19.860  0.00  0.00    +0.000 A 
ATOM      9  C   UNL     1       1.569   5.609  20.898  0.00  0.00    +0.000 A 
ATOM     10  C   UNL     1       1.935   4.266  20.834  0.00  0.00    +0.000 A 
ATOM     11  C   UNL     1       2.632   3.763  19.737  0.00  0.00    +0.000 A 
ATOM     12  C   UNL     1       2.987   2.404  19.708  0.00  0.00    +0.000 A 
ATOM     13  C   UNL     1       3.672   1.877  18.620  0.00  0.00    +0.000 A 
ATOM     14  C   UNL     1       3.998   2.673  17.538  0.00  0.00    +0.000 A 
ATOM     15  C   UNL     1       3.649   4.025  17.545  0.00  0.00    +0.000 A 
ATOM     16  C   UNL     1       2.987   4.613  18.650  0.00  0.00    +0.000 A 
ATOM     17  C   UNL     1       2.641   6.011  18.752  0.00  0.00    +0.000 A 
ENDROOT
BRANCH   1  19
ATOM     18  C   UNL     1       5.217   7.085  17.125  0.00  0.00    +0.000 C 
ATOM     19  C   UNL     1       3.741   7.192  16.781  0.00  0.00    +0.000 C 
ENDBRANCH   1  19
BRANCH   5  20
ATOM     20  O   UNL     1       0.332  11.101  20.771  0.00  0.00    +0.000 OA
ATOM     21  H   UNL     1       0.644  11.988  20.527  0.00  0.00    +0.000 HD
ENDBRANCH   5  20
BRANCH  13  22
ATOM     22  O   UNL     1       4.040   0.565  18.572  0.00  0.00    +0.000 OA
ATOM     23  H   UNL     1       3.279   0.040  18.275  0.00  0.00    +0.000 HD
ENDBRANCH  13  22
TORSDOF 3
ENDMDL
MODEL 3
REMARK VINA RESULT:      -6.8      2.294      6.504
REMARK  Name = 
REMARK  4 active torsions:
REMARK  status: ('A' for Active; 'I' for Inactive)
REMARK    1  A    between atoms: C_1  and  C_2
REMARK    2  A    between atoms: C_2  and  N_3
REMARK    3  A    between atoms: C_7  and  O_8
REMARK    4  A    between atoms: C_16  and  O_17
REMARK                            x       y       z     vdW  Elec       q    Type
REMARK                         _______ _______ _______ _____ _____    ______ ____
ROOT
ATOM      1  N   UNL     1       0.147   9.591  20.853  0.00  0.00    +0.000 N 
ATOM      2  C   UNL     1      -0.171  10.897  20.504  0.00  0.00    +0.000 A 
ATOM      3  C   UNL     1      -0.974  11.861  21.143  0.00  0.00    +0.000 A 
ATOM      4  C   UNL     1      -1.148  13.103  20.521  0.00  0.00    +0.000 A 
ATOM      5  C   UNL     1      -0.536  13.366  19.304  0.00  0.00    +0.000 A 
ATOM      6  C   UNL     1       0.264  12.414  18.677  0.00  0.00    +0.000 A 
ATOM      7  C   UNL     1       0.453  11.156  19.288  0.00  0.00    +0.000 A 
ATOM      8  C   UNL     1       1.185   9.985  18.926  0.00  0.00    +0.000 A 
ATOM      9  C   UNL     1       1.977   9.691  17.798  0.00  0.00    +0.000 A 
ATOM     10  C   UNL     1       2.588   8.444  17.676  0.00  0.00    +0.000 A 
ATOM     11  C   UNL     1       2.454   7.477  18.670  0.00  0.00    +0.000 A 
ATOM     12  C   UNL     1       3.083   6.230  18.511  0.00  0.00    +0.000 A 
ATOM     13  C   UNL     1       2.973   5.255  19.495  0.00  0.00    +0.000 A 
ATOM     14  C   UNL     1       2.264   5.499  20.655  0.00  0.00    +0.000 A 
ATOM     15  C   UNL     1       1.636   6.733  20.835  0.00  0.00    +0.000 A 
ATOM     16  C   UNL     1       1.688   7.741  19.842  0.00  0.00    +0.000 A 
ATOM     17  C   UNL     1       1.023   9.020  19.933  0.00  0.00    +0.000 A 
ENDROOT
BRANCH   1  19
ATOM     18  C   UNL     1       0.036   9.460  23.322  0.00  0.00    +0.000 C 
ATOM     19  C   UNL     1      -0.474   8.931  21.992  0.00  0.00    +0.000 C 
ENDBRANCH   1  19
BRANCH   5  20
ATOM     20  O   UNL     1      -0.698  14.567  18.676  0.00  0.00    +0.000 OA
ATOM     21  H   UNL     1      -1.551  14.562  18.212  0.00  0.00    +0.000 HD
ENDBRANCH   5  20
BRANCH  13  22
ATOM     22  O   UNL     1       3.562   4.033  19.359  0.00  0.00    +0.000 OA
ATOM     23  H   UNL     1       3.937   3.772  20.216  0.00  0.00    +0.000 HD
ENDBRANCH  13  22
TORSDOF 3
ENDMDL
MODEL 4
REMARK VINA RESULT:      -6.7      9.330     11.438
REMARK  Name = 
REMARK  4 active torsions:
REMARK  status: ('A' for Active; 'I' for Inactive)
REMARK    1  A    between atoms: C_1  and  C_2
REMARK    2  A    between atoms: C_2  and  N_3
REMARK    3  A    between atoms: C_7  and  O_8
REMARK    4  A    between atoms: C_16  and  O_17
REMARK                            x       y       z     vdW  Elec       q    Type
REMARK                         _______ _______ _______ _____ _____    ______ ____
ROOT
ATOM      1  N   UNL     1       9.683  14.185  21.756  0.00  0.00    +0.000 N 
ATOM      2  C   UNL     1       8.954  13.676  22.822  0.00  0.00    +0.000 A 
ATOM      3  C   UNL     1       8.521  14.273  24.022  0.00  0.00    +0.000 A 
ATOM      4  C   UNL     1       7.825  13.486  24.946  0.00  0.00    +0.000 A 
ATOM      5  C   UNL     1       7.572  12.150  24.674  0.00  0.00    +0.000 A 
ATOM      6  C   UNL     1       7.993  11.562  23.483  0.00  0.00    +0.000 A 
ATOM      7  C   UNL     1       8.696  12.340  22.537  0.00  0.00    +0.000 A 
ATOM      8  C   UNL     1       9.258  12.060  21.255  0.00  0.00    +0.000 A 
ATOM      9  C   UNL     1       9.306  10.875  20.495  0.00  0.00    +0.000 A 
ATOM     10  C   UNL     1       9.937  10.863  19.253  0.00  0.00    +0.000 A 
ATOM     11  C   UNL     1      10.508  12.019  18.725  0.00  0.00    +0.000 A 
ATOM     12  C   UNL     1      11.138  11.969  17.470  0.00  0.00    +0.000 A 
ATOM     13  C   UNL     1      11.704  13.112  16.919  0.00  0.00    +0.000 A 
ATOM     14  C   UNL     1      11.639  14.323  17.582  0.00  0.00    +0.000 A 
ATOM     15  C   UNL     1      11.012  14.395  18.828  0.00  0.00    +0.000 A 
ATOM     16  C   UNL     1      10.458  13.248  19.445  0.00  0.00    +0.000 A 
ATOM     17  C   UNL     1       9.841  13.234  20.751  0.00  0.00    +0.000 A 
ENDROOT
BRANCH   1  19
ATOM     18  C   UNL     1       9.349  16.575  21.203  0.00  0.00    +0.000 C 
ATOM     19  C   UNL     1      10.266  15.518  21.795  0.00  0.00    +0.000 C 
ENDBRANCH   1  19
BRANCH   5  20
ATOM     20  O   UNL     1       6.902  11.360  25.564  0.00  0.00    +0.000 OA
ATOM     21  H   UNL     1       5.952  11.404  25.364  0.00  0.00    +0.000 HD
ENDBRANCH   5  20
BRANCH  13  22
ATOM     22  O   UNL     1      12.333  13.087  15.709  0.00  0.00    +0.000 OA
ATOM     23  H   UNL     1      11.827  12.518  15.108  0.00  0.00    +0.000 HD
ENDBRANCH  13  22
TORSDOF 3
ENDMDL
MODEL 5
REMARK VINA RESULT:      -6.7      2.869      5.215
REMARK  Name = 
REMARK  4 active torsions:
REMARK  status: ('A' for Active; 'I' for Inactive)
REMARK    1  A    between atoms: C_1  and  C_2
REMARK    2  A    between atoms: C_2  and  N_3
REMARK    3  A    between atoms: C_7  and  O_8
REMARK    4  A    between atoms: C_16  and  O_17
REMARK                            x       y       z     vdW  Elec       q    Type
REMARK                         _______ _______ _______ _____ _____    ______ ____
ROOT
ATOM      1  N   UNL     1      -0.029  10.396  19.206  0.00  0.00    +0.000 N 
ATOM      2  C   UNL     1       0.877   9.347  19.124  0.00  0.00    +0.000 A 
ATOM      3  C   UNL     1       1.568   8.799  18.026  0.00  0.00    +0.000 A 
ATOM      4  C   UNL     1       2.399   7.694  18.244  0.00  0.00    +0.000 A 
ATOM      5  C   UNL     1       2.531   7.162  19.518  0.00  0.00    +0.000 A 
ATOM      6  C   UNL     1       1.854   7.710  20.605  0.00  0.00    +0.000 A 
ATOM      7  C   UNL     1       1.011   8.825  20.406  0.00  0.00    +0.000 A 
ATOM      8  C   UNL     1       0.191   9.606  21.274  0.00  0.00    +0.000 A 
ATOM      9  C   UNL     1      -0.062   9.511  22.657  0.00  0.00    +0.000 A 
ATOM     10  C   UNL     1      -0.930  10.409  23.275  0.00  0.00    +0.000 A 
ATOM     11  C   UNL     1      -1.542  11.430  22.552  0.00  0.00    +0.000 A 
ATOM     12  C   UNL     1      -2.414  12.316  23.209  0.00  0.00    +0.000 A 
ATOM     13  C   UNL     1      -3.027  13.350  22.512  0.00  0.00    +0.000 A 
ATOM     14  C   UNL     1      -2.774  13.540  21.166  0.00  0.00    +0.000 A 
ATOM     15  C   UNL     1      -1.908  12.675  20.496  0.00  0.00    +0.000 A 
ATOM     16  C   UNL     1      -1.293  11.584  21.158  0.00  0.00    +0.000 A 
ATOM     17  C   UNL     1      -0.428  10.619  20.522  0.00  0.00    +0.000 A 
ENDROOT
BRANCH   1  19
ATOM     18  C   UNL     1      -1.798  10.428  17.475  0.00  0.00    +0.000 C 
ATOM     19  C   UNL     1      -0.531  11.068  18.017  0.00  0.00    +0.000 C 
ENDBRANCH   1  19
BRANCH   5  20
ATOM     20  O   UNL     1       3.330   6.080  19.754  0.00  0.00    +0.000 OA
ATOM     21  H   UNL     1       4.156   6.387  20.164  0.00  0.00    +0.000 HD
ENDBRANCH   5  20
BRANCH  13  22
ATOM     22  O   UNL     1      -3.886  14.214  23.122  0.00  0.00    +0.000 OA
ATOM     23  H   UNL     1      -3.574  14.375  24.028  0.00  0.00    +0.000 HD
ENDBRANCH  13  22
TORSDOF 3
ENDMDL
MODEL 6
REMARK VINA RESULT:      -6.7      3.149      5.206
REMARK  Name = 
REMARK  4 active torsions:
REMARK  status: ('A' for Active; 'I' for Inactive)
REMARK    1  A    between atoms: C_1  and  C_2
REMARK    2  A    between atoms: C_2  and  N_3
REMARK    3  A    between atoms: C_7  and  O_8
REMARK    4  A    between atoms: C_16  and  O_17
REMARK                            x       y       z     vdW  Elec       q    Type
REMARK                         _______ _______ _______ _____ _____    ______ ____
ROOT
ATOM      1  N   UNL     1       4.185   5.509  17.802  0.00  0.00    +0.000 N 
ATOM      2  C   UNL     1       4.921   5.387  16.631  0.00  0.00    +0.000 A 
ATOM      3  C   UNL     1       5.567   6.352  15.834  0.00  0.00    +0.000 A 
ATOM      4  C   UNL     1       6.208   5.931  14.663  0.00  0.00    +0.000 A 
ATOM      5  C   UNL     1       6.200   4.591  14.308  0.00  0.00    +0.000 A 
ATOM      6  C   UNL     1       5.568   3.636  15.101  0.00  0.00    +0.000 A 
ATOM      7  C   UNL     1       4.916   4.040  16.286  0.00  0.00    +0.000 A 
ATOM      8  C   UNL     1       4.189   3.343  17.296  0.00  0.00    +0.000 A 
ATOM      9  C   UNL     1       3.863   1.980  17.440  0.00  0.00    +0.000 A 
ATOM     10  C   UNL     1       3.117   1.548  18.536  0.00  0.00    +0.000 A 
ATOM     11  C   UNL     1       2.703   2.442  19.520  0.00  0.00    +0.000 A 
ATOM     12  C   UNL     1       1.950   1.971  20.609  0.00  0.00    +0.000 A 
ATOM     13  C   UNL     1       1.534   2.842  21.610  0.00  0.00    +0.000 A 
ATOM     14  C   UNL     1       1.872   4.181  21.564  0.00  0.00    +0.000 A 
ATOM     15  C   UNL     1       2.624   4.668  20.493  0.00  0.00    +0.000 A 
ATOM     16  C   UNL     1       3.034   3.825  19.432  0.00  0.00    +0.000 A 
ATOM     17  C   UNL     1       3.767   4.265  18.269  0.00  0.00    +0.000 A 
ENDROOT
BRANCH   1  19
ATOM     18  C   UNL     1       2.509   7.330  17.857  0.00  0.00    +0.000 C 
ATOM     19  C   UNL     1       3.845   6.810  18.360  0.00  0.00    +0.000 C 
ENDBRANCH   1  19
BRANCH   5  20
ATOM     20  O   UNL     1       6.812   4.157  13.166  0.00  0.00    +0.000 OA
ATOM     21  H   UNL     1       6.166   4.176  12.442  0.00  0.00    +0.000 HD
ENDBRANCH   5  20
BRANCH  13  22
ATOM     22  O   UNL     1       0.793   2.413  22.670  0.00  0.00    +0.000 OA
ATOM     23  H   UNL     1       0.790   3.107  23.348  0.00  0.00    +0.000 HD
ENDBRANCH  13  22
TORSDOF 3
ENDMDL
MODEL 7
REMARK VINA RESULT:      -6.7      0.838      6.142
REMARK  Name = 
REMARK  4 active torsions:
REMARK  status: ('A' for Active; 'I' for Inactive)
REMARK    1  A    between atoms: C_1  and  C_2
REMARK    2  A    between atoms: C_2  and  N_3
REMARK    3  A    between atoms: C_7  and  O_8
REMARK    4  A    between atoms: C_16  and  O_17
REMARK                            x       y       z     vdW  Elec       q    Type
REMARK                         _______ _______ _______ _____ _____    ______ ____
ROOT
ATOM      1  N   UNL     1       2.015   6.310  20.317  0.00  0.00    +0.000 N 
ATOM      2  C   UNL     1       1.305   7.450  20.668  0.00  0.00    +0.000 A 
ATOM      3  C   UNL     1       0.457   7.718  21.760  0.00  0.00    +0.000 A 
ATOM      4  C   UNL     1      -0.166   8.969  21.831  0.00  0.00    +0.000 A 
ATOM      5  C   UNL     1       0.057   9.916  20.842  0.00  0.00    +0.000 A 
ATOM      6  C   UNL     1       0.903   9.653  19.766  0.00  0.00    +0.000 A 
ATOM      7  C   UNL     1       1.541   8.398  19.678  0.00  0.00    +0.000 A 
ATOM      8  C   UNL     1       2.440   7.815  18.734  0.00  0.00    +0.000 A 
ATOM      9  C   UNL     1       2.994   8.315  17.540  0.00  0.00    +0.000 A 
ATOM     10  C   UNL     1       3.855   7.525  16.780  0.00  0.00    +0.000 A 
ATOM     11  C   UNL     1       4.206   6.242  17.194  0.00  0.00    +0.000 A 
ATOM     12  C   UNL     1       5.075   5.473  16.401  0.00  0.00    +0.000 A 
ATOM     13  C   UNL     1       5.449   4.195  16.799  0.00  0.00    +0.000 A 
ATOM     14  C   UNL     1       4.992   3.665  17.991  0.00  0.00    +0.000 A 
ATOM     15  C   UNL     1       4.132   4.415  18.796  0.00  0.00    +0.000 A 
ATOM     16  C   UNL     1       3.694   5.705  18.410  0.00  0.00    +0.000 A 
ATOM     17  C   UNL     1       2.768   6.518  19.163  0.00  0.00    +0.000 A 
ENDROOT
BRANCH   1  19
ATOM     18  C   UNL     1       0.895   4.103  20.377  0.00  0.00    +0.000 C 
ATOM     19  C   UNL     1       1.866   5.060  21.048  0.00  0.00    +0.000 C 
ENDBRANCH   1  19
BRANCH   5  20
ATOM     20  O   UNL     1      -0.546  11.141  20.885  0.00  0.00    +0.000 OA
ATOM     21  H   UNL     1      -1.363  11.103  20.361  0.00  0.00    +0.000 HD
ENDBRANCH   5  20
BRANCH  13  22
ATOM     22  O   UNL     1       6.279   3.424  16.041  0.00  0.00    +0.000 OA
ATOM     23  H   UNL     1       5.765   3.035  15.316  0.00  0.00    +0.000 HD
ENDBRANCH  13  22
TORSDOF 3
ENDMDL
MODEL 8
REMARK VINA RESULT:      -6.6      2.267      3.870
REMARK  Name = 
REMARK  4 active torsions:
REMARK  status: ('A' for Active; 'I' for Inactive)
REMARK    1  A    between atoms: C_1  and  C_2
REMARK    2  A    between atoms: C_2  and  N_3
REMARK    3  A    between atoms: C_7  and  O_8
REMARK    4  A    between atoms: C_16  and  O_17
REMARK                            x       y       z     vdW  Elec       q    Type
REMARK                         _______ _______ _______ _____ _____    ______ ____
ROOT
ATOM      1  N   UNL     1       3.023   6.193  18.700  0.00  0.00    +0.000 N 
ATOM      2  C   UNL     1       3.094   5.015  19.430  0.00  0.00    +0.000 A 
ATOM      3  C   UNL     1       3.762   3.801  19.176  0.00  0.00    +0.000 A 
ATOM      4  C   UNL     1       3.614   2.753  20.090  0.00  0.00    +0.000 A 
ATOM      5  C   UNL     1       2.823   2.918  21.218  0.00  0.00    +0.000 A 
ATOM      6  C   UNL     1       2.169   4.121  21.473  0.00  0.00    +0.000 A 
ATOM      7  C   UNL     1       2.308   5.191  20.563  0.00  0.00    +0.000 A 
ATOM      8  C   UNL     1       1.786   6.520  20.519  0.00  0.00    +0.000 A 
ATOM      9  C   UNL     1       0.928   7.215  21.393  0.00  0.00    +0.000 A 
ATOM     10  C   UNL     1       0.553   8.528  21.111  0.00  0.00    +0.000 A 
ATOM     11  C   UNL     1       1.037   9.187  19.983  0.00  0.00    +0.000 A 
ATOM     12  C   UNL     1       0.635  10.510  19.730  0.00  0.00    +0.000 A 
ATOM     13  C   UNL     1       1.113  11.192  18.617  0.00  0.00    +0.000 A 
ATOM     14  C   UNL     1       2.008  10.591  17.752  0.00  0.00    +0.000 A 
ATOM     15  C   UNL     1       2.423   9.279  17.989  0.00  0.00    +0.000 A 
ATOM     16  C   UNL     1       1.931   8.533  19.087  0.00  0.00    +0.000 A 
ATOM     17  C   UNL     1       2.273   7.159  19.367  0.00  0.00    +0.000 A 
ENDROOT
BRANCH   1  19
ATOM     18  C   UNL     1       5.057   6.728  17.392  0.00  0.00    +0.000 C 
ATOM     19  C   UNL     1       3.598   6.303  17.367  0.00  0.00    +0.000 C 
ENDBRANCH   1  19
BRANCH   5  20
ATOM     20  O   UNL     1       2.657   1.906  22.121  0.00  0.00    +0.000 OA
ATOM     21  H   UNL     1       3.488   1.787  22.610  0.00  0.00    +0.000 HD
ENDBRANCH   5  20
BRANCH  13  22
ATOM     22  O   UNL     1       0.730  12.470  18.342  0.00  0.00    +0.000 OA
ATOM     23  H   UNL     1      -0.231  12.540  18.466  0.00  0.00    +0.000 HD
ENDBRANCH  13  22
TORSDOF 3
ENDMDL
MODEL 9
REMARK VINA RESULT:      -6.5      4.358      5.327
REMARK  Name = 
REMARK  4 active torsions:
REMARK  status: ('A' for Active; 'I' for Inactive)
REMARK    1  A    between atoms: C_1  and  C_2
REMARK    2  A    between atoms: C_2  and  N_3
REMARK    3  A    between atoms: C_7  and  O_8
REMARK    4  A    between atoms: C_16  and  O_17
REMARK                            x       y       z     vdW  Elec       q    Type
REMARK                         _______ _______ _______ _____ _____    ______ ____
ROOT
ATOM      1  N   UNL     1       5.343   4.868  18.054  0.00  0.00    +0.000 N 
ATOM      2  C   UNL     1       5.877   4.804  16.774  0.00  0.00    +0.000 A 
ATOM      3  C   UNL     1       6.967   5.473  16.185  0.00  0.00    +0.000 A 
ATOM      4  C   UNL     1       7.249   5.233  14.836  0.00  0.00    +0.000 A 
ATOM      5  C   UNL     1       6.465   4.352  14.106  0.00  0.00    +0.000 A 
ATOM      6  C   UNL     1       5.392   3.683  14.690  0.00  0.00    +0.000 A 
ATOM      7  C   UNL     1       5.092   3.911  16.051  0.00  0.00    +0.000 A 
ATOM      8  C   UNL     1       4.090   3.410  16.935  0.00  0.00    +0.000 A 
ATOM      9  C   UNL     1       3.033   2.502  16.730  0.00  0.00    +0.000 A 
ATOM     10  C   UNL     1       2.170   2.181  17.777  0.00  0.00    +0.000 A 
ATOM     11  C   UNL     1       2.348   2.725  19.047  0.00  0.00    +0.000 A 
ATOM     12  C   UNL     1       1.457   2.380  20.077  0.00  0.00    +0.000 A 
ATOM     13  C   UNL     1       1.620   2.900  21.356  0.00  0.00    +0.000 A 
ATOM     14  C   UNL     1       2.673   3.748  21.643  0.00  0.00    +0.000 A 
ATOM     15  C   UNL     1       3.573   4.099  20.634  0.00  0.00    +0.000 A 
ATOM     16  C   UNL     1       3.421   3.624  19.309  0.00  0.00    +0.000 A 
ATOM     17  C   UNL     1       4.279   3.983  18.204  0.00  0.00    +0.000 A 
ENDROOT
BRANCH   1  19
ATOM     18  C   UNL     1       7.187   5.476  19.591  0.00  0.00    +0.000 C 
ATOM     19  C   UNL     1       5.820   5.834  19.033  0.00  0.00    +0.000 C 
ENDBRANCH   1  19
BRANCH   5  20
ATOM     20  O   UNL     1       6.716   4.108  12.786  0.00  0.00    +0.000 OA
ATOM     21  H   UNL     1       6.936   3.168  12.680  0.00  0.00    +0.000 HD
ENDBRANCH   5  20
BRANCH  13  22
ATOM     22  O   UNL     1       0.763   2.592  22.369  0.00  0.00    +0.000 OA
ATOM     23  H   UNL     1      -0.063   2.255  21.986  0.00  0.00    +0.000 HD
ENDBRANCH  13  22
TORSDOF 3
ENDMDL
