MODEL 1
REMARK VINA RESULT:      -7.9      0.000      0.000
REMARK  Name = 
REMARK  11 active torsions:
REMARK  status: ('A' for Active; 'I' for Inactive)
REMARK    1  A    between atoms: C_1  and  C_2
REMARK    2  A    between atoms: C_2  and  C_3
REMARK    3  A    between atoms: N_8  and  C_9
REMARK    4  A    between atoms: C_9  and  C_10
REMARK    5  A    between atoms: C_10  and  C_11
REMARK    6  A    between atoms: C_11  and  N_12
REMARK    7  A    between atoms: C_13  and  C_15
REMARK    8  A    between atoms: C_15  and  N_16
REMARK    9  A    between atoms: C_21  and  C_22
REMARK   10  A    between atoms: C_25  and  O_26
REMARK   11  A    between atoms: O_26  and  C_27
REMARK                            x       y       z     vdW  Elec       q    Type
REMARK                         _______ _______ _______ _____ _____    ______ ____
ROOT
ATOM      1  N   UNL     1       1.782   8.383  19.503  0.00  0.00    +0.000 N 
ATOM      2  N   UNL     1       1.814   7.762  20.760  0.00  0.00    +0.000 NA
ATOM      3  C   UNL     1       1.214   8.353  21.753  0.00  0.00    +0.000 A 
ATOM      4  N   UNL     1       0.584   9.569  21.568  0.00  0.00    +0.000 N 
ATOM      5  N   UNL     1      -0.031  10.230  22.562  0.00  0.00    +0.000 NA
ATOM      6  C   UNL     1      -0.517  11.337  21.965  0.00  0.00    +0.000 A 
ATOM      7  C   UNL     1      -0.157  11.370  20.589  0.00  0.00    +0.000 A 
ATOM      8  C   UNL     1       0.549  10.210  20.376  0.00  0.00    +0.000 A 
ATOM      9  C   UNL     1       1.169   9.622  19.237  0.00  0.00    +0.000 A 
ATOM     10  O   UNL     1       1.178  10.161  18.131  0.00  0.00    +0.000 OA
ENDROOT
BRANCH   6  11
ATOM     11  C   UNL     1      -1.306  12.324  22.699  0.00  0.00    +0.000 A 
ATOM     12  C   UNL     1      -2.586  12.001  23.165  0.00  0.00    +0.000 A 
ATOM     13  C   UNL     1      -3.352  12.953  23.839  0.00  0.00    +0.000 A 
ATOM     14  C   UNL     1      -2.851  14.234  24.067  0.00  0.00    +0.000 A 
ATOM     15  C   UNL     1      -1.576  14.564  23.612  0.00  0.00    +0.000 A 
ATOM     16  C   UNL     1      -0.805  13.613  22.931  0.00  0.00    +0.000 A 
BRANCH  14  17
ATOM     17  O   UNL     1      -3.716  15.090  24.689  0.00  0.00    +0.000 OA
ATOM     18  C   UNL     1      -4.853  15.490  23.934  0.00  0.00    +0.000 C 
ENDBRANCH  14  17
ENDBRANCH   6  11
BRANCH   1  19
ATOM     19  C   UNL     1       2.408   7.664  18.396  0.00  0.00    +0.000 C 
BRANCH  19  21
ATOM     20  N   UNL     1       3.281   5.644  19.521  0.00  0.00    +0.000 N 
ATOM     21  C   UNL     1       2.421   6.149  18.569  0.00  0.00    +0.000 C 
ATOM     22  O   UNL     1       1.688   5.425  17.894  0.00  0.00    +0.000 OA
ATOM     23  H   UNL     1       3.720   6.288  20.165  0.00  0.00    +0.000 HD
BRANCH  20  24
ATOM     24  C   UNL     1       3.318   4.225  19.765  0.00  0.00    +0.000 C 
BRANCH  24  25
ATOM     25  C   UNL     1       4.644   3.583  19.379  0.00  0.00    +0.000 C 
BRANCH  25  26
ATOM     26  C   UNL     1       5.008   4.069  17.971  0.00  0.00    +0.000 C 
BRANCH  26  32
ATOM     27  C   UNL     1       5.960   6.142  17.081  0.00  0.00    +0.000 C 
ATOM     28  C   UNL     1       7.279   6.923  16.912  0.00  0.00    +0.000 C 
ATOM     29  C   UNL     1       7.912   7.270  18.253  0.00  0.00    +0.000 C 
ATOM     30  C   UNL     1       8.048   6.026  19.114  0.00  0.00    +0.000 C 
ATOM     31  C   UNL     1       6.726   5.268  19.209  0.00  0.00    +0.000 C 
ATOM     32  N   UNL     1       6.217   4.902  17.871  0.00  0.00    +0.000 NA
BRANCH  27  34
ATOM     33  C   UNL     1       5.981   4.912  14.794  0.00  0.00    +0.000 C 
ATOM     34  C   UNL     1       5.297   5.932  15.694  0.00  0.00    +0.000 C 
ENDBRANCH  27  34
ENDBRANCH  26  32
ENDBRANCH  25  26
ENDBRANCH  24  25
ENDBRANCH  20  24
ENDBRANCH  19  21
ENDBRANCH   1  19
TORSDOF 9
ENDMDL
MODEL 2
REMARK VINA RESULT:      -7.8      0.946      1.958
REMARK  Name = 
REMARK  11 active torsions:
REMARK  status: ('A' for Active; 'I' for Inactive)
REMARK    1  A    between atoms: C_1  and  C_2
REMARK    2  A    between atoms: C_2  and  C_3
REMARK    3  A    between atoms: N_8  and  C_9
REMARK    4  A    between atoms: C_9  and  C_10
REMARK    5  A    between atoms: C_10  and  C_11
REMARK    6  A    between atoms: C_11  and  N_12
REMARK    7  A    between atoms: C_13  and  C_15
REMARK    8  A    between atoms: C_15  and  N_16
REMARK    9  A    between atoms: C_21  and  C_22
REMARK   10  A    between atoms: C_25  and  O_26
REMARK   11  A    between atoms: O_26  and  C_27
REMARK                            x       y       z     vdW  Elec       q    Type
REMARK                         _______ _______ _______ _____ _____    ______ ____
ROOT
ATOM      1  N   UNL     1       1.837   8.181  19.297  0.00  0.00    +0.000 N 
ATOM      2  N   UNL     1       1.713   7.629  20.580  0.00  0.00    +0.000 NA
ATOM      3  C   UNL     1       0.994   8.269  21.457  0.00  0.00    +0.000 A 
ATOM      4  N   UNL     1       0.393   9.469  21.129  0.00  0.00    +0.000 N 
ATOM      5  N   UNL     1      -0.341  10.180  22.002  0.00  0.00    +0.000 NA
ATOM      6  C   UNL     1      -0.747  11.250  21.290  0.00  0.00    +0.000 A 
ATOM      7  C   UNL     1      -0.219  11.210  19.969  0.00  0.00    +0.000 A 
ATOM      8  C   UNL     1       0.507  10.045  19.909  0.00  0.00    +0.000 A 
ATOM      9  C   UNL     1       1.263   9.400  18.890  0.00  0.00    +0.000 A 
ATOM     10  O   UNL     1       1.410   9.878  17.766  0.00  0.00    +0.000 OA
ENDROOT
BRANCH   6  11
ATOM     11  C   UNL     1      -1.621  12.270  21.865  0.00  0.00    +0.000 A 
ATOM     12  C   UNL     1      -1.297  12.871  23.087  0.00  0.00    +0.000 A 
ATOM     13  C   UNL     1      -2.148  13.823  23.652  0.00  0.00    +0.000 A 
ATOM     14  C   UNL     1      -3.324  14.198  23.002  0.00  0.00    +0.000 A 
ATOM     15  C   UNL     1      -3.652  13.610  21.782  0.00  0.00    +0.000 A 
ATOM     16  C   UNL     1      -2.804  12.650  21.214  0.00  0.00    +0.000 A 
BRANCH  14  17
ATOM     17  O   UNL     1      -4.096  15.098  23.680  0.00  0.00    +0.000 OA
ATOM     18  C   UNL     1      -3.424  15.896  24.648  0.00  0.00    +0.000 C 
ENDBRANCH  14  17
ENDBRANCH   6  11
BRANCH   1  19
ATOM     19  C   UNL     1       2.596   7.406  18.317  0.00  0.00    +0.000 C 
BRANCH  19  21
ATOM     20  N   UNL     1       3.157   5.365  19.591  0.00  0.00    +0.000 N 
ATOM     21  C   UNL     1       2.493   5.897  18.506  0.00  0.00    +0.000 C 
ATOM     22  O   UNL     1       1.839   5.201  17.728  0.00  0.00    +0.000 OA
ATOM     23  H   UNL     1       3.522   5.997  20.291  0.00  0.00    +0.000 HD
BRANCH  20  24
ATOM     24  C   UNL     1       3.073   3.950  19.853  0.00  0.00    +0.000 C 
BRANCH  24  25
ATOM     25  C   UNL     1       4.260   3.167  19.311  0.00  0.00    +0.000 C 
BRANCH  25  26
ATOM     26  C   UNL     1       5.424   4.148  19.125  0.00  0.00    +0.000 C 
BRANCH  26  32
ATOM     27  C   UNL     1       7.017   5.066  17.508  0.00  0.00    +0.000 C 
ATOM     28  C   UNL     1       7.125   5.728  16.120  0.00  0.00    +0.000 C 
ATOM     29  C   UNL     1       6.606   4.821  15.013  0.00  0.00    +0.000 C 
ATOM     30  C   UNL     1       5.208   4.326  15.344  0.00  0.00    +0.000 C 
ATOM     31  C   UNL     1       5.148   3.722  16.745  0.00  0.00    +0.000 C 
ATOM     32  N   UNL     1       5.596   4.690  17.768  0.00  0.00    +0.000 NA
BRANCH  27  34
ATOM     33  C   UNL     1       7.946   7.409  18.129  0.00  0.00    +0.000 C 
ATOM     34  C   UNL     1       7.678   5.978  18.575  0.00  0.00    +0.000 C 
ENDBRANCH  27  34
ENDBRANCH  26  32
ENDBRANCH  25  26
ENDBRANCH  24  25
ENDBRANCH  20  24
ENDBRANCH  19  21
ENDBRANCH   1  19
TORSDOF 9
ENDMDL
MODEL 3
REMARK VINA RESULT:      -7.7      4.163      8.670
REMARK  Name = 
REMARK  11 active torsions:
REMARK  status: ('A' for Active; 'I' for Inactive)
REMARK    1  A    between atoms: C_1  and  C_2
REMARK    2  A    between atoms: C_2  and  C_3
REMARK    3  A    between atoms: N_8  and  C_9
REMARK    4  A    between atoms: C_9  and  C_10
REMARK    5  A    between atoms: C_10  and  C_11
REMARK    6  A    between atoms: C_11  and  N_12
REMARK    7  A    between atoms: C_13  and  C_15
REMARK    8  A    between atoms: C_15  and  N_16
REMARK    9  A    between atoms: C_21  and  C_22
REMARK   10  A    between atoms: C_25  and  O_26
REMARK   11  A    between atoms: O_26  and  C_27
REMARK                            x       y       z     vdW  Elec       q    Type
REMARK                         _______ _______ _______ _____ _____    ______ ____
ROOT
ATOM      1  N   UNL     1       5.630   4.658  17.299  0.00  0.00    +0.000 N 
ATOM      2  N   UNL     1       6.428   4.274  18.386  0.00  0.00    +0.000 NA
ATOM      3  C   UNL     1       7.227   5.161  18.906  0.00  0.00    +0.000 A 
ATOM      4  N   UNL     1       7.295   6.437  18.379  0.00  0.00    +0.000 N 
ATOM      5  N   UNL     1       8.117   7.383  18.863  0.00  0.00    +0.000 NA
ATOM      6  C   UNL     1       7.864   8.459  18.092  0.00  0.00    +0.000 A 
ATOM      7  C   UNL     1       6.898   8.152  17.094  0.00  0.00    +0.000 A 
ATOM      8  C   UNL     1       6.557   6.840  17.317  0.00  0.00    +0.000 A 
ATOM      9  C   UNL     1       5.648   5.934  16.703  0.00  0.00    +0.000 A 
ATOM     10  O   UNL     1       4.958   6.239  15.731  0.00  0.00    +0.000 OA
ENDROOT
BRANCH   6  11
ATOM     11  C   UNL     1       8.529   9.741  18.318  0.00  0.00    +0.000 A 
ATOM     12  C   UNL     1       8.184  10.861  17.552  0.00  0.00    +0.000 A 
ATOM     13  C   UNL     1       8.841  12.077  17.746  0.00  0.00    +0.000 A 
ATOM     14  C   UNL     1       9.840  12.198  18.712  0.00  0.00    +0.000 A 
ATOM     15  C   UNL     1      10.186  11.090  19.484  0.00  0.00    +0.000 A 
ATOM     16  C   UNL     1       9.533   9.866  19.288  0.00  0.00    +0.000 A 
BRANCH  14  17
ATOM     17  O   UNL     1      10.442  13.423  18.770  0.00  0.00    +0.000 OA
ATOM     18  C   UNL     1       9.591  14.525  19.057  0.00  0.00    +0.000 C 
ENDBRANCH  14  17
ENDBRANCH   6  11
BRANCH   1  19
ATOM     19  C   UNL     1       4.698   3.660  16.781  0.00  0.00    +0.000 C 
BRANCH  19  21
ATOM     20  N   UNL     1       3.367   4.066  18.823  0.00  0.00    +0.000 N 
ATOM     21  C   UNL     1       3.365   3.612  17.521  0.00  0.00    +0.000 C 
ATOM     22  O   UNL     1       2.345   3.197  16.969  0.00  0.00    +0.000 OA
ATOM     23  H   UNL     1       4.182   4.559  19.161  0.00  0.00    +0.000 HD
BRANCH  20  24
ATOM     24  C   UNL     1       2.136   4.085  19.571  0.00  0.00    +0.000 C 
BRANCH  24  25
ATOM     25  C   UNL     1       2.093   5.180  20.629  0.00  0.00    +0.000 C 
BRANCH  25  26
ATOM     26  C   UNL     1       2.861   6.389  20.084  0.00  0.00    +0.000 C 
BRANCH  26  32
ATOM     27  C   UNL     1       1.732   8.544  20.364  0.00  0.00    +0.000 C 
ATOM     28  C   UNL     1       0.789   9.546  19.666  0.00  0.00    +0.000 C 
ATOM     29  C   UNL     1       1.387  10.086  18.374  0.00  0.00    +0.000 C 
ATOM     30  C   UNL     1       1.834   8.944  17.477  0.00  0.00    +0.000 C 
ATOM     31  C   UNL     1       2.726   7.961  18.230  0.00  0.00    +0.000 C 
ATOM     32  N   UNL     1       2.046   7.425  19.428  0.00  0.00    +0.000 NA
BRANCH  27  34
ATOM     33  C   UNL     1       0.529   9.265  22.548  0.00  0.00    +0.000 C 
ATOM     34  C   UNL     1       1.132   8.129  21.733  0.00  0.00    +0.000 C 
ENDBRANCH  27  34
ENDBRANCH  26  32
ENDBRANCH  25  26
ENDBRANCH  24  25
ENDBRANCH  20  24
ENDBRANCH  19  21
ENDBRANCH   1  19
TORSDOF 9
ENDMDL
MODEL 4
REMARK VINA RESULT:      -7.5      3.817      9.328
REMARK  Name = 
REMARK  11 active torsions:
REMARK  status: ('A' for Active; 'I' for Inactive)
REMARK    1  A    between atoms: C_1  and  C_2
REMARK    2  A    between atoms: C_2  and  C_3
REMARK    3  A    between atoms: N_8  and  C_9
REMARK    4  A    between atoms: C_9  and  C_10
REMARK    5  A    between atoms: C_10  and  C_11
REMARK    6  A    between atoms: C_11  and  N_12
REMARK    7  A    between atoms: C_13  and  C_15
REMARK    8  A    between atoms: C_15  and  N_16
REMARK    9  A    between atoms: C_21  and  C_22
REMARK   10  A    between atoms: C_25  and  O_26
REMARK   11  A    between atoms: O_26  and  C_27
REMARK                            x       y       z     vdW  Elec       q    Type
REMARK                         _______ _______ _______ _____ _____    ______ ____
ROOT
ATOM      1  N   UNL     1       6.522   5.417  17.565  0.00  0.00    +0.000 N 
ATOM      2  N   UNL     1       7.305   5.056  18.670  0.00  0.00    +0.000 NA
ATOM      3  C   UNL     1       8.066   5.966  19.208  0.00  0.00    +0.000 A 
ATOM      4  N   UNL     1       8.111   7.242  18.682  0.00  0.00    +0.000 N 
ATOM      5  N   UNL     1       8.894   8.211  19.184  0.00  0.00    +0.000 NA
ATOM      6  C   UNL     1       8.629   9.280  18.407  0.00  0.00    +0.000 A 
ATOM      7  C   UNL     1       7.695   8.946  17.387  0.00  0.00    +0.000 A 
ATOM      8  C   UNL     1       7.387   7.625  17.603  0.00  0.00    +0.000 A 
ATOM      9  C   UNL     1       6.518   6.693  16.968  0.00  0.00    +0.000 A 
ATOM     10  O   UNL     1       5.843   6.979  15.980  0.00  0.00    +0.000 OA
ENDROOT
BRANCH   6  11
ATOM     11  C   UNL     1       9.252  10.580  18.647  0.00  0.00    +0.000 A 
ATOM     12  C   UNL     1       8.959  11.669  17.817  0.00  0.00    +0.000 A 
ATOM     13  C   UNL     1       9.578  12.902  18.028  0.00  0.00    +0.000 A 
ATOM     14  C   UNL     1      10.486  13.071  19.073  0.00  0.00    +0.000 A 
ATOM     15  C   UNL     1      10.780  11.995  19.908  0.00  0.00    +0.000 A 
ATOM     16  C   UNL     1      10.165  10.754  19.697  0.00  0.00    +0.000 A 
BRANCH  14  17
ATOM     17  O   UNL     1      11.063  14.308  19.143  0.00  0.00    +0.000 OA
ATOM     18  C   UNL     1      10.337  15.371  18.538  0.00  0.00    +0.000 C 
ENDBRANCH  14  17
ENDBRANCH   6  11
BRANCH   1  19
ATOM     19  C   UNL     1       5.630   4.393  17.026  0.00  0.00    +0.000 C 
BRANCH  19  21
ATOM     20  N   UNL     1       3.829   5.857  17.874  0.00  0.00    +0.000 N 
ATOM     21  C   UNL     1       4.155   4.634  17.327  0.00  0.00    +0.000 C 
ATOM     22  O   UNL     1       3.307   3.775  17.082  0.00  0.00    +0.000 OA
ATOM     23  H   UNL     1       4.532   6.584  17.884  0.00  0.00    +0.000 HD
BRANCH  20  24
ATOM     24  C   UNL     1       2.450   6.168  18.150  0.00  0.00    +0.000 C 
BRANCH  24  25
ATOM     25  C   UNL     1       2.138   7.656  18.052  0.00  0.00    +0.000 C 
BRANCH  25  26
ATOM     26  C   UNL     1       1.842   8.166  19.467  0.00  0.00    +0.000 C 
BRANCH  26  32
ATOM     27  C   UNL     1       0.874   9.877  20.927  0.00  0.00    +0.000 C 
ATOM     28  C   UNL     1      -0.222  10.960  21.005  0.00  0.00    +0.000 C 
ATOM     29  C   UNL     1      -0.031  12.042  19.951  0.00  0.00    +0.000 C 
ATOM     30  C   UNL     1       0.114  11.421  18.572  0.00  0.00    +0.000 C 
ATOM     31  C   UNL     1       1.178  10.326  18.563  0.00  0.00    +0.000 C 
ATOM     32  N   UNL     1       0.881   9.277  19.561  0.00  0.00    +0.000 NA
BRANCH  27  34
ATOM     33  C   UNL     1       0.037   9.445  23.346  0.00  0.00    +0.000 C 
ATOM     34  C   UNL     1       0.706   8.878  22.101  0.00  0.00    +0.000 C 
ENDBRANCH  27  34
ENDBRANCH  26  32
ENDBRANCH  25  26
ENDBRANCH  24  25
ENDBRANCH  20  24
ENDBRANCH  19  21
ENDBRANCH   1  19
TORSDOF 9
ENDMDL
MODEL 5
REMARK VINA RESULT:      -7.4      1.074      1.145
REMARK  Name = 
REMARK  11 active torsions:
REMARK  status: ('A' for Active; 'I' for Inactive)
REMARK    1  A    between atoms: C_1  and  C_2
REMARK    2  A    between atoms: C_2  and  C_3
REMARK    3  A    between atoms: N_8  and  C_9
REMARK    4  A    between atoms: C_9  and  C_10
REMARK    5  A    between atoms: C_10  and  C_11
REMARK    6  A    between atoms: C_11  and  N_12
REMARK    7  A    between atoms: C_13  and  C_15
REMARK    8  A    between atoms: C_15  and  N_16
REMARK    9  A    between atoms: C_21  and  C_22
REMARK   10  A    between atoms: C_25  and  O_26
REMARK   11  A    between atoms: O_26  and  C_27
REMARK                            x       y       z     vdW  Elec       q    Type
REMARK                         _______ _______ _______ _____ _____    ______ ____
ROOT
ATOM      1  N   UNL     1       1.359   8.659  20.529  0.00  0.00    +0.000 N 
ATOM      2  N   UNL     1       1.547   8.461  21.904  0.00  0.00    +0.000 NA
ATOM      3  C   UNL     1       0.879   9.213  22.730  0.00  0.00    +0.000 A 
ATOM      4  N   UNL     1       0.027  10.192  22.255  0.00  0.00    +0.000 N 
ATOM      5  N   UNL     1      -0.669  11.008  23.064  0.00  0.00    +0.000 NA
ATOM      6  C   UNL     1      -1.372  11.785  22.215  0.00  0.00    +0.000 A 
ATOM      7  C   UNL     1      -1.069  11.461  20.863  0.00  0.00    +0.000 A 
ATOM      8  C   UNL     1      -0.166  10.428  20.935  0.00  0.00    +0.000 A 
ATOM      9  C   UNL     1       0.516   9.638  19.968  0.00  0.00    +0.000 A 
ATOM     10  O   UNL     1       0.389   9.812  18.757  0.00  0.00    +0.000 OA
ENDROOT
BRANCH   6  11
ATOM     11  C   UNL     1      -2.308  12.798  22.695  0.00  0.00    +0.000 A 
ATOM     12  C   UNL     1      -3.363  12.441  23.544  0.00  0.00    +0.000 A 
ATOM     13  C   UNL     1      -4.276  13.404  23.978  0.00  0.00    +0.000 A 
ATOM     14  C   UNL     1      -4.144  14.735  23.583  0.00  0.00    +0.000 A 
ATOM     15  C   UNL     1      -3.095  15.101  22.743  0.00  0.00    +0.000 A 
ATOM     16  C   UNL     1      -2.179  14.137  22.301  0.00  0.00    +0.000 A 
BRANCH  14  17
ATOM     17  O   UNL     1      -5.129  15.570  24.031  0.00  0.00    +0.000 OA
ATOM     18  C   UNL     1      -6.465  15.127  23.829  0.00  0.00    +0.000 C 
ENDBRANCH  14  17
ENDBRANCH   6  11
BRANCH   1  19
ATOM     19  C   UNL     1       2.073   7.756  19.629  0.00  0.00    +0.000 C 
BRANCH  19  21
ATOM     20  N   UNL     1       3.079   5.499  19.603  0.00  0.00    +0.000 N 
ATOM     21  C   UNL     1       2.057   6.297  20.072  0.00  0.00    +0.000 C 
ATOM     22  O   UNL     1       1.177   5.869  20.820  0.00  0.00    +0.000 OA
ATOM     23  H   UNL     1       3.866   5.941  19.147  0.00  0.00    +0.000 HD
BRANCH  20  24
ATOM     24  C   UNL     1       3.149   4.119  20.011  0.00  0.00    +0.000 C 
BRANCH  24  25
ATOM     25  C   UNL     1       4.391   3.403  19.498  0.00  0.00    +0.000 C 
BRANCH  25  26
ATOM     26  C   UNL     1       4.716   3.965  18.110  0.00  0.00    +0.000 C 
BRANCH  26  32
ATOM     27  C   UNL     1       5.846   5.892  17.106  0.00  0.00    +0.000 C 
ATOM     28  C   UNL     1       7.222   6.566  16.933  0.00  0.00    +0.000 C 
ATOM     29  C   UNL     1       7.831   6.972  18.268  0.00  0.00    +0.000 C 
ATOM     30  C   UNL     1       7.846   5.792  19.226  0.00  0.00    +0.000 C 
ATOM     31  C   UNL     1       6.471   5.137  19.323  0.00  0.00    +0.000 C 
ATOM     32  N   UNL     1       5.985   4.703  17.997  0.00  0.00    +0.000 NA
BRANCH  27  34
ATOM     33  C   UNL     1       6.173   5.058  14.669  0.00  0.00    +0.000 C 
ATOM     34  C   UNL     1       5.218   5.620  15.713  0.00  0.00    +0.000 C 
ENDBRANCH  27  34
ENDBRANCH  26  32
ENDBRANCH  25  26
ENDBRANCH  24  25
ENDBRANCH  20  24
ENDBRANCH  19  21
ENDBRANCH   1  19
TORSDOF 9
ENDMDL
MODEL 6
REMARK VINA RESULT:      -7.4      1.045      1.959
REMARK  Name = 
REMARK  11 active torsions:
REMARK  status: ('A' for Active; 'I' for Inactive)
REMARK    1  A    between atoms: C_1  and  C_2
REMARK    2  A    between atoms: C_2  and  C_3
REMARK    3  A    between atoms: N_8  and  C_9
REMARK    4  A    between atoms: C_9  and  C_10
REMARK    5  A    between atoms: C_10  and  C_11
REMARK    6  A    between atoms: C_11  and  N_12
REMARK    7  A    between atoms: C_13  and  C_15
REMARK    8  A    between atoms: C_15  and  N_16
REMARK    9  A    between atoms: C_21  and  C_22
REMARK   10  A    between atoms: C_25  and  O_26
REMARK   11  A    between atoms: O_26  and  C_27
REMARK                            x       y       z     vdW  Elec       q    Type
REMARK                         _______ _______ _______ _____ _____    ______ ____
ROOT
ATOM      1  N   UNL     1       1.328   8.764  19.736  0.00  0.00    +0.000 N 
ATOM      2  N   UNL     1       1.622   8.272  21.016  0.00  0.00    +0.000 NA
ATOM      3  C   UNL     1       1.126   8.899  22.044  0.00  0.00    +0.000 A 
ATOM      4  N   UNL     1       0.352  10.030  21.869  0.00  0.00    +0.000 N 
ATOM      5  N   UNL     1      -0.166  10.725  22.896  0.00  0.00    +0.000 NA
ATOM      6  C   UNL     1      -0.852  11.721  22.300  0.00  0.00    +0.000 A 
ATOM      7  C   UNL     1      -0.719  11.654  20.885  0.00  0.00    +0.000 A 
ATOM      8  C   UNL     1       0.063  10.548  20.652  0.00  0.00    +0.000 A 
ATOM      9  C   UNL     1       0.555   9.912  19.477  0.00  0.00    +0.000 A 
ATOM     10  O   UNL     1       0.334  10.341  18.346  0.00  0.00    +0.000 OA
ENDROOT
BRANCH   6  11
ATOM     11  C   UNL     1      -1.616  12.698  23.073  0.00  0.00    +0.000 A 
ATOM     12  C   UNL     1      -2.945  12.438  23.427  0.00  0.00    +0.000 A 
ATOM     13  C   UNL     1      -3.684  13.384  24.138  0.00  0.00    +0.000 A 
ATOM     14  C   UNL     1      -3.108  14.596  24.516  0.00  0.00    +0.000 A 
ATOM     15  C   UNL     1      -1.783  14.863  24.174  0.00  0.00    +0.000 A 
ATOM     16  C   UNL     1      -1.039  13.918  23.456  0.00  0.00    +0.000 A 
BRANCH  14  17
ATOM     17  O   UNL     1      -3.948  15.459  25.162  0.00  0.00    +0.000 OA
ATOM     18  C   UNL     1      -4.263  16.661  24.468  0.00  0.00    +0.000 C 
ENDBRANCH  14  17
ENDBRANCH   6  11
BRANCH   1  19
ATOM     19  C   UNL     1       1.845   8.002  18.602  0.00  0.00    +0.000 C 
BRANCH  19  21
ATOM     20  N   UNL     1       2.297   5.788  19.601  0.00  0.00    +0.000 N 
ATOM     21  C   UNL     1       2.829   6.903  18.990  0.00  0.00    +0.000 C 
ATOM     22  O   UNL     1       4.033   7.015  18.756  0.00  0.00    +0.000 OA
ATOM     23  H   UNL     1       1.293   5.671  19.604  0.00  0.00    +0.000 HD
BRANCH  20  24
ATOM     24  C   UNL     1       3.163   4.693  19.961  0.00  0.00    +0.000 C 
BRANCH  24  25
ATOM     25  C   UNL     1       3.513   3.792  18.784  0.00  0.00    +0.000 C 
BRANCH  25  26
ATOM     26  C   UNL     1       5.029   3.869  18.571  0.00  0.00    +0.000 C 
BRANCH  26  32
ATOM     27  C   UNL     1       6.954   4.645  17.271  0.00  0.00    +0.000 C 
ATOM     28  C   UNL     1       7.355   5.394  15.984  0.00  0.00    +0.000 C 
ATOM     29  C   UNL     1       6.865   4.680  14.732  0.00  0.00    +0.000 C 
ATOM     30  C   UNL     1       5.376   4.394  14.832  0.00  0.00    +0.000 C 
ATOM     31  C   UNL     1       5.030   3.694  16.144  0.00  0.00    +0.000 C 
ATOM     32  N   UNL     1       5.471   4.487  17.310  0.00  0.00    +0.000 NA
BRANCH  27  34
ATOM     33  C   UNL     1       7.841   6.838  18.342  0.00  0.00    +0.000 C 
ATOM     34  C   UNL     1       7.589   5.345  18.502  0.00  0.00    +0.000 C 
ENDBRANCH  27  34
ENDBRANCH  26  32
ENDBRANCH  25  26
ENDBRANCH  24  25
ENDBRANCH  20  24
ENDBRANCH  19  21
ENDBRANCH   1  19
TORSDOF 9
ENDMDL
MODEL 7
REMARK VINA RESULT:      -7.2      5.979      8.584
REMARK  Name = 
REMARK  11 active torsions:
REMARK  status: ('A' for Active; 'I' for Inactive)
REMARK    1  A    between atoms: C_1  and  C_2
REMARK    2  A    between atoms: C_2  and  C_3
REMARK    3  A    between atoms: N_8  and  C_9
REMARK    4  A    between atoms: C_9  and  C_10
REMARK    5  A    between atoms: C_10  and  C_11
REMARK    6  A    between atoms: C_11  and  N_12
REMARK    7  A    between atoms: C_13  and  C_15
REMARK    8  A    between atoms: C_15  and  N_16
REMARK    9  A    between atoms: C_21  and  C_22
REMARK   10  A    between atoms: C_25  and  O_26
REMARK   11  A    between atoms: O_26  and  C_27
REMARK                            x       y       z     vdW  Elec       q    Type
REMARK                         _______ _______ _______ _____ _____    ______ ____
ROOT
ATOM      1  N   UNL     1       6.908   5.314  17.498  0.00  0.00    +0.000 N 
ATOM      2  N   UNL     1       7.738   4.990  18.581  0.00  0.00    +0.000 NA
ATOM      3  C   UNL     1       8.396   5.953  19.160  0.00  0.00    +0.000 A 
ATOM      4  N   UNL     1       8.289   7.251  18.699  0.00  0.00    +0.000 N 
ATOM      5  N   UNL     1       8.962   8.277  19.247  0.00  0.00    +0.000 NA
ATOM      6  C   UNL     1       8.569   9.346  18.526  0.00  0.00    +0.000 A 
ATOM      7  C   UNL     1       7.669   8.958  17.494  0.00  0.00    +0.000 A 
ATOM      8  C   UNL     1       7.515   7.601  17.645  0.00  0.00    +0.000 A 
ATOM      9  C   UNL     1       6.752   6.609  16.967  0.00  0.00    +0.000 A 
ATOM     10  O   UNL     1       6.039   6.864  15.998  0.00  0.00    +0.000 OA
ENDROOT
BRANCH   6  11
ATOM     11  C   UNL     1       9.042  10.695  18.829  0.00  0.00    +0.000 A 
ATOM     12  C   UNL     1       9.437  11.030  20.129  0.00  0.00    +0.000 A 
ATOM     13  C   UNL     1       9.859  12.328  20.426  0.00  0.00    +0.000 A 
ATOM     14  C   UNL     1       9.905  13.303  19.430  0.00  0.00    +0.000 A 
ATOM     15  C   UNL     1       9.520  12.978  18.131  0.00  0.00    +0.000 A 
ATOM     16  C   UNL     1       9.090  11.679  17.830  0.00  0.00    +0.000 A 
BRANCH  14  17
ATOM     17  O   UNL     1      10.285  14.545  19.856  0.00  0.00    +0.000 OA
ATOM     18  C   UNL     1       9.311  15.281  20.587  0.00  0.00    +0.000 C 
ENDBRANCH  14  17
ENDBRANCH   6  11
BRANCH   1  19
ATOM     19  C   UNL     1       6.133   4.223  16.912  0.00  0.00    +0.000 C 
BRANCH  19  21
ATOM     20  N   UNL     1       4.350   2.573  17.362  0.00  0.00    +0.000 N 
ATOM     21  C   UNL     1       5.086   3.632  17.850  0.00  0.00    +0.000 C 
ATOM     22  O   UNL     1       4.923   4.079  18.985  0.00  0.00    +0.000 OA
ATOM     23  H   UNL     1       4.648   2.134  16.501  0.00  0.00    +0.000 HD
BRANCH  20  24
ATOM     24  C   UNL     1       3.369   1.940  18.206  0.00  0.00    +0.000 C 
BRANCH  24  25
ATOM     25  C   UNL     1       1.951   2.041  17.660  0.00  0.00    +0.000 C 
BRANCH  25  26
ATOM     26  C   UNL     1       1.063   2.619  18.767  0.00  0.00    +0.000 C 
BRANCH  26  32
ATOM     27  C   UNL     1       2.044   4.357  20.186  0.00  0.00    +0.000 C 
ATOM     28  C   UNL     1       2.053   5.876  20.453  0.00  0.00    +0.000 C 
ATOM     29  C   UNL     1       2.537   6.664  19.244  0.00  0.00    +0.000 C 
ATOM     30  C   UNL     1       1.754   6.269  18.003  0.00  0.00    +0.000 C 
ATOM     31  C   UNL     1       1.739   4.754  17.814  0.00  0.00    +0.000 C 
ATOM     32  N   UNL     1       1.187   4.067  19.000  0.00  0.00    +0.000 NA
BRANCH  27  34
ATOM     33  C   UNL     1       2.539   2.391  21.809  0.00  0.00    +0.000 C 
ATOM     34  C   UNL     1       1.671   3.600  21.488  0.00  0.00    +0.000 C 
ENDBRANCH  27  34
ENDBRANCH  26  32
ENDBRANCH  25  26
ENDBRANCH  24  25
ENDBRANCH  20  24
ENDBRANCH  19  21
ENDBRANCH   1  19
TORSDOF 9
ENDMDL
MODEL 8
REMARK VINA RESULT:      -7.2      3.031     10.486
REMARK  Name = 
REMARK  11 active torsions:
REMARK  status: ('A' for Active; 'I' for Inactive)
REMARK    1  A    between atoms: C_1  and  C_2
REMARK    2  A    between atoms: C_2  and  C_3
REMARK    3  A    between atoms: N_8  and  C_9
REMARK    4  A    between atoms: C_9  and  C_10
REMARK    5  A    between atoms: C_10  and  C_11
REMARK    6  A    between atoms: C_11  and  N_12
REMARK    7  A    between atoms: C_13  and  C_15
REMARK    8  A    between atoms: C_15  and  N_16
REMARK    9  A    between atoms: C_21  and  C_22
REMARK   10  A    between atoms: C_25  and  O_26
REMARK   11  A    between atoms: O_26  and  C_27
REMARK                            x       y       z     vdW  Elec       q    Type
REMARK                         _______ _______ _______ _____ _____    ______ ____
ROOT
ATOM      1  N   UNL     1       0.613  11.440  20.920  0.00  0.00    +0.000 N 
ATOM      2  N   UNL     1       0.477  10.715  22.112  0.00  0.00    +0.000 NA
ATOM      3  C   UNL     1       0.807   9.456  22.107  0.00  0.00    +0.000 A 
ATOM      4  N   UNL     1       1.256   8.853  20.947  0.00  0.00    +0.000 N 
ATOM      5  N   UNL     1       1.588   7.553  20.882  0.00  0.00    +0.000 NA
ATOM      6  C   UNL     1       1.981   7.381  19.604  0.00  0.00    +0.000 A 
ATOM      7  C   UNL     1       1.848   8.591  18.866  0.00  0.00    +0.000 A 
ATOM      8  C   UNL     1       1.380   9.513  19.771  0.00  0.00    +0.000 A 
ATOM      9  C   UNL     1       1.055  10.897  19.698  0.00  0.00    +0.000 A 
ATOM     10  O   UNL     1       1.139  11.546  18.657  0.00  0.00    +0.000 OA
ENDROOT
BRANCH   6  11
ATOM     11  C   UNL     1       2.473   6.095  19.116  0.00  0.00    +0.000 A 
ATOM     12  C   UNL     1       3.231   6.027  17.941  0.00  0.00    +0.000 A 
ATOM     13  C   UNL     1       3.675   4.795  17.459  0.00  0.00    +0.000 A 
ATOM     14  C   UNL     1       3.381   3.617  18.145  0.00  0.00    +0.000 A 
ATOM     15  C   UNL     1       2.632   3.674  19.319  0.00  0.00    +0.000 A 
ATOM     16  C   UNL     1       2.180   4.909  19.804  0.00  0.00    +0.000 A 
BRANCH  14  17
ATOM     17  O   UNL     1       3.825   2.473  17.545  0.00  0.00    +0.000 OA
ATOM     18  C   UNL     1       3.707   1.279  18.309  0.00  0.00    +0.000 C 
ENDBRANCH  14  17
ENDBRANCH   6  11
BRANCH   1  19
ATOM     19  C   UNL     1       0.297  12.865  20.975  0.00  0.00    +0.000 C 
BRANCH  19  21
ATOM     20  N   UNL     1      -1.928  12.381  21.934  0.00  0.00    +0.000 N 
ATOM     21  C   UNL     1      -0.829  13.214  21.942  0.00  0.00    +0.000 C 
ATOM     22  O   UNL     1      -0.745  14.187  22.692  0.00  0.00    +0.000 OA
ATOM     23  H   UNL     1      -1.865  11.504  21.435  0.00  0.00    +0.000 HD
BRANCH  20  24
ATOM     24  C   UNL     1      -3.014  12.628  22.848  0.00  0.00    +0.000 C 
BRANCH  24  25
ATOM     25  C   UNL     1      -4.291  13.084  22.156  0.00  0.00    +0.000 C 
BRANCH  25  26
ATOM     26  C   UNL     1      -3.982  13.244  20.663  0.00  0.00    +0.000 C 
BRANCH  26  32
ATOM     27  C   UNL     1      -4.433  11.562  18.942  0.00  0.00    +0.000 C 
ATOM     28  C   UNL     1      -5.483  11.096  17.913  0.00  0.00    +0.000 C 
ATOM     29  C   UNL     1      -6.791  10.689  18.578  0.00  0.00    +0.000 C 
ATOM     30  C   UNL     1      -7.286  11.793  19.497  0.00  0.00    +0.000 C 
ATOM     31  C   UNL     1      -6.193  12.246  20.462  0.00  0.00    +0.000 C 
ATOM     32  N   UNL     1      -4.987  12.696  19.737  0.00  0.00    +0.000 NA
BRANCH  27  34
ATOM     33  C   UNL     1      -2.291  10.598  17.834  0.00  0.00    +0.000 C 
ATOM     34  C   UNL     1      -3.085  11.838  18.223  0.00  0.00    +0.000 C 
ENDBRANCH  27  34
ENDBRANCH  26  32
ENDBRANCH  25  26
ENDBRANCH  24  25
ENDBRANCH  20  24
ENDBRANCH  19  21
ENDBRANCH   1  19
TORSDOF 9
ENDMDL
MODEL 9
REMARK VINA RESULT:      -7.1      3.706      9.081
REMARK  Name = 
REMARK  11 active torsions:
REMARK  status: ('A' for Active; 'I' for Inactive)
REMARK    1  A    between atoms: C_1  and  C_2
REMARK    2  A    between atoms: C_2  and  C_3
REMARK    3  A    between atoms: N_8  and  C_9
REMARK    4  A    between atoms: C_9  and  C_10
REMARK    5  A    between atoms: C_10  and  C_11
REMARK    6  A    between atoms: C_11  and  N_12
REMARK    7  A    between atoms: C_13  and  C_15
REMARK    8  A    between atoms: C_15  and  N_16
REMARK    9  A    between atoms: C_21  and  C_22
REMARK   10  A    between atoms: C_25  and  O_26
REMARK   11  A    between atoms: O_26  and  C_27
REMARK                            x       y       z     vdW  Elec       q    Type
REMARK                         _______ _______ _______ _____ _____    ______ ____
ROOT
ATOM      1  N   UNL     1       6.104   5.352  17.499  0.00  0.00    +0.000 N 
ATOM      2  N   UNL     1       6.876   4.863  18.563  0.00  0.00    +0.000 NA
ATOM      3  C   UNL     1       7.734   5.669  19.120  0.00  0.00    +0.000 A 
ATOM      4  N   UNL     1       7.888   6.960  18.655  0.00  0.00    +0.000 N 
ATOM      5  N   UNL     1       8.773   7.824  19.180  0.00  0.00    +0.000 NA
ATOM      6  C   UNL     1       8.593   8.951  18.462  0.00  0.00    +0.000 A 
ATOM      7  C   UNL     1       7.606   8.758  17.455  0.00  0.00    +0.000 A 
ATOM      8  C   UNL     1       7.177   7.463  17.617  0.00  0.00    +0.000 A 
ATOM      9  C   UNL     1       6.208   6.651  16.964  0.00  0.00    +0.000 A 
ATOM     10  O   UNL     1       5.539   7.048  16.011  0.00  0.00    +0.000 OA
ENDROOT
BRANCH   6  11
ATOM     11  C   UNL     1       9.343  10.172  18.746  0.00  0.00    +0.000 A 
ATOM     12  C   UNL     1       9.544  10.588  20.067  0.00  0.00    +0.000 A 
ATOM     13  C   UNL     1      10.234  11.771  20.337  0.00  0.00    +0.000 A 
ATOM     14  C   UNL     1      10.743  12.548  19.297  0.00  0.00    +0.000 A 
ATOM     15  C   UNL     1      10.554  12.140  17.978  0.00  0.00    +0.000 A 
ATOM     16  C   UNL     1       9.857  10.956  17.703  0.00  0.00    +0.000 A 
BRANCH  14  17
ATOM     17  O   UNL     1      11.352  13.707  19.687  0.00  0.00    +0.000 OA
ATOM     18  C   UNL     1      10.595  14.900  19.517  0.00  0.00    +0.000 C 
ENDBRANCH  14  17
ENDBRANCH   6  11
BRANCH   1  19
ATOM     19  C   UNL     1       5.105   4.446  16.938  0.00  0.00    +0.000 C 
BRANCH  19  21
ATOM     20  N   UNL     1       3.381   5.138  18.567  0.00  0.00    +0.000 N 
ATOM     21  C   UNL     1       3.980   4.088  17.903  0.00  0.00    +0.000 C 
ATOM     22  O   UNL     1       3.626   2.920  18.065  0.00  0.00    +0.000 OA
ATOM     23  H   UNL     1       3.585   6.081  18.263  0.00  0.00    +0.000 HD
BRANCH  20  24
ATOM     24  C   UNL     1       2.285   4.879  19.466  0.00  0.00    +0.000 C 
BRANCH  24  25
ATOM     25  C   UNL     1       2.198   5.879  20.611  0.00  0.00    +0.000 C 
BRANCH  25  26
ATOM     26  C   UNL     1       0.965   6.758  20.373  0.00  0.00    +0.000 C 
BRANCH  26  32
ATOM     27  C   UNL     1       0.738   9.170  20.022  0.00  0.00    +0.000 C 
ATOM     28  C   UNL     1       0.880  10.540  20.717  0.00  0.00    +0.000 C 
ATOM     29  C   UNL     1      -0.063  10.678  21.904  0.00  0.00    +0.000 C 
ATOM     30  C   UNL     1       0.093   9.497  22.847  0.00  0.00    +0.000 C 
ATOM     31  C   UNL     1      -0.011   8.170  22.100  0.00  0.00    +0.000 C 
ATOM     32  N   UNL     1       0.987   8.083  21.013  0.00  0.00    +0.000 NA
BRANCH  27  34
ATOM     33  C   UNL     1       1.869  10.489  18.092  0.00  0.00    +0.000 C 
ATOM     34  C   UNL     1       1.624   9.137  18.748  0.00  0.00    +0.000 C 
ENDBRANCH  27  34
ENDBRANCH  26  32
ENDBRANCH  25  26
ENDBRANCH  24  25
ENDBRANCH  20  24
ENDBRANCH  19  21
ENDBRANCH   1  19
TORSDOF 9
ENDMDL
