MODEL 1
REMARK VINA RESULT:      -8.8      0.000      0.000
REMARK  Name = 
REMARK  13 active torsions:
REMARK  status: ('A' for Active; 'I' for Inactive)
REMARK    1  A    between atoms: C_1  and  C_2
REMARK    2  A    between atoms: C_3  and  C_4
REMARK    3  A    between atoms: C_7  and  C_8
REMARK    4  A    between atoms: C_9  and  O_10
REMARK    5  A    between atoms: C_13  and  C_14
REMARK    6  A    between atoms: C_13  and  C_30
REMARK    7  A    between atoms: C_14  and  O_15
REMARK    8  A    between atoms: O_15  and  C_16
REMARK    9  A    between atoms: C_19  and  C_20
REMARK   10  A    between atoms: C_20  and  C_21
REMARK   11  A    between atoms: C_30  and  C_31
REMARK   12  A    between atoms: C_31  and  C_32
REMARK   13  A    between atoms: C_31  and  C_33
REMARK                            x       y       z     vdW  Elec       q    Type
REMARK                         _______ _______ _______ _____ _____    ______ ____
ROOT
ATOM      1  C   UNL     1       2.809  15.433  20.396  0.00  0.00    +0.000 C 
ATOM      2  C   UNL     1       1.558  14.592  20.479  0.00  0.00    +0.000 A 
ATOM      3  C   UNL     1       1.090  13.750  19.443  0.00  0.00    +0.000 A 
ATOM      4  C   UNL     1       1.823  13.565  18.136  0.00  0.00    +0.000 C 
ATOM      5  C   UNL     1      -0.114  13.030  19.636  0.00  0.00    +0.000 A 
ATOM      6  C   UNL     1      -0.877  13.186  20.815  0.00  0.00    +0.000 A 
ATOM      7  C   UNL     1      -0.368  13.952  21.885  0.00  0.00    +0.000 A 
ATOM      8  C   UNL     1      -1.070  13.998  23.219  0.00  0.00    +0.000 C 
ATOM      9  C   UNL     1       0.831  14.655  21.687  0.00  0.00    +0.000 A 
ATOM     10  C   UNL     1      -2.216  12.506  20.945  0.00  0.00    +0.000 C 
ATOM     11  C   UNL     1      -2.659  11.879  19.640  0.00  0.00    +0.000 C 
ATOM     12  C   UNL     1      -1.485  11.157  18.979  0.00  0.00    +0.000 C 
ATOM     13  O   UNL     1      -0.486  12.151  18.628  0.00  0.00    +0.000 OA
ENDROOT
BRANCH   9  14
ATOM     14  O   UNL     1       1.361  15.445  22.679  0.00  0.00    +0.000 OA
ATOM     15  H   UNL     1       1.072  16.362  22.567  0.00  0.00    +0.000 HD
ENDBRANCH   9  14
BRANCH  12  16
ATOM     16  C   UNL     1      -0.787  10.096  19.873  0.00  0.00    +0.000 C 
BRANCH  16  17
ATOM     17  O   UNL     1       0.629  10.278  19.992  0.00  0.00    +0.000 OA
BRANCH  17  18
ATOM     18  C   UNL     1       1.369   9.238  19.491  0.00  0.00    +0.000 A 
ATOM     19  C   UNL     1       1.945   9.225  18.210  0.00  0.00    +0.000 A 
ATOM     20  C   UNL     1       2.684   8.132  17.763  0.00  0.00    +0.000 A 
ATOM     21  C   UNL     1       2.874   7.019  18.580  0.00  0.00    +0.000 A 
ATOM     22  C   UNL     1       2.295   7.024  19.861  0.00  0.00    +0.000 A 
ATOM     23  C   UNL     1       1.549   8.125  20.312  0.00  0.00    +0.000 A 
BRANCH  21  24
ATOM     24  C   UNL     1       3.651   5.841  18.047  0.00  0.00    +0.000 C 
BRANCH  24  25
ATOM     25  C   UNL     1       5.141   5.758  18.400  0.00  0.00    +0.000 C 
ATOM     26  S   UNL     1       6.255   6.377  17.097  0.00  0.00    +0.000 S 
ATOM     27  C   UNL     1       7.053   4.832  16.932  0.00  0.00    +0.000 C 
ATOM     28  O   UNL     1       7.800   4.550  16.012  0.00  0.00    +0.000 OA
ATOM     29  N   UNL     1       6.695   4.007  17.941  0.00  0.00    +0.000 N 
ATOM     30  C   UNL     1       5.604   4.345  18.683  0.00  0.00    +0.000 C 
ATOM     31  O   UNL     1       5.072   3.579  19.477  0.00  0.00    +0.000 OA
ATOM     32  H   UNL     1       7.049   3.065  17.964  0.00  0.00    +0.000 HD
ENDBRANCH  24  25
ENDBRANCH  21  24
ENDBRANCH  17  18
ENDBRANCH  16  17
ENDBRANCH  12  16
BRANCH  12  33
ATOM     33  C   UNL     1      -1.993  10.402  17.711  0.00  0.00    +0.000 C 
BRANCH  33  34
ATOM     34  C   UNL     1      -2.961  11.142  16.764  0.00  0.00    +0.000 C 
ATOM     35  C   UNL     1      -2.803  10.733  15.301  0.00  0.00    +0.000 C 
ATOM     36  C   UNL     1      -4.413  10.897  17.196  0.00  0.00    +0.000 C 
ENDBRANCH  33  34
ENDBRANCH  12  33
TORSDOF 8
ENDMDL
MODEL 2
REMARK VINA RESULT:      -8.6      4.809      8.773
REMARK  Name = 
REMARK  13 active torsions:
REMARK  status: ('A' for Active; 'I' for Inactive)
REMARK    1  A    between atoms: C_1  and  C_2
REMARK    2  A    between atoms: C_3  and  C_4
REMARK    3  A    between atoms: C_7  and  C_8
REMARK    4  A    between atoms: C_9  and  O_10
REMARK    5  A    between atoms: C_13  and  C_14
REMARK    6  A    between atoms: C_13  and  C_30
REMARK    7  A    between atoms: C_14  and  O_15
REMARK    8  A    between atoms: O_15  and  C_16
REMARK    9  A    between atoms: C_19  and  C_20
REMARK   10  A    between atoms: C_20  and  C_21
REMARK   11  A    between atoms: C_30  and  C_31
REMARK   12  A    between atoms: C_31  and  C_32
REMARK   13  A    between atoms: C_31  and  C_33
REMARK                            x       y       z     vdW  Elec       q    Type
REMARK                         _______ _______ _______ _____ _____    ______ ____
ROOT
ATOM      1  C   UNL     1       1.726   9.017  19.080  0.00  0.00    +0.000 C 
ATOM      2  C   UNL     1       2.218   7.594  18.985  0.00  0.00    +0.000 A 
ATOM      3  C   UNL     1       3.030   7.095  17.939  0.00  0.00    +0.000 A 
ATOM      4  C   UNL     1       3.535   7.956  16.806  0.00  0.00    +0.000 C 
ATOM      5  C   UNL     1       3.404   5.730  17.953  0.00  0.00    +0.000 A 
ATOM      6  C   UNL     1       2.933   4.854  18.957  0.00  0.00    +0.000 A 
ATOM      7  C   UNL     1       2.202   5.366  20.049  0.00  0.00    +0.000 A 
ATOM      8  C   UNL     1       1.835   4.493  21.223  0.00  0.00    +0.000 C 
ATOM      9  C   UNL     1       1.842   6.723  20.030  0.00  0.00    +0.000 A 
ATOM     10  C   UNL     1       3.243   3.381  18.881  0.00  0.00    +0.000 C 
ATOM     11  C   UNL     1       3.885   3.007  17.561  0.00  0.00    +0.000 C 
ATOM     12  C   UNL     1       4.943   4.041  17.180  0.00  0.00    +0.000 C 
ATOM     13  O   UNL     1       4.272   5.309  16.955  0.00  0.00    +0.000 OA
ENDROOT
BRANCH   9  14
ATOM     14  O   UNL     1       1.101   7.274  21.048  0.00  0.00    +0.000 OA
ATOM     15  H   UNL     1       0.188   7.414  20.760  0.00  0.00    +0.000 HD
ENDBRANCH   9  14
BRANCH  12  16
ATOM     16  C   UNL     1       6.036   4.281  18.256  0.00  0.00    +0.000 C 
BRANCH  16  17
ATOM     17  O   UNL     1       7.306   4.669  17.718  0.00  0.00    +0.000 OA
BRANCH  17  18
ATOM     18  C   UNL     1       7.621   5.987  17.927  0.00  0.00    +0.000 A 
ATOM     19  C   UNL     1       8.363   6.455  19.023  0.00  0.00    +0.000 A 
ATOM     20  C   UNL     1       8.646   7.811  19.175  0.00  0.00    +0.000 A 
ATOM     21  C   UNL     1       8.200   8.741  18.238  0.00  0.00    +0.000 A 
ATOM     22  C   UNL     1       7.452   8.277  17.141  0.00  0.00    +0.000 A 
ATOM     23  C   UNL     1       7.166   6.912  16.987  0.00  0.00    +0.000 A 
BRANCH  21  24
ATOM     24  C   UNL     1       8.497  10.204  18.456  0.00  0.00    +0.000 C 
BRANCH  24  25
ATOM     25  C   UNL     1       9.707  10.557  19.327  0.00  0.00    +0.000 C 
ATOM     26  S   UNL     1       9.280  11.237  20.963  0.00  0.00    +0.000 S 
ATOM     27  C   UNL     1      10.109  12.742  20.647  0.00  0.00    +0.000 C 
ATOM     28  O   UNL     1       9.992  13.738  21.336  0.00  0.00    +0.000 OA
ATOM     29  N   UNL     1      10.856  12.639  19.525  0.00  0.00    +0.000 N 
ATOM     30  C   UNL     1      10.614  11.590  18.691  0.00  0.00    +0.000 C 
ATOM     31  O   UNL     1      11.079  11.512  17.561  0.00  0.00    +0.000 OA
ATOM     32  H   UNL     1      11.368  13.440  19.193  0.00  0.00    +0.000 HD
ENDBRANCH  24  25
ENDBRANCH  21  24
ENDBRANCH  17  18
ENDBRANCH  16  17
ENDBRANCH  12  16
BRANCH  12  33
ATOM     33  C   UNL     1       5.687   3.565  15.892  0.00  0.00    +0.000 C 
BRANCH  33  34
ATOM     34  C   UNL     1       5.690   4.502  14.666  0.00  0.00    +0.000 C 
ATOM     35  C   UNL     1       7.090   4.959  14.261  0.00  0.00    +0.000 C 
ATOM     36  C   UNL     1       5.025   3.810  13.470  0.00  0.00    +0.000 C 
ENDBRANCH  33  34
ENDBRANCH  12  33
TORSDOF 8
ENDMDL
MODEL 3
REMARK VINA RESULT:      -8.5      0.679      1.068
REMARK  Name = 
REMARK  13 active torsions:
REMARK  status: ('A' for Active; 'I' for Inactive)
REMARK    1  A    between atoms: C_1  and  C_2
REMARK    2  A    between atoms: C_3  and  C_4
REMARK    3  A    between atoms: C_7  and  C_8
REMARK    4  A    between atoms: C_9  and  O_10
REMARK    5  A    between atoms: C_13  and  C_14
REMARK    6  A    between atoms: C_13  and  C_30
REMARK    7  A    between atoms: C_14  and  O_15
REMARK    8  A    between atoms: O_15  and  C_16
REMARK    9  A    between atoms: C_19  and  C_20
REMARK   10  A    between atoms: C_20  and  C_21
REMARK   11  A    between atoms: C_30  and  C_31
REMARK   12  A    between atoms: C_31  and  C_32
REMARK   13  A    between atoms: C_31  and  C_33
REMARK                            x       y       z     vdW  Elec       q    Type
REMARK                         _______ _______ _______ _____ _____    ______ ____
ROOT
ATOM      1  C   UNL     1       2.290  16.248  20.184  0.00  0.00    +0.000 C 
ATOM      2  C   UNL     1       1.124  15.290  20.207  0.00  0.00    +0.000 A 
ATOM      3  C   UNL     1       0.901  14.278  19.244  0.00  0.00    +0.000 A 
ATOM      4  C   UNL     1       1.840  14.015  18.092  0.00  0.00    +0.000 C 
ATOM      5  C   UNL     1      -0.248  13.459  19.365  0.00  0.00    +0.000 A 
ATOM      6  C   UNL     1      -1.194  13.674  20.391  0.00  0.00    +0.000 A 
ATOM      7  C   UNL     1      -0.929  14.619  21.404  0.00  0.00    +0.000 A 
ATOM      8  C   UNL     1      -1.830  14.753  22.606  0.00  0.00    +0.000 C 
ATOM      9  C   UNL     1       0.217  15.422  21.280  0.00  0.00    +0.000 A 
ATOM     10  C   UNL     1      -2.469  12.871  20.425  0.00  0.00    +0.000 C 
ATOM     11  C   UNL     1      -2.646  12.041  19.171  0.00  0.00    +0.000 C 
ATOM     12  C   UNL     1      -1.324  11.377  18.789  0.00  0.00    +0.000 C 
ATOM     13  O   UNL     1      -0.378  12.425  18.447  0.00  0.00    +0.000 OA
ENDROOT
BRANCH   9  14
ATOM     14  O   UNL     1       0.513  16.383  22.216  0.00  0.00    +0.000 OA
ATOM     15  H   UNL     1      -0.042  17.165  22.081  0.00  0.00    +0.000 HD
ENDBRANCH   9  14
BRANCH  12  16
ATOM     16  C   UNL     1      -0.678  10.521  19.911  0.00  0.00    +0.000 C 
BRANCH  16  17
ATOM     17  O   UNL     1       0.752  10.609  19.960  0.00  0.00    +0.000 OA
BRANCH  17  18
ATOM     18  C   UNL     1       1.396   9.476  19.537  0.00  0.00    +0.000 A 
ATOM     19  C   UNL     1       1.579   8.331  20.329  0.00  0.00    +0.000 A 
ATOM     20  C   UNL     1       2.247   7.212  19.835  0.00  0.00    +0.000 A 
ATOM     21  C   UNL     1       2.749   7.199  18.535  0.00  0.00    +0.000 A 
ATOM     22  C   UNL     1       2.573   8.345  17.740  0.00  0.00    +0.000 A 
ATOM     23  C   UNL     1       1.901   9.473  18.237  0.00  0.00    +0.000 A 
BRANCH  21  24
ATOM     24  C   UNL     1       3.497   5.982  18.049  0.00  0.00    +0.000 C 
BRANCH  24  25
ATOM     25  C   UNL     1       4.893   5.731  18.629  0.00  0.00    +0.000 C 
ATOM     26  S   UNL     1       6.258   6.328  17.580  0.00  0.00    +0.000 S 
ATOM     27  C   UNL     1       6.941   4.728  17.416  0.00  0.00    +0.000 C 
ATOM     28  O   UNL     1       7.805   4.440  16.608  0.00  0.00    +0.000 OA
ATOM     29  N   UNL     1       6.350   3.874  18.281  0.00  0.00    +0.000 N 
ATOM     30  C   UNL     1       5.182   4.263  18.863  0.00  0.00    +0.000 C 
ATOM     31  O   UNL     1       4.462   3.500  19.493  0.00  0.00    +0.000 OA
ATOM     32  H   UNL     1       6.615   2.903  18.281  0.00  0.00    +0.000 HD
ENDBRANCH  24  25
ENDBRANCH  21  24
ENDBRANCH  17  18
ENDBRANCH  16  17
ENDBRANCH  12  16
BRANCH  12  33
ATOM     33  C   UNL     1      -1.559  10.418  17.580  0.00  0.00    +0.000 C 
BRANCH  33  34
ATOM     34  C   UNL     1      -2.934  10.452  16.882  0.00  0.00    +0.000 C 
ATOM     35  C   UNL     1      -2.843  10.316  15.363  0.00  0.00    +0.000 C 
ATOM     36  C   UNL     1      -3.833   9.337  17.430  0.00  0.00    +0.000 C 
ENDBRANCH  33  34
ENDBRANCH  12  33
TORSDOF 8
ENDMDL
MODEL 4
REMARK VINA RESULT:      -8.2      2.528      4.831
REMARK  Name = 
REMARK  13 active torsions:
REMARK  status: ('A' for Active; 'I' for Inactive)
REMARK    1  A    between atoms: C_1  and  C_2
REMARK    2  A    between atoms: C_3  and  C_4
REMARK    3  A    between atoms: C_7  and  C_8
REMARK    4  A    between atoms: C_9  and  O_10
REMARK    5  A    between atoms: C_13  and  C_14
REMARK    6  A    between atoms: C_13  and  C_30
REMARK    7  A    between atoms: C_14  and  O_15
REMARK    8  A    between atoms: O_15  and  C_16
REMARK    9  A    between atoms: C_19  and  C_20
REMARK   10  A    between atoms: C_20  and  C_21
REMARK   11  A    between atoms: C_30  and  C_31
REMARK   12  A    between atoms: C_31  and  C_32
REMARK   13  A    between atoms: C_31  and  C_33
REMARK                            x       y       z     vdW  Elec       q    Type
REMARK                         _______ _______ _______ _____ _____    ______ ____
ROOT
ATOM      1  C   UNL     1      -5.654  13.131  22.644  0.00  0.00    +0.000 C 
ATOM      2  C   UNL     1      -4.812  12.735  21.455  0.00  0.00    +0.000 A 
ATOM      3  C   UNL     1      -3.421  12.968  21.347  0.00  0.00    +0.000 A 
ATOM      4  C   UNL     1      -2.605  13.610  22.444  0.00  0.00    +0.000 C 
ATOM      5  C   UNL     1      -2.750  12.571  20.165  0.00  0.00    +0.000 A 
ATOM      6  C   UNL     1      -3.455  12.005  19.080  0.00  0.00    +0.000 A 
ATOM      7  C   UNL     1      -4.822  11.688  19.219  0.00  0.00    +0.000 A 
ATOM      8  C   UNL     1      -5.562  10.926  18.149  0.00  0.00    +0.000 C 
ATOM      9  C   UNL     1      -5.477  12.078  20.398  0.00  0.00    +0.000 A 
ATOM     10  C   UNL     1      -2.740  11.706  17.787  0.00  0.00    +0.000 C 
ATOM     11  C   UNL     1      -1.334  12.270  17.777  0.00  0.00    +0.000 C 
ATOM     12  C   UNL     1      -0.652  12.005  19.118  0.00  0.00    +0.000 C 
ATOM     13  O   UNL     1      -1.372  12.741  20.142  0.00  0.00    +0.000 OA
ENDROOT
BRANCH   9  14
ATOM     14  O   UNL     1      -6.817  11.828  20.581  0.00  0.00    +0.000 OA
ATOM     15  H   UNL     1      -7.051  11.924  21.515  0.00  0.00    +0.000 HD
ENDBRANCH   9  14
BRANCH  12  16
ATOM     16  C   UNL     1      -0.626  10.514  19.552  0.00  0.00    +0.000 C 
BRANCH  16  17
ATOM     17  O   UNL     1       0.433  10.191  20.461  0.00  0.00    +0.000 OA
BRANCH  17  18
ATOM     18  C   UNL     1       1.087   9.023  20.164  0.00  0.00    +0.000 A 
ATOM     19  C   UNL     1       1.219   7.945  21.055  0.00  0.00    +0.000 A 
ATOM     20  C   UNL     1       1.899   6.787  20.688  0.00  0.00    +0.000 A 
ATOM     21  C   UNL     1       2.467   6.665  19.421  0.00  0.00    +0.000 A 
ATOM     22  C   UNL     1       2.342   7.743  18.527  0.00  0.00    +0.000 A 
ATOM     23  C   UNL     1       1.657   8.912  18.896  0.00  0.00    +0.000 A 
BRANCH  21  24
ATOM     24  C   UNL     1       3.225   5.408  19.074  0.00  0.00    +0.000 C 
BRANCH  24  25
ATOM     25  C   UNL     1       2.511   4.069  19.289  0.00  0.00    +0.000 C 
ATOM     26  S   UNL     1       3.576   2.752  19.964  0.00  0.00    +0.000 S 
ATOM     27  C   UNL     1       3.324   1.723  18.575  0.00  0.00    +0.000 C 
ATOM     28  O   UNL     1       3.984   0.727  18.341  0.00  0.00    +0.000 OA
ATOM     29  N   UNL     1       2.327   2.211  17.803  0.00  0.00    +0.000 N 
ATOM     30  C   UNL     1       1.929   3.496  18.014  0.00  0.00    +0.000 C 
ATOM     31  O   UNL     1       1.190   4.101  17.248  0.00  0.00    +0.000 OA
ATOM     32  H   UNL     1       2.087   1.743  16.945  0.00  0.00    +0.000 HD
ENDBRANCH  24  25
ENDBRANCH  21  24
ENDBRANCH  17  18
ENDBRANCH  16  17
ENDBRANCH  12  16
BRANCH  12  33
ATOM     33  C   UNL     1       0.837  12.468  19.038  0.00  0.00    +0.000 C 
BRANCH  33  34
ATOM     34  C   UNL     1       1.248  13.732  19.822  0.00  0.00    +0.000 C 
ATOM     35  C   UNL     1       2.759  13.863  20.005  0.00  0.00    +0.000 C 
ATOM     36  C   UNL     1       0.720  14.987  19.115  0.00  0.00    +0.000 C 
ENDBRANCH  33  34
ENDBRANCH  12  33
TORSDOF 8
ENDMDL
MODEL 5
REMARK VINA RESULT:      -8.0      1.072      1.301
REMARK  Name = 
REMARK  13 active torsions:
REMARK  status: ('A' for Active; 'I' for Inactive)
REMARK    1  A    between atoms: C_1  and  C_2
REMARK    2  A    between atoms: C_3  and  C_4
REMARK    3  A    between atoms: C_7  and  C_8
REMARK    4  A    between atoms: C_9  and  O_10
REMARK    5  A    between atoms: C_13  and  C_14
REMARK    6  A    between atoms: C_13  and  C_30
REMARK    7  A    between atoms: C_14  and  O_15
REMARK    8  A    between atoms: O_15  and  C_16
REMARK    9  A    between atoms: C_19  and  C_20
REMARK   10  A    between atoms: C_20  and  C_21
REMARK   11  A    between atoms: C_30  and  C_31
REMARK   12  A    between atoms: C_31  and  C_32
REMARK   13  A    between atoms: C_31  and  C_33
REMARK                            x       y       z     vdW  Elec       q    Type
REMARK                         _______ _______ _______ _____ _____    ______ ____
ROOT
ATOM      1  C   UNL     1       1.574  15.837  22.116  0.00  0.00    +0.000 C 
ATOM      2  C   UNL     1       0.444  14.914  21.727  0.00  0.00    +0.000 A 
ATOM      3  C   UNL     1       0.271  14.362  20.436  0.00  0.00    +0.000 A 
ATOM      4  C   UNL     1       1.235  14.604  19.300  0.00  0.00    +0.000 C 
ATOM      5  C   UNL     1      -0.847  13.528  20.192  0.00  0.00    +0.000 A 
ATOM      6  C   UNL     1      -1.814  13.292  21.193  0.00  0.00    +0.000 A 
ATOM      7  C   UNL     1      -1.598  13.765  22.505  0.00  0.00    +0.000 A 
ATOM      8  C   UNL     1      -2.519  13.384  23.636  0.00  0.00    +0.000 C 
ATOM      9  C   UNL     1      -0.482  14.583  22.739  0.00  0.00    +0.000 A 
ATOM     10  C   UNL     1      -3.059  12.504  20.872  0.00  0.00    +0.000 C 
ATOM     11  C   UNL     1      -3.188  12.234  19.388  0.00  0.00    +0.000 C 
ATOM     12  C   UNL     1      -1.837  11.815  18.811  0.00  0.00    +0.000 C 
ATOM     13  O   UNL     1      -0.926  12.940  18.937  0.00  0.00    +0.000 OA
ENDROOT
BRANCH   9  14
ATOM     14  O   UNL     1      -0.234  15.103  23.987  0.00  0.00    +0.000 OA
ATOM     15  H   UNL     1      -0.910  14.807  24.614  0.00  0.00    +0.000 HD
ENDBRANCH   9  14
BRANCH  12  16
ATOM     16  C   UNL     1      -1.174  10.603  19.519  0.00  0.00    +0.000 C 
BRANCH  16  17
ATOM     17  O   UNL     1       0.233  10.758  19.741  0.00  0.00    +0.000 OA
BRANCH  17  18
ATOM     18  C   UNL     1       0.984   9.688  19.325  0.00  0.00    +0.000 A 
ATOM     19  C   UNL     1       1.527   9.560  18.036  0.00  0.00    +0.000 A 
ATOM     20  C   UNL     1       2.279   8.443  17.680  0.00  0.00    +0.000 A 
ATOM     21  C   UNL     1       2.517   7.421  18.598  0.00  0.00    +0.000 A 
ATOM     22  C   UNL     1       1.971   7.543  19.887  0.00  0.00    +0.000 A 
ATOM     23  C   UNL     1       1.212   8.667  20.248  0.00  0.00    +0.000 A 
BRANCH  21  24
ATOM     24  C   UNL     1       3.308   6.212  18.163  0.00  0.00    +0.000 C 
BRANCH  24  25
ATOM     25  C   UNL     1       4.768   6.433  17.752  0.00  0.00    +0.000 C 
ATOM     26  S   UNL     1       5.090   6.195  15.974  0.00  0.00    +0.000 S 
ATOM     27  C   UNL     1       6.230   4.904  16.269  0.00  0.00    +0.000 C 
ATOM     28  O   UNL     1       6.653   4.163  15.402  0.00  0.00    +0.000 OA
ATOM     29  N   UNL     1       6.535   4.838  17.585  0.00  0.00    +0.000 N 
ATOM     30  C   UNL     1       5.729   5.501  18.460  0.00  0.00    +0.000 C 
ATOM     31  O   UNL     1       5.787   5.343  19.672  0.00  0.00    +0.000 OA
ATOM     32  H   UNL     1       7.157   4.119  17.916  0.00  0.00    +0.000 HD
ENDBRANCH  24  25
ENDBRANCH  21  24
ENDBRANCH  17  18
ENDBRANCH  16  17
ENDBRANCH  12  16
BRANCH  12  33
ATOM     33  C   UNL     1      -2.020  11.408  17.315  0.00  0.00    +0.000 C 
BRANCH  33  34
ATOM     34  C   UNL     1      -3.206  10.491  16.951  0.00  0.00    +0.000 C 
ATOM     35  C   UNL     1      -4.487  11.259  16.635  0.00  0.00    +0.000 C 
ATOM     36  C   UNL     1      -2.843   9.610  15.748  0.00  0.00    +0.000 C 
ENDBRANCH  33  34
ENDBRANCH  12  33
TORSDOF 8
ENDMDL
MODEL 6
REMARK VINA RESULT:      -7.8      2.615      4.232
REMARK  Name = 
REMARK  13 active torsions:
REMARK  status: ('A' for Active; 'I' for Inactive)
REMARK    1  A    between atoms: C_1  and  C_2
REMARK    2  A    between atoms: C_3  and  C_4
REMARK    3  A    between atoms: C_7  and  C_8
REMARK    4  A    between atoms: C_9  and  O_10
REMARK    5  A    between atoms: C_13  and  C_14
REMARK    6  A    between atoms: C_13  and  C_30
REMARK    7  A    between atoms: C_14  and  O_15
REMARK    8  A    between atoms: O_15  and  C_16
REMARK    9  A    between atoms: C_19  and  C_20
REMARK   10  A    between atoms: C_20  and  C_21
REMARK   11  A    between atoms: C_30  and  C_31
REMARK   12  A    between atoms: C_31  and  C_32
REMARK   13  A    between atoms: C_31  and  C_33
REMARK                            x       y       z     vdW  Elec       q    Type
REMARK                         _______ _______ _______ _____ _____    ______ ____
ROOT
ATOM      1  C   UNL     1       1.168  18.154  17.328  0.00  0.00    +0.000 C 
ATOM      2  C   UNL     1       1.462  16.903  18.120  0.00  0.00    +0.000 A 
ATOM      3  C   UNL     1       0.475  16.078  18.708  0.00  0.00    +0.000 A 
ATOM      4  C   UNL     1      -1.006  16.339  18.571  0.00  0.00    +0.000 C 
ATOM      5  C   UNL     1       0.883  14.943  19.450  0.00  0.00    +0.000 A 
ATOM      6  C   UNL     1       2.251  14.660  19.658  0.00  0.00    +0.000 A 
ATOM      7  C   UNL     1       3.235  15.426  18.998  0.00  0.00    +0.000 A 
ATOM      8  C   UNL     1       4.693  15.046  19.057  0.00  0.00    +0.000 C 
ATOM      9  C   UNL     1       2.820  16.545  18.258  0.00  0.00    +0.000 A 
ATOM     10  C   UNL     1       2.660  13.519  20.554  0.00  0.00    +0.000 C 
ATOM     11  C   UNL     1       1.477  12.934  21.297  0.00  0.00    +0.000 C 
ATOM     12  C   UNL     1       0.285  12.787  20.353  0.00  0.00    +0.000 C 
ATOM     13  O   UNL     1      -0.122  14.117  19.934  0.00  0.00    +0.000 OA
ENDROOT
BRANCH   9  14
ATOM     14  O   UNL     1       3.732  17.350  17.619  0.00  0.00    +0.000 OA
ATOM     15  H   UNL     1       4.063  16.914  16.821  0.00  0.00    +0.000 HD
ENDBRANCH   9  14
BRANCH  12  16
ATOM     16  C   UNL     1       0.570  11.965  19.067  0.00  0.00    +0.000 C 
BRANCH  16  17
ATOM     17  O   UNL     1      -0.126  10.713  19.013  0.00  0.00    +0.000 OA
BRANCH  17  18
ATOM     18  C   UNL     1       0.688   9.616  19.141  0.00  0.00    +0.000 A 
ATOM     19  C   UNL     1       0.903   8.932  20.349  0.00  0.00    +0.000 A 
ATOM     20  C   UNL     1       1.747   7.825  20.409  0.00  0.00    +0.000 A 
ATOM     21  C   UNL     1       2.399   7.364  19.267  0.00  0.00    +0.000 A 
ATOM     22  C   UNL     1       2.191   8.049  18.057  0.00  0.00    +0.000 A 
ATOM     23  C   UNL     1       1.342   9.165  17.995  0.00  0.00    +0.000 A 
BRANCH  21  24
ATOM     24  C   UNL     1       3.331   6.183  19.381  0.00  0.00    +0.000 C 
BRANCH  24  25
ATOM     25  C   UNL     1       2.729   4.786  19.191  0.00  0.00    +0.000 C 
ATOM     26  S   UNL     1       1.346   4.408  20.315  0.00  0.00    +0.000 S 
ATOM     27  C   UNL     1       2.184   3.049  21.023  0.00  0.00    +0.000 C 
ATOM     28  O   UNL     1       1.824   2.485  22.040  0.00  0.00    +0.000 OA
ATOM     29  N   UNL     1       3.287   2.749  20.301  0.00  0.00    +0.000 N 
ATOM     30  C   UNL     1       3.734   3.674  19.407  0.00  0.00    +0.000 C 
ATOM     31  O   UNL     1       4.825   3.600  18.856  0.00  0.00    +0.000 OA
ATOM     32  H   UNL     1       3.895   2.007  20.605  0.00  0.00    +0.000 HD
ENDBRANCH  24  25
ENDBRANCH  21  24
ENDBRANCH  17  18
ENDBRANCH  16  17
ENDBRANCH  12  16
BRANCH  12  33
ATOM     33  C   UNL     1      -0.875  12.056  21.098  0.00  0.00    +0.000 C 
BRANCH  33  34
ATOM     34  C   UNL     1      -1.942  12.917  21.807  0.00  0.00    +0.000 C 
ATOM     35  C   UNL     1      -3.200  13.128  20.968  0.00  0.00    +0.000 C 
ATOM     36  C   UNL     1      -2.334  12.277  23.145  0.00  0.00    +0.000 C 
ENDBRANCH  33  34
ENDBRANCH  12  33
TORSDOF 8
ENDMDL
MODEL 7
REMARK VINA RESULT:      -7.7      2.414      4.569
REMARK  Name = 
REMARK  13 active torsions:
REMARK  status: ('A' for Active; 'I' for Inactive)
REMARK    1  A    between atoms: C_1  and  C_2
REMARK    2  A    between atoms: C_3  and  C_4
REMARK    3  A    between atoms: C_7  and  C_8
REMARK    4  A    between atoms: C_9  and  O_10
REMARK    5  A    between atoms: C_13  and  C_14
REMARK    6  A    between atoms: C_13  and  C_30
REMARK    7  A    between atoms: C_14  and  O_15
REMARK    8  A    between atoms: O_15  and  C_16
REMARK    9  A    between atoms: C_19  and  C_20
REMARK   10  A    between atoms: C_20  and  C_21
REMARK   11  A    between atoms: C_30  and  C_31
REMARK   12  A    between atoms: C_31  and  C_32
REMARK   13  A    between atoms: C_31  and  C_33
REMARK                            x       y       z     vdW  Elec       q    Type
REMARK                         _______ _______ _______ _____ _____    ______ ____
ROOT
ATOM      1  C   UNL     1      -3.325  13.825  23.965  0.00  0.00    +0.000 C 
ATOM      2  C   UNL     1      -2.864  13.466  22.573  0.00  0.00    +0.000 A 
ATOM      3  C   UNL     1      -1.563  13.708  22.073  0.00  0.00    +0.000 A 
ATOM      4  C   UNL     1      -0.462  14.323  22.903  0.00  0.00    +0.000 C 
ATOM      5  C   UNL     1      -1.264  13.346  20.737  0.00  0.00    +0.000 A 
ATOM      6  C   UNL     1      -2.255  12.807  19.887  0.00  0.00    +0.000 A 
ATOM      7  C   UNL     1      -3.525  12.480  20.408  0.00  0.00    +0.000 A 
ATOM      8  C   UNL     1      -4.546  11.744  19.577  0.00  0.00    +0.000 C 
ATOM      9  C   UNL     1      -3.809  12.835  21.736  0.00  0.00    +0.000 A 
ATOM     10  C   UNL     1      -1.946  12.546  18.435  0.00  0.00    +0.000 C 
ATOM     11  C   UNL     1      -0.602  13.117  18.033  0.00  0.00    +0.000 C 
ATOM     12  C   UNL     1       0.439  12.818  19.112  0.00  0.00    +0.000 C 
ATOM     13  O   UNL     1       0.048  13.523  20.320  0.00  0.00    +0.000 OA
ENDROOT
BRANCH   9  14
ATOM     14  O   UNL     1      -5.039  12.574  22.291  0.00  0.00    +0.000 OA
ATOM     15  H   UNL     1      -5.532  13.398  22.416  0.00  0.00    +0.000 HD
ENDBRANCH   9  14
BRANCH  12  16
ATOM     16  C   UNL     1       0.583  11.316  19.478  0.00  0.00    +0.000 C 
BRANCH  16  17
ATOM     17  O   UNL     1       1.013  10.491  18.388  0.00  0.00    +0.000 OA
BRANCH  17  18
ATOM     18  C   UNL     1       1.505   9.270  18.773  0.00  0.00    +0.000 A 
ATOM     19  C   UNL     1       1.353   8.730  20.061  0.00  0.00    +0.000 A 
ATOM     20  C   UNL     1       1.882   7.483  20.385  0.00  0.00    +0.000 A 
ATOM     21  C   UNL     1       2.577   6.735  19.436  0.00  0.00    +0.000 A 
ATOM     22  C   UNL     1       2.737   7.275  18.148  0.00  0.00    +0.000 A 
ATOM     23  C   UNL     1       2.205   8.532  17.820  0.00  0.00    +0.000 A 
BRANCH  21  24
ATOM     24  C   UNL     1       3.165   5.405  19.837  0.00  0.00    +0.000 C 
BRANCH  24  25
ATOM     25  C   UNL     1       3.099   4.266  18.813  0.00  0.00    +0.000 C 
ATOM     26  S   UNL     1       1.485   4.095  17.986  0.00  0.00    +0.000 S 
ATOM     27  C   UNL     1       1.259   2.468  18.581  0.00  0.00    +0.000 C 
ATOM     28  O   UNL     1       0.202   1.867  18.526  0.00  0.00    +0.000 OA
ATOM     29  N   UNL     1       2.405   2.005  19.129  0.00  0.00    +0.000 N 
ATOM     30  C   UNL     1       3.382   2.907  19.420  0.00  0.00    +0.000 C 
ATOM     31  O   UNL     1       4.363   2.634  20.099  0.00  0.00    +0.000 OA
ATOM     32  H   UNL     1       2.422   1.089  19.547  0.00  0.00    +0.000 HD
ENDBRANCH  24  25
ENDBRANCH  21  24
ENDBRANCH  17  18
ENDBRANCH  16  17
ENDBRANCH  12  16
BRANCH  12  33
ATOM     33  C   UNL     1       1.842  13.290  18.617  0.00  0.00    +0.000 C 
BRANCH  33  34
ATOM     34  C   UNL     1       2.395  14.624  19.162  0.00  0.00    +0.000 C 
ATOM     35  C   UNL     1       3.497  14.439  20.203  0.00  0.00    +0.000 C 
ATOM     36  C   UNL     1       2.933  15.482  18.011  0.00  0.00    +0.000 C 
ENDBRANCH  33  34
ENDBRANCH  12  33
TORSDOF 8
ENDMDL
MODEL 8
REMARK VINA RESULT:      -7.6      2.116      2.522
REMARK  Name = 
REMARK  13 active torsions:
REMARK  status: ('A' for Active; 'I' for Inactive)
REMARK    1  A    between atoms: C_1  and  C_2
REMARK    2  A    between atoms: C_3  and  C_4
REMARK    3  A    between atoms: C_7  and  C_8
REMARK    4  A    between atoms: C_9  and  O_10
REMARK    5  A    between atoms: C_13  and  C_14
REMARK    6  A    between atoms: C_13  and  C_30
REMARK    7  A    between atoms: C_14  and  O_15
REMARK    8  A    between atoms: O_15  and  C_16
REMARK    9  A    between atoms: C_19  and  C_20
REMARK   10  A    between atoms: C_20  and  C_21
REMARK   11  A    between atoms: C_30  and  C_31
REMARK   12  A    between atoms: C_31  and  C_32
REMARK   13  A    between atoms: C_31  and  C_33
REMARK                            x       y       z     vdW  Elec       q    Type
REMARK                         _______ _______ _______ _____ _____    ______ ____
ROOT
ATOM      1  C   UNL     1       0.491  15.964  23.161  0.00  0.00    +0.000 C 
ATOM      2  C   UNL     1      -0.469  14.988  22.524  0.00  0.00    +0.000 A 
ATOM      3  C   UNL     1      -0.389  14.547  21.183  0.00  0.00    +0.000 A 
ATOM      4  C   UNL     1       0.706  14.979  20.237  0.00  0.00    +0.000 C 
ATOM      5  C   UNL     1      -1.368  13.647  20.698  0.00  0.00    +0.000 A 
ATOM      6  C   UNL     1      -2.447  13.233  21.511  0.00  0.00    +0.000 A 
ATOM      7  C   UNL     1      -2.478  13.597  22.874  0.00  0.00    +0.000 A 
ATOM      8  C   UNL     1      -3.516  13.032  23.811  0.00  0.00    +0.000 C 
ATOM      9  C   UNL     1      -1.498  14.483  23.347  0.00  0.00    +0.000 A 
ATOM     10  C   UNL     1      -3.543  12.374  20.934  0.00  0.00    +0.000 C 
ATOM     11  C   UNL     1      -3.419  12.236  19.431  0.00  0.00    +0.000 C 
ATOM     12  C   UNL     1      -1.961  11.993  19.044  0.00  0.00    +0.000 C 
ATOM     13  O   UNL     1      -1.198  13.175  19.403  0.00  0.00    +0.000 OA
ENDROOT
BRANCH   9  14
ATOM     14  O   UNL     1      -1.495  14.902  24.657  0.00  0.00    +0.000 OA
ATOM     15  H   UNL     1      -2.302  15.399  24.852  0.00  0.00    +0.000 HD
ENDBRANCH   9  14
BRANCH  12  16
ATOM     16  C   UNL     1      -1.295  10.781  19.749  0.00  0.00    +0.000 C 
BRANCH  16  17
ATOM     17  O   UNL     1       0.126  10.903  19.894  0.00  0.00    +0.000 OA
BRANCH  17  18
ATOM     18  C   UNL     1       0.824   9.791  19.499  0.00  0.00    +0.000 A 
ATOM     19  C   UNL     1       1.171   9.510  18.167  0.00  0.00    +0.000 A 
ATOM     20  C   UNL     1       1.880   8.358  17.835  0.00  0.00    +0.000 A 
ATOM     21  C   UNL     1       2.269   7.451  18.821  0.00  0.00    +0.000 A 
ATOM     22  C   UNL     1       1.919   7.725  20.155  0.00  0.00    +0.000 A 
ATOM     23  C   UNL     1       1.203   8.886  20.490  0.00  0.00    +0.000 A 
BRANCH  21  24
ATOM     24  C   UNL     1       3.005   6.198  18.417  0.00  0.00    +0.000 C 
BRANCH  24  25
ATOM     25  C   UNL     1       3.241   5.137  19.498  0.00  0.00    +0.000 C 
ATOM     26  S   UNL     1       4.658   4.038  19.172  0.00  0.00    +0.000 S 
ATOM     27  C   UNL     1       3.652   2.610  19.156  0.00  0.00    +0.000 C 
ATOM     28  O   UNL     1       4.026   1.523  18.757  0.00  0.00    +0.000 OA
ATOM     29  N   UNL     1       2.413   2.902  19.612  0.00  0.00    +0.000 N 
ATOM     30  C   UNL     1       2.056   4.214  19.691  0.00  0.00    +0.000 C 
ATOM     31  O   UNL     1       0.906   4.583  19.890  0.00  0.00    +0.000 OA
ATOM     32  H   UNL     1       1.708   2.185  19.630  0.00  0.00    +0.000 HD
ENDBRANCH  24  25
ENDBRANCH  21  24
ENDBRANCH  17  18
ENDBRANCH  16  17
ENDBRANCH  12  16
BRANCH  12  33
ATOM     33  C   UNL     1      -1.875  11.715  17.510  0.00  0.00    +0.000 C 
BRANCH  33  34
ATOM     34  C   UNL     1      -3.016  10.910  16.852  0.00  0.00    +0.000 C 
ATOM     35  C   UNL     1      -2.842  10.742  15.344  0.00  0.00    +0.000 C 
ATOM     36  C   UNL     1      -3.126   9.524  17.500  0.00  0.00    +0.000 C 
ENDBRANCH  33  34
ENDBRANCH  12  33
TORSDOF 8
ENDMDL
MODEL 9
REMARK VINA RESULT:      -7.6      2.083      5.226
REMARK  Name = 
REMARK  13 active torsions:
REMARK  status: ('A' for Active; 'I' for Inactive)
REMARK    1  A    between atoms: C_1  and  C_2
REMARK    2  A    between atoms: C_3  and  C_4
REMARK    3  A    between atoms: C_7  and  C_8
REMARK    4  A    between atoms: C_9  and  O_10
REMARK    5  A    between atoms: C_13  and  C_14
REMARK    6  A    between atoms: C_13  and  C_30
REMARK    7  A    between atoms: C_14  and  O_15
REMARK    8  A    between atoms: O_15  and  C_16
REMARK    9  A    between atoms: C_19  and  C_20
REMARK   10  A    between atoms: C_20  and  C_21
REMARK   11  A    between atoms: C_30  and  C_31
REMARK   12  A    between atoms: C_31  and  C_32
REMARK   13  A    between atoms: C_31  and  C_33
REMARK                            x       y       z     vdW  Elec       q    Type
REMARK                         _______ _______ _______ _____ _____    ______ ____
ROOT
ATOM      1  C   UNL     1      -6.603  11.604  19.142  0.00  0.00    +0.000 C 
ATOM      2  C   UNL     1      -5.118  11.803  18.962  0.00  0.00    +0.000 A 
ATOM      3  C   UNL     1      -4.251  12.307  19.959  0.00  0.00    +0.000 A 
ATOM      4  C   UNL     1      -4.715  12.666  21.350  0.00  0.00    +0.000 C 
ATOM      5  C   UNL     1      -2.878  12.471  19.655  0.00  0.00    +0.000 A 
ATOM      6  C   UNL     1      -2.379  12.197  18.362  0.00  0.00    +0.000 A 
ATOM      7  C   UNL     1      -3.220  11.609  17.394  0.00  0.00    +0.000 A 
ATOM      8  C   UNL     1      -2.679  11.144  16.066  0.00  0.00    +0.000 C 
ATOM      9  C   UNL     1      -4.578  11.443  17.708  0.00  0.00    +0.000 A 
ATOM     10  C   UNL     1      -0.940  12.497  18.028  0.00  0.00    +0.000 C 
ATOM     11  C   UNL     1      -0.254  13.274  19.132  0.00  0.00    +0.000 C 
ATOM     12  C   UNL     1      -0.626  12.690  20.494  0.00  0.00    +0.000 C 
ATOM     13  O   UNL     1      -2.052  12.884  20.692  0.00  0.00    +0.000 OA
ENDROOT
BRANCH   9  14
ATOM     14  O   UNL     1      -5.456  10.907  16.796  0.00  0.00    +0.000 OA
ATOM     15  H   UNL     1      -6.304  11.373  16.834  0.00  0.00    +0.000 HD
ENDBRANCH   9  14
BRANCH  12  16
ATOM     16  C   UNL     1      -0.340  11.172  20.651  0.00  0.00    +0.000 C 
BRANCH  16  17
ATOM     17  O   UNL     1       1.020  10.807  20.387  0.00  0.00    +0.000 OA
BRANCH  17  18
ATOM     18  C   UNL     1       1.238   9.454  20.352  0.00  0.00    +0.000 A 
ATOM     19  C   UNL     1       0.985   8.587  21.427  0.00  0.00    +0.000 A 
ATOM     20  C   UNL     1       1.232   7.220  21.323  0.00  0.00    +0.000 A 
ATOM     21  C   UNL     1       1.736   6.674  20.143  0.00  0.00    +0.000 A 
ATOM     22  C   UNL     1       1.996   7.540  19.066  0.00  0.00    +0.000 A 
ATOM     23  C   UNL     1       1.748   8.918  19.170  0.00  0.00    +0.000 A 
BRANCH  21  24
ATOM     24  C   UNL     1       2.023   5.195  20.082  0.00  0.00    +0.000 C 
BRANCH  24  25
ATOM     25  C   UNL     1       2.727   4.662  18.829  0.00  0.00    +0.000 C 
ATOM     26  S   UNL     1       2.071   3.075  18.219  0.00  0.00    +0.000 S 
ATOM     27  C   UNL     1       3.607   2.268  18.420  0.00  0.00    +0.000 C 
ATOM     28  O   UNL     1       3.751   1.061  18.366  0.00  0.00    +0.000 OA
ATOM     29  N   UNL     1       4.582   3.171  18.671  0.00  0.00    +0.000 N 
ATOM     30  C   UNL     1       4.208   4.428  19.036  0.00  0.00    +0.000 C 
ATOM     31  O   UNL     1       4.992   5.256  19.482  0.00  0.00    +0.000 OA
ATOM     32  H   UNL     1       5.522   2.853  18.844  0.00  0.00    +0.000 HD
ENDBRANCH  24  25
ENDBRANCH  21  24
ENDBRANCH  17  18
ENDBRANCH  16  17
ENDBRANCH  12  16
BRANCH  12  33
ATOM     33  C   UNL     1       0.196  13.413  21.606  0.00  0.00    +0.000 C 
BRANCH  33  34
ATOM     34  C   UNL     1       0.454  14.927  21.452  0.00  0.00    +0.000 C 
ATOM     35  C   UNL     1      -0.537  15.790  22.230  0.00  0.00    +0.000 C 
ATOM     36  C   UNL     1       1.879  15.269  21.908  0.00  0.00    +0.000 C 
ENDBRANCH  33  34
ENDBRANCH  12  33
TORSDOF 8
ENDMDL
