MODEL 1
REMARK VINA RESULT:      -7.4      0.000      0.000
REMARK  Name = 
REMARK  7 active torsions:
REMARK  status: ('A' for Active; 'I' for Inactive)
REMARK    1  A    between atoms: C_6  and  O_7
REMARK    2  A    between atoms: O_7  and  C_8
REMARK    3  A    between atoms: C_8  and  C_9
REMARK    4  A    between atoms: C_9  and  C_10
REMARK    5  A    between atoms: C_10  and  C_11
REMARK    6  A    between atoms: C_11  and  S_12
REMARK    7  A    between atoms: S_12  and  C_13
REMARK                            x       y       z     vdW  Elec       q    Type
REMARK                         _______ _______ _______ _____ _____    ______ ____
ROOT
ATOM      1  O   UNL     1       2.057   1.966  22.055  0.00  0.00    +0.000 OA
ATOM      2  C   UNL     1       2.294   2.845  21.238  0.00  0.00    +0.000 A 
ATOM      3  C   UNL     1       1.328   3.910  20.968  0.00  0.00    +0.000 A 
ATOM      4  C   UNL     1       1.562   4.870  20.074  0.00  0.00    +0.000 A 
ATOM      5  C   UNL     1       2.794   4.953  19.274  0.00  0.00    +0.000 A 
ATOM      6  C   UNL     1       3.136   5.937  18.286  0.00  0.00    +0.000 A 
ATOM      7  C   UNL     1       4.415   5.816  17.667  0.00  0.00    +0.000 A 
ATOM      8  C   UNL     1       5.138   6.554  16.678  0.00  0.00    +0.000 A 
ATOM      9  C   UNL     1       6.351   5.926  16.510  0.00  0.00    +0.000 A 
ATOM     10  O   UNL     1       6.435   4.843  17.320  0.00  0.00    +0.000 OA
ATOM     11  C   UNL     1       5.270   4.777  18.019  0.00  0.00    +0.000 A 
ATOM     12  C   UNL     1       4.975   3.805  18.952  0.00  0.00    +0.000 A 
ATOM     13  C   UNL     1       3.727   3.930  19.559  0.00  0.00    +0.000 A 
ATOM     14  O   UNL     1       3.467   2.911  20.516  0.00  0.00    +0.000 OA
ENDROOT
BRANCH   6  15
ATOM     15  O   UNL     1       2.401   7.009  17.825  0.00  0.00    +0.000 OA
BRANCH  15  16
ATOM     16  C   UNL     1       2.241   8.137  18.665  0.00  0.00    +0.000 C 
BRANCH  16  17
ATOM     17  C   UNL     1       1.937   9.440  17.929  0.00  0.00    +0.000 C 
BRANCH  17  18
ATOM     18  C   UNL     1       0.430   9.470  17.614  0.00  0.00    +0.000 C 
BRANCH  18  19
ATOM     19  C   UNL     1      -0.312  10.596  18.329  0.00  0.00    +0.000 C 
BRANCH  19  20
ATOM     20  S   UNL     1       0.863  11.454  19.430  0.00  0.00    +0.000 S 
BRANCH  20  21
ATOM     21  C   UNL     1       0.369  10.807  21.007  0.00  0.00    +0.000 A 
ATOM     22  N   UNL     1       1.091   9.777  21.479  0.00  0.00    +0.000 NA
ATOM     23  C   UNL     1       0.739   9.295  22.684  0.00  0.00    +0.000 A 
ATOM     24  C   UNL     1      -0.296   9.805  23.430  0.00  0.00    +0.000 A 
ATOM     25  C   UNL     1      -0.965  10.864  22.861  0.00  0.00    +0.000 A 
ATOM     26  N   UNL     1      -0.659  11.382  21.656  0.00  0.00    +0.000 NA
ENDBRANCH  20  21
ENDBRANCH  19  20
ENDBRANCH  18  19
ENDBRANCH  17  18
ENDBRANCH  16  17
ENDBRANCH  15  16
ENDBRANCH   6  15
TORSDOF 7
ENDMDL
MODEL 2
REMARK VINA RESULT:      -7.3      1.059      1.090
REMARK  Name = 
REMARK  7 active torsions:
REMARK  status: ('A' for Active; 'I' for Inactive)
REMARK    1  A    between atoms: C_6  and  O_7
REMARK    2  A    between atoms: O_7  and  C_8
REMARK    3  A    between atoms: C_8  and  C_9
REMARK    4  A    between atoms: C_9  and  C_10
REMARK    5  A    between atoms: C_10  and  C_11
REMARK    6  A    between atoms: C_11  and  S_12
REMARK    7  A    between atoms: S_12  and  C_13
REMARK                            x       y       z     vdW  Elec       q    Type
REMARK                         _______ _______ _______ _____ _____    ______ ____
ROOT
ATOM      1  O   UNL     1       1.715   2.399  21.742  0.00  0.00    +0.000 OA
ATOM      2  C   UNL     1       2.190   3.212  20.961  0.00  0.00    +0.000 A 
ATOM      3  C   UNL     1       2.071   4.651  21.199  0.00  0.00    +0.000 A 
ATOM      4  C   UNL     1       2.571   5.553  20.355  0.00  0.00    +0.000 A 
ATOM      5  C   UNL     1       3.280   5.201  19.114  0.00  0.00    +0.000 A 
ATOM      6  C   UNL     1       3.846   6.093  18.141  0.00  0.00    +0.000 A 
ATOM      7  C   UNL     1       4.515   5.499  17.030  0.00  0.00    +0.000 A 
ATOM      8  C   UNL     1       5.204   5.993  15.879  0.00  0.00    +0.000 A 
ATOM      9  C   UNL     1       5.644   4.898  15.170  0.00  0.00    +0.000 A 
ATOM     10  O   UNL     1       5.273   3.755  15.795  0.00  0.00    +0.000 OA
ATOM     11  C   UNL     1       4.594   4.115  16.916  0.00  0.00    +0.000 A 
ATOM     12  C   UNL     1       4.054   3.224  17.821  0.00  0.00    +0.000 A 
ATOM     13  C   UNL     1       3.406   3.808  18.908  0.00  0.00    +0.000 A 
ATOM     14  O   UNL     1       2.868   2.854  19.815  0.00  0.00    +0.000 OA
ENDROOT
BRANCH   6  15
ATOM     15  O   UNL     1       3.840   7.471  18.108  0.00  0.00    +0.000 OA
BRANCH  15  16
ATOM     16  C   UNL     1       2.801   8.131  17.410  0.00  0.00    +0.000 C 
BRANCH  16  17
ATOM     17  C   UNL     1       1.500   8.278  18.197  0.00  0.00    +0.000 C 
BRANCH  17  18
ATOM     18  C   UNL     1       0.896   9.655  17.868  0.00  0.00    +0.000 C 
BRANCH  18  19
ATOM     19  C   UNL     1       1.510  10.792  18.682  0.00  0.00    +0.000 C 
BRANCH  19  20
ATOM     20  S   UNL     1       0.161  11.719  19.488  0.00  0.00    +0.000 S 
BRANCH  20  21
ATOM     21  C   UNL     1       0.045  10.854  21.033  0.00  0.00    +0.000 A 
ATOM     22  N   UNL     1       0.997   9.936  21.273  0.00  0.00    +0.000 NA
ATOM     23  C   UNL     1       0.931   9.292  22.451  0.00  0.00    +0.000 A 
ATOM     24  C   UNL     1      -0.039   9.533  23.392  0.00  0.00    +0.000 A 
ATOM     25  C   UNL     1      -0.961  10.497  23.054  0.00  0.00    +0.000 A 
ATOM     26  N   UNL     1      -0.946  11.169  21.886  0.00  0.00    +0.000 NA
ENDBRANCH  20  21
ENDBRANCH  19  20
ENDBRANCH  18  19
ENDBRANCH  17  18
ENDBRANCH  16  17
ENDBRANCH  15  16
ENDBRANCH   6  15
TORSDOF 7
ENDMDL
MODEL 3
REMARK VINA RESULT:      -7.3      2.201      4.635
REMARK  Name = 
REMARK  7 active torsions:
REMARK  status: ('A' for Active; 'I' for Inactive)
REMARK    1  A    between atoms: C_6  and  O_7
REMARK    2  A    between atoms: O_7  and  C_8
REMARK    3  A    between atoms: C_8  and  C_9
REMARK    4  A    between atoms: C_9  and  C_10
REMARK    5  A    between atoms: C_10  and  C_11
REMARK    6  A    between atoms: C_11  and  S_12
REMARK    7  A    between atoms: S_12  and  C_13
REMARK                            x       y       z     vdW  Elec       q    Type
REMARK                         _______ _______ _______ _____ _____    ______ ____
ROOT
ATOM      1  O   UNL     1       8.168   4.421  17.217  0.00  0.00    +0.000 OA
ATOM      2  C   UNL     1       7.079   4.734  17.676  0.00  0.00    +0.000 A 
ATOM      3  C   UNL     1       6.592   6.111  17.601  0.00  0.00    +0.000 A 
ATOM      4  C   UNL     1       5.413   6.475  18.105  0.00  0.00    +0.000 A 
ATOM      5  C   UNL     1       4.496   5.545  18.784  0.00  0.00    +0.000 A 
ATOM      6  C   UNL     1       3.216   5.838  19.364  0.00  0.00    +0.000 A 
ATOM      7  C   UNL     1       2.500   4.747  19.941  0.00  0.00    +0.000 A 
ATOM      8  C   UNL     1       1.237   4.593  20.592  0.00  0.00    +0.000 A 
ATOM      9  C   UNL     1       1.110   3.263  20.920  0.00  0.00    +0.000 A 
ATOM     10  O   UNL     1       2.209   2.575  20.525  0.00  0.00    +0.000 OA
ATOM     11  C   UNL     1       3.046   3.468  19.933  0.00  0.00    +0.000 A 
ATOM     12  C   UNL     1       4.277   3.146  19.398  0.00  0.00    +0.000 A 
ATOM     13  C   UNL     1       4.970   4.214  18.831  0.00  0.00    +0.000 A 
ATOM     14  O   UNL     1       6.229   3.836  18.289  0.00  0.00    +0.000 OA
ENDROOT
BRANCH   6  15
ATOM     15  O   UNL     1       2.552   7.043  19.458  0.00  0.00    +0.000 OA
BRANCH  15  16
ATOM     16  C   UNL     1       2.311   7.782  18.275  0.00  0.00    +0.000 C 
BRANCH  16  17
ATOM     17  C   UNL     1       1.752   9.185  18.505  0.00  0.00    +0.000 C 
BRANCH  17  18
ATOM     18  C   UNL     1       0.965   9.175  19.828  0.00  0.00    +0.000 C 
BRANCH  18  19
ATOM     19  C   UNL     1      -0.316  10.004  19.772  0.00  0.00    +0.000 C 
BRANCH  19  20
ATOM     20  S   UNL     1      -0.264  11.048  18.276  0.00  0.00    +0.000 S 
BRANCH  20  21
ATOM     21  C   UNL     1      -1.998  11.282  17.979  0.00  0.00    +0.000 A 
ATOM     22  N   UNL     1      -2.434  10.985  16.742  0.00  0.00    +0.000 NA
ATOM     23  C   UNL     1      -3.750  11.137  16.514  0.00  0.00    +0.000 A 
ATOM     24  C   UNL     1      -4.639  11.566  17.469  0.00  0.00    +0.000 A 
ATOM     25  C   UNL     1      -4.094  11.834  18.703  0.00  0.00    +0.000 A 
ATOM     26  N   UNL     1      -2.782  11.705  18.985  0.00  0.00    +0.000 NA
ENDBRANCH  20  21
ENDBRANCH  19  20
ENDBRANCH  18  19
ENDBRANCH  17  18
ENDBRANCH  16  17
ENDBRANCH  15  16
ENDBRANCH   6  15
TORSDOF 7
ENDMDL
MODEL 4
REMARK VINA RESULT:      -7.2      1.283      1.702
REMARK  Name = 
REMARK  7 active torsions:
REMARK  status: ('A' for Active; 'I' for Inactive)
REMARK    1  A    between atoms: C_6  and  O_7
REMARK    2  A    between atoms: O_7  and  C_8
REMARK    3  A    between atoms: C_8  and  C_9
REMARK    4  A    between atoms: C_9  and  C_10
REMARK    5  A    between atoms: C_10  and  C_11
REMARK    6  A    between atoms: C_11  and  S_12
REMARK    7  A    between atoms: S_12  and  C_13
REMARK                            x       y       z     vdW  Elec       q    Type
REMARK                         _______ _______ _______ _____ _____    ______ ____
ROOT
ATOM      1  O   UNL     1       1.652   2.290  21.426  0.00  0.00    +0.000 OA
ATOM      2  C   UNL     1       2.070   3.180  20.700  0.00  0.00    +0.000 A 
ATOM      3  C   UNL     1       1.721   4.581  20.940  0.00  0.00    +0.000 A 
ATOM      4  C   UNL     1       2.157   5.565  20.154  0.00  0.00    +0.000 A 
ATOM      5  C   UNL     1       3.016   5.348  18.979  0.00  0.00    +0.000 A 
ATOM      6  C   UNL     1       3.529   6.334  18.071  0.00  0.00    +0.000 A 
ATOM      7  C   UNL     1       4.374   5.870  17.019  0.00  0.00    +0.000 A 
ATOM      8  C   UNL     1       5.082   6.484  15.940  0.00  0.00    +0.000 A 
ATOM      9  C   UNL     1       5.738   5.482  15.263  0.00  0.00    +0.000 A 
ATOM     10  O   UNL     1       5.485   4.282  15.841  0.00  0.00    +0.000 OA
ATOM     11  C   UNL     1       4.664   4.515  16.899  0.00  0.00    +0.000 A 
ATOM     12  C   UNL     1       4.182   3.534  17.742  0.00  0.00    +0.000 A 
ATOM     13  C   UNL     1       3.362   3.993  18.772  0.00  0.00    +0.000 A 
ATOM     14  O   UNL     1       2.892   2.951  19.617  0.00  0.00    +0.000 OA
ENDROOT
BRANCH   6  15
ATOM     15  O   UNL     1       3.325   7.698  18.051  0.00  0.00    +0.000 OA
BRANCH  15  16
ATOM     16  C   UNL     1       2.011   8.187  17.856  0.00  0.00    +0.000 C 
BRANCH  16  17
ATOM     17  C   UNL     1       1.904   9.708  17.775  0.00  0.00    +0.000 C 
BRANCH  17  18
ATOM     18  C   UNL     1       1.125  10.199  19.008  0.00  0.00    +0.000 C 
BRANCH  18  19
ATOM     19  C   UNL     1       0.820  11.694  18.971  0.00  0.00    +0.000 C 
BRANCH  19  20
ATOM     20  S   UNL     1       1.375  12.436  20.544  0.00  0.00    +0.000 S 
BRANCH  20  21
ATOM     21  C   UNL     1      -0.071  12.202  21.546  0.00  0.00    +0.000 A 
ATOM     22  N   UNL     1      -1.104  13.027  21.301  0.00  0.00    +0.000 NA
ATOM     23  C   UNL     1      -2.212  12.841  22.040  0.00  0.00    +0.000 A 
ATOM     24  C   UNL     1      -2.326  11.867  23.001  0.00  0.00    +0.000 A 
ATOM     25  C   UNL     1      -1.217  11.070  23.167  0.00  0.00    +0.000 A 
ATOM     26  N   UNL     1      -0.079  11.215  22.459  0.00  0.00    +0.000 NA
ENDBRANCH  20  21
ENDBRANCH  19  20
ENDBRANCH  18  19
ENDBRANCH  17  18
ENDBRANCH  16  17
ENDBRANCH  15  16
ENDBRANCH   6  15
TORSDOF 7
ENDMDL
MODEL 5
REMARK VINA RESULT:      -7.2      2.181      3.240
REMARK  Name = 
REMARK  7 active torsions:
REMARK  status: ('A' for Active; 'I' for Inactive)
REMARK    1  A    between atoms: C_6  and  O_7
REMARK    2  A    between atoms: O_7  and  C_8
REMARK    3  A    between atoms: C_8  and  C_9
REMARK    4  A    between atoms: C_9  and  C_10
REMARK    5  A    between atoms: C_10  and  C_11
REMARK    6  A    between atoms: C_11  and  S_12
REMARK    7  A    between atoms: S_12  and  C_13
REMARK                            x       y       z     vdW  Elec       q    Type
REMARK                         _______ _______ _______ _____ _____    ______ ____
ROOT
ATOM      1  O   UNL     1       1.806   2.661  21.939  0.00  0.00    +0.000 OA
ATOM      2  C   UNL     1       2.202   3.420  21.066  0.00  0.00    +0.000 A 
ATOM      3  C   UNL     1       1.816   4.831  21.055  0.00  0.00    +0.000 A 
ATOM      4  C   UNL     1       2.228   5.672  20.106  0.00  0.00    +0.000 A 
ATOM      5  C   UNL     1       3.094   5.271  18.985  0.00  0.00    +0.000 A 
ATOM      6  C   UNL     1       3.584   6.094  17.915  0.00  0.00    +0.000 A 
ATOM      7  C   UNL     1       4.441   5.473  16.960  0.00  0.00    +0.000 A 
ATOM      8  C   UNL     1       5.136   5.904  15.787  0.00  0.00    +0.000 A 
ATOM      9  C   UNL     1       5.819   4.814  15.296  0.00  0.00    +0.000 A 
ATOM     10  O   UNL     1       5.595   3.730  16.077  0.00  0.00    +0.000 OA
ATOM     11  C   UNL     1       4.767   4.125  17.081  0.00  0.00    +0.000 A 
ATOM     12  C   UNL     1       4.309   3.298  18.085  0.00  0.00    +0.000 A 
ATOM     13  C   UNL     1       3.476   3.911  19.020  0.00  0.00    +0.000 A 
ATOM     14  O   UNL     1       3.031   3.023  20.037  0.00  0.00    +0.000 OA
ENDROOT
BRANCH   6  15
ATOM     15  O   UNL     1       3.345   7.427  17.654  0.00  0.00    +0.000 OA
BRANCH  15  16
ATOM     16  C   UNL     1       2.503   8.152  18.532  0.00  0.00    +0.000 C 
BRANCH  16  17
ATOM     17  C   UNL     1       1.375   8.918  17.842  0.00  0.00    +0.000 C 
BRANCH  17  18
ATOM     18  C   UNL     1       1.078  10.180  18.672  0.00  0.00    +0.000 C 
BRANCH  18  19
ATOM     19  C   UNL     1      -0.262  10.119  19.401  0.00  0.00    +0.000 C 
BRANCH  19  20
ATOM     20  S   UNL     1      -1.014  11.781  19.365  0.00  0.00    +0.000 S 
BRANCH  20  21
ATOM     21  C   UNL     1      -2.334  11.519  18.209  0.00  0.00    +0.000 A 
ATOM     22  N   UNL     1      -3.573  11.805  18.646  0.00  0.00    +0.000 NA
ATOM     23  C   UNL     1      -4.577  11.632  17.769  0.00  0.00    +0.000 A 
ATOM     24  C   UNL     1      -4.390  11.193  16.480  0.00  0.00    +0.000 A 
ATOM     25  C   UNL     1      -3.084  10.938  16.130  0.00  0.00    +0.000 A 
ATOM     26  N   UNL     1      -2.041  11.088  16.969  0.00  0.00    +0.000 NA
ENDBRANCH  20  21
ENDBRANCH  19  20
ENDBRANCH  18  19
ENDBRANCH  17  18
ENDBRANCH  16  17
ENDBRANCH  15  16
ENDBRANCH   6  15
TORSDOF 7
ENDMDL
MODEL 6
REMARK VINA RESULT:      -7.2      1.765      4.267
REMARK  Name = 
REMARK  7 active torsions:
REMARK  status: ('A' for Active; 'I' for Inactive)
REMARK    1  A    between atoms: C_6  and  O_7
REMARK    2  A    between atoms: O_7  and  C_8
REMARK    3  A    between atoms: C_8  and  C_9
REMARK    4  A    between atoms: C_9  and  C_10
REMARK    5  A    between atoms: C_10  and  C_11
REMARK    6  A    between atoms: C_11  and  S_12
REMARK    7  A    between atoms: S_12  and  C_13
REMARK                            x       y       z     vdW  Elec       q    Type
REMARK                         _______ _______ _______ _____ _____    ______ ____
ROOT
ATOM      1  O   UNL     1       6.574   4.067  14.734  0.00  0.00    +0.000 OA
ATOM      2  C   UNL     1       5.820   4.449  15.618  0.00  0.00    +0.000 A 
ATOM      3  C   UNL     1       5.635   5.873  15.895  0.00  0.00    +0.000 A 
ATOM      4  C   UNL     1       4.826   6.310  16.860  0.00  0.00    +0.000 A 
ATOM      5  C   UNL     1       4.052   5.417  17.737  0.00  0.00    +0.000 A 
ATOM      6  C   UNL     1       3.164   5.785  18.804  0.00  0.00    +0.000 A 
ATOM      7  C   UNL     1       2.502   4.725  19.491  0.00  0.00    +0.000 A 
ATOM      8  C   UNL     1       1.563   4.643  20.566  0.00  0.00    +0.000 A 
ATOM      9  C   UNL     1       1.293   3.309  20.767  0.00  0.00    +0.000 A 
ATOM     10  O   UNL     1       2.002   2.550  19.897  0.00  0.00    +0.000 OA
ATOM     11  C   UNL     1       2.729   3.402  19.126  0.00  0.00    +0.000 A 
ATOM     12  C   UNL     1       3.582   3.005  18.117  0.00  0.00    +0.000 A 
ATOM     13  C   UNL     1       4.223   4.044  17.445  0.00  0.00    +0.000 A 
ATOM     14  O   UNL     1       5.089   3.590  16.412  0.00  0.00    +0.000 OA
ENDROOT
BRANCH   6  15
ATOM     15  O   UNL     1       2.846   7.037  19.286  0.00  0.00    +0.000 OA
BRANCH  15  16
ATOM     16  C   UNL     1       2.001   7.869  18.513  0.00  0.00    +0.000 C 
BRANCH  16  17
ATOM     17  C   UNL     1       1.425   9.066  19.268  0.00  0.00    +0.000 C 
BRANCH  17  18
ATOM     18  C   UNL     1       1.409   8.723  20.768  0.00  0.00    +0.000 C 
BRANCH  18  19
ATOM     19  C   UNL     1       0.000   8.609  21.345  0.00  0.00    +0.000 C 
BRANCH  19  20
ATOM     20  S   UNL     1      -0.065   9.559  22.901  0.00  0.00    +0.000 S 
BRANCH  20  21
ATOM     21  C   UNL     1      -1.097  10.918  22.413  0.00  0.00    +0.000 A 
ATOM     22  N   UNL     1      -1.948  11.383  23.345  0.00  0.00    +0.000 NA
ATOM     23  C   UNL     1      -2.717  12.428  22.992  0.00  0.00    +0.000 A 
ATOM     24  C   UNL     1      -2.663  13.023  21.755  0.00  0.00    +0.000 A 
ATOM     25  C   UNL     1      -1.754  12.479  20.879  0.00  0.00    +0.000 A 
ATOM     26  N   UNL     1      -0.963  11.430  21.177  0.00  0.00    +0.000 NA
ENDBRANCH  20  21
ENDBRANCH  19  20
ENDBRANCH  18  19
ENDBRANCH  17  18
ENDBRANCH  16  17
ENDBRANCH  15  16
ENDBRANCH   6  15
TORSDOF 7
ENDMDL
MODEL 7
REMARK VINA RESULT:      -7.2      1.110      1.660
REMARK  Name = 
REMARK  7 active torsions:
REMARK  status: ('A' for Active; 'I' for Inactive)
REMARK    1  A    between atoms: C_6  and  O_7
REMARK    2  A    between atoms: O_7  and  C_8
REMARK    3  A    between atoms: C_8  and  C_9
REMARK    4  A    between atoms: C_9  and  C_10
REMARK    5  A    between atoms: C_10  and  C_11
REMARK    6  A    between atoms: C_11  and  S_12
REMARK    7  A    between atoms: S_12  and  C_13
REMARK                            x       y       z     vdW  Elec       q    Type
REMARK                         _______ _______ _______ _____ _____    ______ ____
ROOT
ATOM      1  O   UNL     1       2.504   2.192  22.194  0.00  0.00    +0.000 OA
ATOM      2  C   UNL     1       2.642   3.024  21.308  0.00  0.00    +0.000 A 
ATOM      3  C   UNL     1       1.678   4.110  21.132  0.00  0.00    +0.000 A 
ATOM      4  C   UNL     1       1.804   5.020  20.166  0.00  0.00    +0.000 A 
ATOM      5  C   UNL     1       2.905   5.022  19.189  0.00  0.00    +0.000 A 
ATOM      6  C   UNL     1       3.124   5.947  18.113  0.00  0.00    +0.000 A 
ATOM      7  C   UNL     1       4.292   5.752  17.318  0.00  0.00    +0.000 A 
ATOM      8  C   UNL     1       4.880   6.417  16.197  0.00  0.00    +0.000 A 
ATOM      9  C   UNL     1       6.035   5.738  15.883  0.00  0.00    +0.000 A 
ATOM     10  O   UNL     1       6.207   4.690  16.725  0.00  0.00    +0.000 OA
ATOM     11  C   UNL     1       5.159   4.699  17.591  0.00  0.00    +0.000 A 
ATOM     12  C   UNL     1       4.978   3.781  18.605  0.00  0.00    +0.000 A 
ATOM     13  C   UNL     1       3.839   3.979  19.383  0.00  0.00    +0.000 A 
ATOM     14  O   UNL     1       3.696   3.014  20.418  0.00  0.00    +0.000 OA
ENDROOT
BRANCH   6  15
ATOM     15  O   UNL     1       2.360   7.023  17.713  0.00  0.00    +0.000 OA
BRANCH  15  16
ATOM     16  C   UNL     1       2.331   8.179  18.529  0.00  0.00    +0.000 C 
BRANCH  16  17
ATOM     17  C   UNL     1       1.848   9.444  17.823  0.00  0.00    +0.000 C 
BRANCH  17  18
ATOM     18  C   UNL     1       0.569   9.927  18.529  0.00  0.00    +0.000 C 
BRANCH  18  19
ATOM     19  C   UNL     1       0.643  11.384  18.980  0.00  0.00    +0.000 C 
BRANCH  19  20
ATOM     20  S   UNL     1      -1.033  12.099  18.901  0.00  0.00    +0.000 S 
BRANCH  20  21
ATOM     21  C   UNL     1      -1.504  12.021  20.611  0.00  0.00    +0.000 A 
ATOM     22  N   UNL     1      -2.633  12.669  20.946  0.00  0.00    +0.000 NA
ATOM     23  C   UNL     1      -3.011  12.596  22.234  0.00  0.00    +0.000 A 
ATOM     24  C   UNL     1      -2.311  11.901  23.190  0.00  0.00    +0.000 A 
ATOM     25  C   UNL     1      -1.176  11.266  22.742  0.00  0.00    +0.000 A 
ATOM     26  N   UNL     1      -0.748  11.311  21.465  0.00  0.00    +0.000 NA
ENDBRANCH  20  21
ENDBRANCH  19  20
ENDBRANCH  18  19
ENDBRANCH  17  18
ENDBRANCH  16  17
ENDBRANCH  15  16
ENDBRANCH   6  15
TORSDOF 7
ENDMDL
MODEL 8
REMARK VINA RESULT:      -7.1      0.969      1.326
REMARK  Name = 
REMARK  7 active torsions:
REMARK  status: ('A' for Active; 'I' for Inactive)
REMARK    1  A    between atoms: C_6  and  O_7
REMARK    2  A    between atoms: O_7  and  C_8
REMARK    3  A    between atoms: C_8  and  C_9
REMARK    4  A    between atoms: C_9  and  C_10
REMARK    5  A    between atoms: C_10  and  C_11
REMARK    6  A    between atoms: C_11  and  S_12
REMARK    7  A    between atoms: S_12  and  C_13
REMARK                            x       y       z     vdW  Elec       q    Type
REMARK                         _______ _______ _______ _____ _____    ______ ____
ROOT
ATOM      1  O   UNL     1       1.807   1.979  21.963  0.00  0.00    +0.000 OA
ATOM      2  C   UNL     1       2.241   2.821  21.189  0.00  0.00    +0.000 A 
ATOM      3  C   UNL     1       1.989   4.247  21.400  0.00  0.00    +0.000 A 
ATOM      4  C   UNL     1       2.443   5.179  20.562  0.00  0.00    +0.000 A 
ATOM      5  C   UNL     1       3.227   4.874  19.355  0.00  0.00    +0.000 A 
ATOM      6  C   UNL     1       3.752   5.800  18.391  0.00  0.00    +0.000 A 
ATOM      7  C   UNL     1       4.513   5.254  17.315  0.00  0.00    +0.000 A 
ATOM      8  C   UNL     1       5.202   5.791  16.184  0.00  0.00    +0.000 A 
ATOM      9  C   UNL     1       5.762   4.731  15.509  0.00  0.00    +0.000 A 
ATOM     10  O   UNL     1       5.466   3.567  16.136  0.00  0.00    +0.000 OA
ATOM     11  C   UNL     1       4.715   3.880  17.226  0.00  0.00    +0.000 A 
ATOM     12  C   UNL     1       4.219   2.957  18.122  0.00  0.00    +0.000 A 
ATOM     13  C   UNL     1       3.481   3.496  19.174  0.00  0.00    +0.000 A 
ATOM     14  O   UNL     1       2.992   2.509  20.075  0.00  0.00    +0.000 OA
ENDROOT
BRANCH   6  15
ATOM     15  O   UNL     1       3.630   7.173  18.337  0.00  0.00    +0.000 OA
BRANCH  15  16
ATOM     16  C   UNL     1       2.348   7.734  18.120  0.00  0.00    +0.000 C 
BRANCH  16  17
ATOM     17  C   UNL     1       2.362   9.128  17.496  0.00  0.00    +0.000 C 
BRANCH  17  18
ATOM     18  C   UNL     1       1.074   9.855  17.923  0.00  0.00    +0.000 C 
BRANCH  18  19
ATOM     19  C   UNL     1       1.338  11.103  18.763  0.00  0.00    +0.000 C 
BRANCH  19  20
ATOM     20  S   UNL     1      -0.234  11.629  19.525  0.00  0.00    +0.000 S 
BRANCH  20  21
ATOM     21  C   UNL     1      -0.159  10.755  21.068  0.00  0.00    +0.000 A 
ATOM     22  N   UNL     1      -1.016  11.159  22.022  0.00  0.00    +0.000 NA
ATOM     23  C   UNL     1      -0.983  10.488  23.186  0.00  0.00    +0.000 A 
ATOM     24  C   UNL     1      -0.136   9.434  23.429  0.00  0.00    +0.000 A 
ATOM     25  C   UNL     1       0.695   9.094  22.386  0.00  0.00    +0.000 A 
ATOM     26  N   UNL     1       0.708   9.736  21.200  0.00  0.00    +0.000 NA
ENDBRANCH  20  21
ENDBRANCH  19  20
ENDBRANCH  18  19
ENDBRANCH  17  18
ENDBRANCH  16  17
ENDBRANCH  15  16
ENDBRANCH   6  15
TORSDOF 7
ENDMDL
MODEL 9
REMARK VINA RESULT:      -7.1      1.449      1.834
REMARK  Name = 
REMARK  7 active torsions:
REMARK  status: ('A' for Active; 'I' for Inactive)
REMARK    1  A    between atoms: C_6  and  O_7
REMARK    2  A    between atoms: O_7  and  C_8
REMARK    3  A    between atoms: C_8  and  C_9
REMARK    4  A    between atoms: C_9  and  C_10
REMARK    5  A    between atoms: C_10  and  C_11
REMARK    6  A    between atoms: C_11  and  S_12
REMARK    7  A    between atoms: S_12  and  C_13
REMARK                            x       y       z     vdW  Elec       q    Type
REMARK                         _______ _______ _______ _____ _____    ______ ____
ROOT
ATOM      1  O   UNL     1       1.344   2.483  21.296  0.00  0.00    +0.000 OA
ATOM      2  C   UNL     1       1.839   3.340  20.578  0.00  0.00    +0.000 A 
ATOM      3  C   UNL     1       1.600   4.763  20.822  0.00  0.00    +0.000 A 
ATOM      4  C   UNL     1       2.122   5.713  20.047  0.00  0.00    +0.000 A 
ATOM      5  C   UNL     1       2.973   5.433  18.879  0.00  0.00    +0.000 A 
ATOM      6  C   UNL     1       3.574   6.380  17.981  0.00  0.00    +0.000 A 
ATOM      7  C   UNL     1       4.389   5.854  16.936  0.00  0.00    +0.000 A 
ATOM      8  C   UNL     1       5.156   6.414  15.868  0.00  0.00    +0.000 A 
ATOM      9  C   UNL     1       5.737   5.366  15.192  0.00  0.00    +0.000 A 
ATOM     10  O   UNL     1       5.383   4.188  15.760  0.00  0.00    +0.000 OA
ATOM     11  C   UNL     1       4.572   4.480  16.812  0.00  0.00    +0.000 A 
ATOM     12  C   UNL     1       4.004   3.538  17.644  0.00  0.00    +0.000 A 
ATOM     13  C   UNL     1       3.213   4.056  18.668  0.00  0.00    +0.000 A 
ATOM     14  O   UNL     1       2.652   3.051  19.502  0.00  0.00    +0.000 OA
ENDROOT
BRANCH   6  15
ATOM     15  O   UNL     1       3.480   7.755  17.967  0.00  0.00    +0.000 OA
BRANCH  15  16
ATOM     16  C   UNL     1       2.268   8.350  17.540  0.00  0.00    +0.000 C 
BRANCH  16  17
ATOM     17  C   UNL     1       2.003   9.738  18.121  0.00  0.00    +0.000 C 
BRANCH  17  18
ATOM     18  C   UNL     1       0.638   9.705  18.832  0.00  0.00    +0.000 C 
BRANCH  18  19
ATOM     19  C   UNL     1       0.741   9.921  20.341  0.00  0.00    +0.000 C 
BRANCH  19  20
ATOM     20  S   UNL     1       0.836  11.714  20.662  0.00  0.00    +0.000 S 
BRANCH  20  21
ATOM     21  C   UNL     1      -0.753  12.002  21.397  0.00  0.00    +0.000 A 
ATOM     22  N   UNL     1      -0.922  11.539  22.648  0.00  0.00    +0.000 NA
ATOM     23  C   UNL     1      -2.115  11.772  23.222  0.00  0.00    +0.000 A 
ATOM     24  C   UNL     1      -3.135  12.450  22.599  0.00  0.00    +0.000 A 
ATOM     25  C   UNL     1      -2.857  12.890  21.325  0.00  0.00    +0.000 A 
ATOM     26  N   UNL     1      -1.682  12.679  20.700  0.00  0.00    +0.000 NA
ENDBRANCH  20  21
ENDBRANCH  19  20
ENDBRANCH  18  19
ENDBRANCH  17  18
ENDBRANCH  16  17
ENDBRANCH  15  16
ENDBRANCH   6  15
TORSDOF 7
ENDMDL
