MODEL 1
REMARK VINA RESULT:      -8.5      0.000      0.000
REMARK  Name = 
REMARK  8 active torsions:
REMARK  status: ('A' for Active; 'I' for Inactive)
REMARK    1  A    between atoms: C_1  and  C_2
REMARK    2  A    between atoms: C_2  and  O_3
REMARK    3  A    between atoms: O_3  and  C_4
REMARK    4  A    between atoms: C_7  and  S_8
REMARK    5  A    between atoms: S_8  and  N_11
REMARK    6  A    between atoms: C_14  and  N_15
REMARK    7  A    between atoms: N_18  and  C_19
REMARK    8  A    between atoms: C_19  and  C_20
REMARK                            x       y       z     vdW  Elec       q    Type
REMARK                         _______ _______ _______ _____ _____    ______ ____
ROOT
ATOM      1  N   UNL     1       5.395   4.987  17.844  0.00  0.00    +0.000 NA
ATOM      2  C   UNL     1       5.306   5.396  19.276  0.00  0.00    +0.000 C 
ATOM      3  C   UNL     1       3.971   5.056  19.914  0.00  0.00    +0.000 C 
ATOM      4  C   UNL     1       2.753   5.507  19.110  0.00  0.00    +0.000 C 
ATOM      5  C   UNL     1       2.866   4.993  17.675  0.00  0.00    +0.000 C 
ATOM      6  C   UNL     1       4.196   5.293  16.998  0.00  0.00    +0.000 C 
ENDROOT
BRANCH   4   7
ATOM      7  N   UNL     1       2.430   6.952  19.198  0.00  0.00    +0.000 N 
ATOM      8  C   UNL     1       2.820   7.882  18.149  0.00  0.00    +0.000 C 
ATOM      9  C   UNL     1       1.665   8.799  17.808  0.00  0.00    +0.000 C 
ATOM     10  N   UNL     1       1.353   9.606  18.965  0.00  0.00    +0.000 N 
ATOM     11  C   UNL     1       1.323   9.004  20.224  0.00  0.00    +0.000 C 
ATOM     12  O   UNL     1       1.068   9.607  21.259  0.00  0.00    +0.000 OA
ATOM     13  C   UNL     1       1.655   7.460  20.265  0.00  0.00    +0.000 C 
ATOM     14  O   UNL     1       1.217   6.763  21.175  0.00  0.00    +0.000 OA
BRANCH  10  15
ATOM     15  C   UNL     1       0.993  10.994  18.756  0.00  0.00    +0.000 C 
BRANCH  15  16
ATOM     16  C   UNL     1      -0.502  11.231  18.668  0.00  0.00    +0.000 A 
ATOM     17  C   UNL     1      -1.309  10.491  17.783  0.00  0.00    +0.000 A 
ATOM     18  C   UNL     1      -2.701  10.622  17.811  0.00  0.00    +0.000 A 
ATOM     19  C   UNL     1      -3.290  11.498  18.713  0.00  0.00    +0.000 A 
ATOM     20  F   UNL     1      -4.626  11.589  18.771  0.00  0.00    +0.000 F 
ATOM     21  C   UNL     1      -2.512  12.271  19.566  0.00  0.00    +0.000 A 
ATOM     22  C   UNL     1      -1.122  12.143  19.539  0.00  0.00    +0.000 A 
ENDBRANCH  15  16
ENDBRANCH  10  15
ENDBRANCH   4   7
BRANCH   1  23
ATOM     23  S   UNL     1       6.843   5.553  17.065  0.00  0.00    +0.000 S 
ATOM     24  O   UNL     1       7.959   4.941  17.762  0.00  0.00    +0.000 OA
ATOM     25  O   UNL     1       6.750   6.993  16.950  0.00  0.00    +0.000 OA
BRANCH  23  29
ATOM     26  C   UNL     1       6.542   3.856  12.833  0.00  0.00    +0.000 A 
ATOM     27  C   UNL     1       5.836   3.259  13.884  0.00  0.00    +0.000 A 
ATOM     28  C   UNL     1       5.930   3.765  15.184  0.00  0.00    +0.000 A 
ATOM     29  C   UNL     1       6.758   4.861  15.433  0.00  0.00    +0.000 A 
ATOM     30  C   UNL     1       7.466   5.465  14.389  0.00  0.00    +0.000 A 
ATOM     31  C   UNL     1       7.376   4.945  13.094  0.00  0.00    +0.000 A 
BRANCH  26  32
ATOM     32  O   UNL     1       6.340   3.296  11.601  0.00  0.00    +0.000 OA
BRANCH  32  34
ATOM     33  C   UNL     1       4.031   3.147  10.996  0.00  0.00    +0.000 C 
ATOM     34  C   UNL     1       5.243   2.384  11.496  0.00  0.00    +0.000 C 
ENDBRANCH  32  34
ENDBRANCH  26  32
ENDBRANCH  23  29
ENDBRANCH   1  23
TORSDOF 7
ENDMDL
MODEL 2
REMARK VINA RESULT:      -8.4      0.399      1.320
REMARK  Name = 
REMARK  8 active torsions:
REMARK  status: ('A' for Active; 'I' for Inactive)
REMARK    1  A    between atoms: C_1  and  C_2
REMARK    2  A    between atoms: C_2  and  O_3
REMARK    3  A    between atoms: O_3  and  C_4
REMARK    4  A    between atoms: C_7  and  S_8
REMARK    5  A    between atoms: S_8  and  N_11
REMARK    6  A    between atoms: C_14  and  N_15
REMARK    7  A    between atoms: N_18  and  C_19
REMARK    8  A    between atoms: C_19  and  C_20
REMARK                            x       y       z     vdW  Elec       q    Type
REMARK                         _______ _______ _______ _____ _____    ______ ____
ROOT
ATOM      1  N   UNL     1       5.390   5.079  17.781  0.00  0.00    +0.000 NA
ATOM      2  C   UNL     1       5.355   5.506  19.210  0.00  0.00    +0.000 C 
ATOM      3  C   UNL     1       4.065   5.131  19.915  0.00  0.00    +0.000 C 
ATOM      4  C   UNL     1       2.795   5.528  19.165  0.00  0.00    +0.000 C 
ATOM      5  C   UNL     1       2.858   4.998  17.732  0.00  0.00    +0.000 C 
ATOM      6  C   UNL     1       4.143   5.332  16.989  0.00  0.00    +0.000 C 
ENDROOT
BRANCH   4   7
ATOM      7  N   UNL     1       2.427   6.963  19.250  0.00  0.00    +0.000 N 
ATOM      8  C   UNL     1       2.780   7.900  18.194  0.00  0.00    +0.000 C 
ATOM      9  C   UNL     1       1.593   8.779  17.858  0.00  0.00    +0.000 C 
ATOM     10  N   UNL     1       1.264   9.581  19.013  0.00  0.00    +0.000 N 
ATOM     11  C   UNL     1       1.262   8.983  20.275  0.00  0.00    +0.000 C 
ATOM     12  O   UNL     1       0.996   9.582  21.310  0.00  0.00    +0.000 OA
ATOM     13  C   UNL     1       1.644   7.451  20.320  0.00  0.00    +0.000 C 
ATOM     14  O   UNL     1       1.234   6.744  21.236  0.00  0.00    +0.000 OA
BRANCH  10  15
ATOM     15  C   UNL     1       0.858  10.955  18.801  0.00  0.00    +0.000 C 
BRANCH  15  16
ATOM     16  C   UNL     1      -0.645  11.156  18.804  0.00  0.00    +0.000 A 
ATOM     17  C   UNL     1      -1.256  12.086  19.667  0.00  0.00    +0.000 A 
ATOM     18  C   UNL     1      -2.623  12.360  19.562  0.00  0.00    +0.000 A 
ATOM     19  C   UNL     1      -3.385  11.700  18.607  0.00  0.00    +0.000 A 
ATOM     20  F   UNL     1      -4.686  11.997  18.477  0.00  0.00    +0.000 F 
ATOM     21  C   UNL     1      -2.812  10.747  17.773  0.00  0.00    +0.000 A 
ATOM     22  C   UNL     1      -1.447  10.470  17.877  0.00  0.00    +0.000 A 
ENDBRANCH  15  16
ENDBRANCH  10  15
ENDBRANCH   4   7
BRANCH   1  23
ATOM     23  S   UNL     1       6.779   5.683  16.926  0.00  0.00    +0.000 S 
ATOM     24  O   UNL     1       7.947   5.119  17.577  0.00  0.00    +0.000 OA
ATOM     25  O   UNL     1       6.631   7.117  16.797  0.00  0.00    +0.000 OA
BRANCH  23  29
ATOM     26  C   UNL     1       6.496   3.741  12.799  0.00  0.00    +0.000 A 
ATOM     27  C   UNL     1       7.390   4.794  13.024  0.00  0.00    +0.000 A 
ATOM     28  C   UNL     1       7.477   5.401  14.280  0.00  0.00    +0.000 A 
ATOM     29  C   UNL     1       6.641   4.965  15.309  0.00  0.00    +0.000 A 
ATOM     30  C   UNL     1       5.745   3.912  15.095  0.00  0.00    +0.000 A 
ATOM     31  C   UNL     1       5.657   3.319  13.832  0.00  0.00    +0.000 A 
BRANCH  26  32
ATOM     32  O   UNL     1       6.530   3.204  11.541  0.00  0.00    +0.000 OA
BRANCH  32  34
ATOM     33  C   UNL     1       6.503   0.865  11.041  0.00  0.00    +0.000 C 
ATOM     34  C   UNL     1       5.656   2.096  11.307  0.00  0.00    +0.000 C 
ENDBRANCH  32  34
ENDBRANCH  26  32
ENDBRANCH  23  29
ENDBRANCH   1  23
TORSDOF 7
ENDMDL
MODEL 3
REMARK VINA RESULT:      -8.3      2.593      4.441
REMARK  Name = 
REMARK  8 active torsions:
REMARK  status: ('A' for Active; 'I' for Inactive)
REMARK    1  A    between atoms: C_1  and  C_2
REMARK    2  A    between atoms: C_2  and  O_3
REMARK    3  A    between atoms: O_3  and  C_4
REMARK    4  A    between atoms: C_7  and  S_8
REMARK    5  A    between atoms: S_8  and  N_11
REMARK    6  A    between atoms: C_14  and  N_15
REMARK    7  A    between atoms: N_18  and  C_19
REMARK    8  A    between atoms: C_19  and  C_20
REMARK                            x       y       z     vdW  Elec       q    Type
REMARK                         _______ _______ _______ _____ _____    ______ ____
ROOT
ATOM      1  N   UNL     1       5.415   4.525  17.465  0.00  0.00    +0.000 NA
ATOM      2  C   UNL     1       5.497   4.980  18.883  0.00  0.00    +0.000 C 
ATOM      3  C   UNL     1       4.257   4.646  19.692  0.00  0.00    +0.000 C 
ATOM      4  C   UNL     1       2.942   5.055  19.032  0.00  0.00    +0.000 C 
ATOM      5  C   UNL     1       2.885   4.495  17.610  0.00  0.00    +0.000 C 
ATOM      6  C   UNL     1       4.117   4.788  16.764  0.00  0.00    +0.000 C 
ENDROOT
BRANCH   4   7
ATOM      7  N   UNL     1       2.610   6.499  19.114  0.00  0.00    +0.000 N 
ATOM      8  C   UNL     1       2.988   7.425  18.057  0.00  0.00    +0.000 C 
ATOM      9  C   UNL     1       1.824   8.333  17.718  0.00  0.00    +0.000 C 
ATOM     10  N   UNL     1       1.513   9.144  18.871  0.00  0.00    +0.000 N 
ATOM     11  C   UNL     1       1.493   8.548  20.134  0.00  0.00    +0.000 C 
ATOM     12  O   UNL     1       1.240   9.155  21.167  0.00  0.00    +0.000 OA
ATOM     13  C   UNL     1       1.837   7.007  20.181  0.00  0.00    +0.000 C 
ATOM     14  O   UNL     1       1.408   6.312  21.098  0.00  0.00    +0.000 OA
BRANCH  10  15
ATOM     15  C   UNL     1       1.142  10.528  18.657  0.00  0.00    +0.000 C 
BRANCH  15  16
ATOM     16  C   UNL     1      -0.356  10.763  18.634  0.00  0.00    +0.000 A 
ATOM     17  C   UNL     1      -0.958  11.720  19.472  0.00  0.00    +0.000 A 
ATOM     18  C   UNL     1      -2.318  12.023  19.343  0.00  0.00    +0.000 A 
ATOM     19  C   UNL     1      -3.081  11.365  18.388  0.00  0.00    +0.000 A 
ATOM     20  F   UNL     1      -4.372  11.688  18.233  0.00  0.00    +0.000 F 
ATOM     21  C   UNL     1      -2.518  10.384  17.579  0.00  0.00    +0.000 A 
ATOM     22  C   UNL     1      -1.161  10.079  17.707  0.00  0.00    +0.000 A 
ENDBRANCH  15  16
ENDBRANCH  10  15
ENDBRANCH   4   7
BRANCH   1  23
ATOM     23  S   UNL     1       6.746   5.082  16.494  0.00  0.00    +0.000 S 
ATOM     24  O   UNL     1       6.182   5.551  15.242  0.00  0.00    +0.000 OA
ATOM     25  O   UNL     1       7.762   4.050  16.502  0.00  0.00    +0.000 OA
BRANCH  23  29
ATOM     26  C   UNL     1       8.465   8.692  18.707  0.00  0.00    +0.000 A 
ATOM     27  C   UNL     1       8.604   7.406  19.240  0.00  0.00    +0.000 A 
ATOM     28  C   UNL     1       8.073   6.297  18.576  0.00  0.00    +0.000 A 
ATOM     29  C   UNL     1       7.375   6.484  17.382  0.00  0.00    +0.000 A 
ATOM     30  C   UNL     1       7.232   7.766  16.840  0.00  0.00    +0.000 A 
ATOM     31  C   UNL     1       7.756   8.871  17.517  0.00  0.00    +0.000 A 
BRANCH  26  32
ATOM     32  O   UNL     1       9.059   9.692  19.428  0.00  0.00    +0.000 OA
BRANCH  32  34
ATOM     33  C   UNL     1      10.742  11.372  19.169  0.00  0.00    +0.000 C 
ATOM     34  C   UNL     1       9.383  10.882  18.704  0.00  0.00    +0.000 C 
ENDBRANCH  32  34
ENDBRANCH  26  32
ENDBRANCH  23  29
ENDBRANCH   1  23
TORSDOF 7
ENDMDL
MODEL 4
REMARK VINA RESULT:      -8.1      0.558      1.015
REMARK  Name = 
REMARK  8 active torsions:
REMARK  status: ('A' for Active; 'I' for Inactive)
REMARK    1  A    between atoms: C_1  and  C_2
REMARK    2  A    between atoms: C_2  and  O_3
REMARK    3  A    between atoms: O_3  and  C_4
REMARK    4  A    between atoms: C_7  and  S_8
REMARK    5  A    between atoms: S_8  and  N_11
REMARK    6  A    between atoms: C_14  and  N_15
REMARK    7  A    between atoms: N_18  and  C_19
REMARK    8  A    between atoms: C_19  and  C_20
REMARK                            x       y       z     vdW  Elec       q    Type
REMARK                         _______ _______ _______ _____ _____    ______ ____
ROOT
ATOM      1  N   UNL     1       4.995   4.947  18.188  0.00  0.00    +0.000 NA
ATOM      2  C   UNL     1       4.833   5.372  19.608  0.00  0.00    +0.000 C 
ATOM      3  C   UNL     1       3.426   5.165  20.138  0.00  0.00    +0.000 C 
ATOM      4  C   UNL     1       2.323   5.724  19.241  0.00  0.00    +0.000 C 
ATOM      5  C   UNL     1       2.500   5.192  17.818  0.00  0.00    +0.000 C 
ATOM      6  C   UNL     1       3.902   5.360  17.249  0.00  0.00    +0.000 C 
ENDROOT
BRANCH   4   7
ATOM      7  N   UNL     1       2.134   7.194  19.304  0.00  0.00    +0.000 N 
ATOM      8  C   UNL     1       2.527   8.058  18.200  0.00  0.00    +0.000 C 
ATOM      9  C   UNL     1       1.433   9.065  17.911  0.00  0.00    +0.000 C 
ATOM     10  N   UNL     1       1.277   9.927  19.059  0.00  0.00    +0.000 N 
ATOM     11  C   UNL     1       1.284   9.363  20.337  0.00  0.00    +0.000 C 
ATOM     12  O   UNL     1       1.158  10.012  21.366  0.00  0.00    +0.000 OA
ATOM     13  C   UNL     1       1.485   7.797  20.404  0.00  0.00    +0.000 C 
ATOM     14  O   UNL     1       1.054   7.166  21.365  0.00  0.00    +0.000 OA
BRANCH  10  15
ATOM     15  C   UNL     1       1.023  11.335  18.830  0.00  0.00    +0.000 C 
BRANCH  15  16
ATOM     16  C   UNL     1      -0.436  11.724  18.967  0.00  0.00    +0.000 A 
ATOM     17  C   UNL     1      -1.418  11.185  18.115  0.00  0.00    +0.000 A 
ATOM     18  C   UNL     1      -2.774  11.444  18.340  0.00  0.00    +0.000 A 
ATOM     19  C   UNL     1      -3.151  12.250  19.407  0.00  0.00    +0.000 A 
ATOM     20  F   UNL     1      -4.452  12.461  19.650  0.00  0.00    +0.000 F 
ATOM     21  C   UNL     1      -2.197  12.828  20.235  0.00  0.00    +0.000 A 
ATOM     22  C   UNL     1      -0.842  12.571  20.011  0.00  0.00    +0.000 A 
ENDBRANCH  15  16
ENDBRANCH  10  15
ENDBRANCH   4   7
BRANCH   1  23
ATOM     23  S   UNL     1       6.548   5.367  17.526  0.00  0.00    +0.000 S 
ATOM     24  O   UNL     1       7.532   4.564  18.228  0.00  0.00    +0.000 OA
ATOM     25  O   UNL     1       6.649   6.811  17.519  0.00  0.00    +0.000 OA
BRANCH  23  29
ATOM     26  C   UNL     1       6.436   3.848  13.218  0.00  0.00    +0.000 A 
ATOM     27  C   UNL     1       7.141   5.015  13.537  0.00  0.00    +0.000 A 
ATOM     28  C   UNL     1       7.172   5.492  14.850  0.00  0.00    +0.000 A 
ATOM     29  C   UNL     1       6.470   4.809  15.844  0.00  0.00    +0.000 A 
ATOM     30  C   UNL     1       5.764   3.641  15.535  0.00  0.00    +0.000 A 
ATOM     31  C   UNL     1       5.728   3.177  14.217  0.00  0.00    +0.000 A 
BRANCH  26  32
ATOM     32  O   UNL     1       6.511   3.460  11.908  0.00  0.00    +0.000 OA
BRANCH  32  34
ATOM     33  C   UNL     1       4.273   3.094  11.146  0.00  0.00    +0.000 C 
ATOM     34  C   UNL     1       5.595   2.439  11.501  0.00  0.00    +0.000 C 
ENDBRANCH  32  34
ENDBRANCH  26  32
ENDBRANCH  23  29
ENDBRANCH   1  23
TORSDOF 7
ENDMDL
MODEL 5
REMARK VINA RESULT:      -7.8      7.330     11.002
REMARK  Name = 
REMARK  8 active torsions:
REMARK  status: ('A' for Active; 'I' for Inactive)
REMARK    1  A    between atoms: C_1  and  C_2
REMARK    2  A    between atoms: C_2  and  O_3
REMARK    3  A    between atoms: O_3  and  C_4
REMARK    4  A    between atoms: C_7  and  S_8
REMARK    5  A    between atoms: S_8  and  N_11
REMARK    6  A    between atoms: C_14  and  N_15
REMARK    7  A    between atoms: N_18  and  C_19
REMARK    8  A    between atoms: C_19  and  C_20
REMARK                            x       y       z     vdW  Elec       q    Type
REMARK                         _______ _______ _______ _____ _____    ______ ____
ROOT
ATOM      1  N   UNL     1       1.937  14.988  19.758  0.00  0.00    +0.000 NA
ATOM      2  C   UNL     1       2.647  16.123  20.415  0.00  0.00    +0.000 C 
ATOM      3  C   UNL     1       3.206  17.132  19.429  0.00  0.00    +0.000 C 
ATOM      4  C   UNL     1       4.027  16.520  18.295  0.00  0.00    +0.000 C 
ATOM      5  C   UNL     1       3.217  15.416  17.613  0.00  0.00    +0.000 C 
ATOM      6  C   UNL     1       2.619  14.390  18.565  0.00  0.00    +0.000 C 
ENDROOT
BRANCH   4   7
ATOM      7  N   UNL     1       5.405  16.105  18.657  0.00  0.00    +0.000 N 
ATOM      8  C   UNL     1       5.926  14.798  18.286  0.00  0.00    +0.000 C 
ATOM      9  C   UNL     1       7.326  14.935  17.724  0.00  0.00    +0.000 C 
ATOM     10  N   UNL     1       8.198  15.435  18.761  0.00  0.00    +0.000 N 
ATOM     11  C   UNL     1       7.750  16.473  19.581  0.00  0.00    +0.000 C 
ATOM     12  O   UNL     1       8.418  16.961  20.484  0.00  0.00    +0.000 OA
ATOM     13  C   UNL     1       6.288  17.001  19.299  0.00  0.00    +0.000 C 
ATOM     14  O   UNL     1       5.983  18.150  19.605  0.00  0.00    +0.000 OA
BRANCH  10  15
ATOM     15  C   UNL     1       9.541  14.900  18.844  0.00  0.00    +0.000 C 
BRANCH  15  16
ATOM     16  C   UNL     1       9.590  13.395  19.019  0.00  0.00    +0.000 A 
ATOM     17  C   UNL     1       9.350  12.796  20.270  0.00  0.00    +0.000 A 
ATOM     18  C   UNL     1       9.262  11.406  20.387  0.00  0.00    +0.000 A 
ATOM     19  C   UNL     1       9.424  10.609  19.261  0.00  0.00    +0.000 A 
ATOM     20  F   UNL     1       9.293   9.280  19.366  0.00  0.00    +0.000 F 
ATOM     21  C   UNL     1       9.704  11.176  18.023  0.00  0.00    +0.000 A 
ATOM     22  C   UNL     1       9.795  12.564  17.904  0.00  0.00    +0.000 A 
ENDBRANCH  15  16
ENDBRANCH  10  15
ENDBRANCH   4   7
BRANCH   1  23
ATOM     23  S   UNL     1       1.474  13.738  20.875  0.00  0.00    +0.000 S 
ATOM     24  O   UNL     1       0.526  14.334  21.799  0.00  0.00    +0.000 OA
ATOM     25  O   UNL     1       2.683  13.113  21.367  0.00  0.00    +0.000 OA
BRANCH  23  29
ATOM     26  C   UNL     1      -0.669  10.709  18.208  0.00  0.00    +0.000 A 
ATOM     27  C   UNL     1      -1.098  12.040  18.249  0.00  0.00    +0.000 A 
ATOM     28  C   UNL     1      -0.455  12.972  19.070  0.00  0.00    +0.000 A 
ATOM     29  C   UNL     1       0.608  12.557  19.873  0.00  0.00    +0.000 A 
ATOM     30  C   UNL     1       1.046  11.229  19.838  0.00  0.00    +0.000 A 
ATOM     31  C   UNL     1       0.390  10.301  19.023  0.00  0.00    +0.000 A 
BRANCH  26  32
ATOM     32  O   UNL     1      -1.351   9.901  17.339  0.00  0.00    +0.000 OA
BRANCH  32  34
ATOM     33  C   UNL     1      -3.695   9.577  17.687  0.00  0.00    +0.000 C 
ATOM     34  C   UNL     1      -2.641  10.365  16.931  0.00  0.00    +0.000 C 
ENDBRANCH  32  34
ENDBRANCH  26  32
ENDBRANCH  23  29
ENDBRANCH   1  23
TORSDOF 7
ENDMDL
MODEL 6
REMARK VINA RESULT:      -7.7      2.462      4.158
REMARK  Name = 
REMARK  8 active torsions:
REMARK  status: ('A' for Active; 'I' for Inactive)
REMARK    1  A    between atoms: C_1  and  C_2
REMARK    2  A    between atoms: C_2  and  O_3
REMARK    3  A    between atoms: O_3  and  C_4
REMARK    4  A    between atoms: C_7  and  S_8
REMARK    5  A    between atoms: S_8  and  N_11
REMARK    6  A    between atoms: C_14  and  N_15
REMARK    7  A    between atoms: N_18  and  C_19
REMARK    8  A    between atoms: C_19  and  C_20
REMARK                            x       y       z     vdW  Elec       q    Type
REMARK                         _______ _______ _______ _____ _____    ______ ____
ROOT
ATOM      1  N   UNL     1       4.634   4.501  17.612  0.00  0.00    +0.000 NA
ATOM      2  C   UNL     1       4.931   5.062  18.962  0.00  0.00    +0.000 C 
ATOM      3  C   UNL     1       3.791   4.888  19.948  0.00  0.00    +0.000 C 
ATOM      4  C   UNL     1       2.428   5.339  19.425  0.00  0.00    +0.000 C 
ATOM      5  C   UNL     1       2.149   4.671  18.078  0.00  0.00    +0.000 C 
ATOM      6  C   UNL     1       3.274   4.803  17.060  0.00  0.00    +0.000 C 
ENDROOT
BRANCH   4   7
ATOM      7  N   UNL     1       2.201   6.805  19.417  0.00  0.00    +0.000 N 
ATOM      8  C   UNL     1       2.643   7.635  18.307  0.00  0.00    +0.000 C 
ATOM      9  C   UNL     1       1.547   8.603  17.910  0.00  0.00    +0.000 C 
ATOM     10  N   UNL     1       1.299   9.503  19.011  0.00  0.00    +0.000 N 
ATOM     11  C   UNL     1       1.239   8.989  20.308  0.00  0.00    +0.000 C 
ATOM     12  O   UNL     1       1.033   9.674  21.302  0.00  0.00    +0.000 OA
ATOM     13  C   UNL     1       1.470   7.433  20.450  0.00  0.00    +0.000 C 
ATOM     14  O   UNL     1       0.994   6.828  21.407  0.00  0.00    +0.000 OA
BRANCH  10  15
ATOM     15  C   UNL     1       1.028  10.895  18.712  0.00  0.00    +0.000 C 
BRANCH  15  16
ATOM     16  C   UNL     1      -0.449  11.236  18.672  0.00  0.00    +0.000 A 
ATOM     17  C   UNL     1      -1.348  10.501  17.875  0.00  0.00    +0.000 A 
ATOM     18  C   UNL     1      -2.724  10.737  17.955  0.00  0.00    +0.000 A 
ATOM     19  C   UNL     1      -3.205  11.711  18.819  0.00  0.00    +0.000 A 
ATOM     20  F   UNL     1      -4.527  11.905  18.929  0.00  0.00    +0.000 F 
ATOM     21  C   UNL     1      -2.334  12.479  19.584  0.00  0.00    +0.000 A 
ATOM     22  C   UNL     1      -0.959  12.246  19.505  0.00  0.00    +0.000 A 
ENDBRANCH  15  16
ENDBRANCH  10  15
ENDBRANCH   4   7
BRANCH   1  23
ATOM     23  S   UNL     1       5.858   4.877  16.436  0.00  0.00    +0.000 S 
ATOM     24  O   UNL     1       5.181   5.500  15.314  0.00  0.00    +0.000 OA
ATOM     25  O   UNL     1       6.663   3.690  16.239  0.00  0.00    +0.000 OA
BRANCH  23  29
ATOM     26  C   UNL     1       8.362   8.050  18.567  0.00  0.00    +0.000 A 
ATOM     27  C   UNL     1       7.604   8.389  17.441  0.00  0.00    +0.000 A 
ATOM     28  C   UNL     1       6.843   7.423  16.776  0.00  0.00    +0.000 A 
ATOM     29  C   UNL     1       6.864   6.103  17.231  0.00  0.00    +0.000 A 
ATOM     30  C   UNL     1       7.617   5.755  18.357  0.00  0.00    +0.000 A 
ATOM     31  C   UNL     1       8.385   6.724  19.008  0.00  0.00    +0.000 A 
BRANCH  26  32
ATOM     32  O   UNL     1       9.034   9.087  19.154  0.00  0.00    +0.000 OA
BRANCH  32  34
ATOM     33  C   UNL     1      10.263  11.069  18.622  0.00  0.00    +0.000 C 
ATOM     34  C   UNL     1       8.929  10.355  18.500  0.00  0.00    +0.000 C 
ENDBRANCH  32  34
ENDBRANCH  26  32
ENDBRANCH  23  29
ENDBRANCH   1  23
TORSDOF 7
ENDMDL
MODEL 7
REMARK VINA RESULT:      -7.7      5.148      9.730
REMARK  Name = 
REMARK  8 active torsions:
REMARK  status: ('A' for Active; 'I' for Inactive)
REMARK    1  A    between atoms: C_1  and  C_2
REMARK    2  A    between atoms: C_2  and  O_3
REMARK    3  A    between atoms: O_3  and  C_4
REMARK    4  A    between atoms: C_7  and  S_8
REMARK    5  A    between atoms: S_8  and  N_11
REMARK    6  A    between atoms: C_14  and  N_15
REMARK    7  A    between atoms: N_18  and  C_19
REMARK    8  A    between atoms: C_19  and  C_20
REMARK                            x       y       z     vdW  Elec       q    Type
REMARK                         _______ _______ _______ _____ _____    ______ ____
ROOT
ATOM      1  N   UNL     1      -0.717  14.234  21.006  0.00  0.00    +0.000 NA
ATOM      2  C   UNL     1      -0.641  13.868  19.562  0.00  0.00    +0.000 C 
ATOM      3  C   UNL     1      -1.563  12.723  19.185  0.00  0.00    +0.000 C 
ATOM      4  C   UNL     1      -1.458  11.500  20.095  0.00  0.00    +0.000 C 
ATOM      5  C   UNL     1      -1.620  11.931  21.553  0.00  0.00    +0.000 C 
ATOM      6  C   UNL     1      -0.729  13.091  21.974  0.00  0.00    +0.000 C 
ENDROOT
BRANCH   4   7
ATOM      7  N   UNL     1      -0.279  10.631  19.862  0.00  0.00    +0.000 N 
ATOM      8  C   UNL     1       0.576  10.202  20.958  0.00  0.00    +0.000 C 
ATOM      9  C   UNL     1       0.877   8.723  20.838  0.00  0.00    +0.000 C 
ATOM     10  N   UNL     1       1.632   8.497  19.627  0.00  0.00    +0.000 N 
ATOM     11  C   UNL     1       1.249   9.155  18.456  0.00  0.00    +0.000 C 
ATOM     12  O   UNL     1       1.828   9.026  17.385  0.00  0.00    +0.000 OA
ATOM     13  C   UNL     1       0.003  10.119  18.576  0.00  0.00    +0.000 C 
ATOM     14  O   UNL     1      -0.682  10.359  17.586  0.00  0.00    +0.000 OA
BRANCH  10  15
ATOM     15  C   UNL     1       2.703   7.522  19.659  0.00  0.00    +0.000 C 
BRANCH  15  16
ATOM     16  C   UNL     1       2.237   6.095  19.449  0.00  0.00    +0.000 A 
ATOM     17  C   UNL     1       1.734   5.326  20.515  0.00  0.00    +0.000 A 
ATOM     18  C   UNL     1       1.180   4.063  20.281  0.00  0.00    +0.000 A 
ATOM     19  C   UNL     1       1.137   3.561  18.987  0.00  0.00    +0.000 A 
ATOM     20  F   UNL     1       0.565   2.371  18.757  0.00  0.00    +0.000 F 
ATOM     21  C   UNL     1       1.667   4.283  17.925  0.00  0.00    +0.000 A 
ATOM     22  C   UNL     1       2.222   5.544  18.156  0.00  0.00    +0.000 A 
ENDBRANCH  15  16
ENDBRANCH  10  15
ENDBRANCH   4   7
BRANCH   1  23
ATOM     23  S   UNL     1       0.479  15.407  21.473  0.00  0.00    +0.000 S 
ATOM     24  O   UNL     1       1.015  14.970  22.750  0.00  0.00    +0.000 OA
ATOM     25  O   UNL     1      -0.111  16.721  21.336  0.00  0.00    +0.000 OA
BRANCH  23  29
ATOM     26  C   UNL     1       3.837  15.037  18.396  0.00  0.00    +0.000 A 
ATOM     27  C   UNL     1       2.891  16.063  18.288  0.00  0.00    +0.000 A 
ATOM     28  C   UNL     1       1.855  16.178  19.219  0.00  0.00    +0.000 A 
ATOM     29  C   UNL     1       1.753  15.241  20.249  0.00  0.00    +0.000 A 
ATOM     30  C   UNL     1       2.695  14.214  20.366  0.00  0.00    +0.000 A 
ATOM     31  C   UNL     1       3.721  14.099  19.424  0.00  0.00    +0.000 A 
BRANCH  26  32
ATOM     32  O   UNL     1       4.825  15.051  17.449  0.00  0.00    +0.000 OA
BRANCH  32  34
ATOM     33  C   UNL     1       7.080  15.527  18.089  0.00  0.00    +0.000 C 
ATOM     34  C   UNL     1       6.061  14.435  17.821  0.00  0.00    +0.000 C 
ENDBRANCH  32  34
ENDBRANCH  26  32
ENDBRANCH  23  29
ENDBRANCH   1  23
TORSDOF 7
ENDMDL
MODEL 8
REMARK VINA RESULT:      -7.6      2.176      2.943
REMARK  Name = 
REMARK  8 active torsions:
REMARK  status: ('A' for Active; 'I' for Inactive)
REMARK    1  A    between atoms: C_1  and  C_2
REMARK    2  A    between atoms: C_2  and  O_3
REMARK    3  A    between atoms: O_3  and  C_4
REMARK    4  A    between atoms: C_7  and  S_8
REMARK    5  A    between atoms: S_8  and  N_11
REMARK    6  A    between atoms: C_14  and  N_15
REMARK    7  A    between atoms: N_18  and  C_19
REMARK    8  A    between atoms: C_19  and  C_20
REMARK                            x       y       z     vdW  Elec       q    Type
REMARK                         _______ _______ _______ _____ _____    ______ ____
ROOT
ATOM      1  N   UNL     1       5.215   5.316  17.848  0.00  0.00    +0.000 NA
ATOM      2  C   UNL     1       5.177   5.757  19.271  0.00  0.00    +0.000 C 
ATOM      3  C   UNL     1       3.884   5.390  19.978  0.00  0.00    +0.000 C 
ATOM      4  C   UNL     1       2.616   5.780  19.221  0.00  0.00    +0.000 C 
ATOM      5  C   UNL     1       2.682   5.235  17.794  0.00  0.00    +0.000 C 
ATOM      6  C   UNL     1       3.970   5.561  17.050  0.00  0.00    +0.000 C 
ENDROOT
BRANCH   4   7
ATOM      7  N   UNL     1       2.249   7.216  19.290  0.00  0.00    +0.000 N 
ATOM      8  C   UNL     1       2.555   8.130  18.200  0.00  0.00    +0.000 C 
ATOM      9  C   UNL     1       1.353   9.000  17.895  0.00  0.00    +0.000 C 
ATOM     10  N   UNL     1       1.072   9.826  19.046  0.00  0.00    +0.000 N 
ATOM     11  C   UNL     1       1.124   9.256  20.320  0.00  0.00    +0.000 C 
ATOM     12  O   UNL     1       0.901   9.877  21.351  0.00  0.00    +0.000 OA
ATOM     13  C   UNL     1       1.511   7.726  20.381  0.00  0.00    +0.000 C 
ATOM     14  O   UNL     1       1.142   7.039  21.329  0.00  0.00    +0.000 OA
BRANCH  10  15
ATOM     15  C   UNL     1       0.654  11.195  18.821  0.00  0.00    +0.000 C 
BRANCH  15  16
ATOM     16  C   UNL     1       1.746  12.217  19.074  0.00  0.00    +0.000 A 
ATOM     17  C   UNL     1       2.616  12.627  18.046  0.00  0.00    +0.000 A 
ATOM     18  C   UNL     1       3.525  13.668  18.257  0.00  0.00    +0.000 A 
ATOM     19  C   UNL     1       3.577  14.294  19.496  0.00  0.00    +0.000 A 
ATOM     20  F   UNL     1       4.417  15.322  19.684  0.00  0.00    +0.000 F 
ATOM     21  C   UNL     1       2.759  13.877  20.539  0.00  0.00    +0.000 A 
ATOM     22  C   UNL     1       1.851  12.837  20.331  0.00  0.00    +0.000 A 
ENDBRANCH  15  16
ENDBRANCH  10  15
ENDBRANCH   4   7
BRANCH   1  23
ATOM     23  S   UNL     1       6.606   5.910  16.989  0.00  0.00    +0.000 S 
ATOM     24  O   UNL     1       7.774   5.445  17.715  0.00  0.00    +0.000 OA
ATOM     25  O   UNL     1       6.407   7.323  16.747  0.00  0.00    +0.000 OA
BRANCH  23  29
ATOM     26  C   UNL     1       6.546   3.664  13.010  0.00  0.00    +0.000 A 
ATOM     27  C   UNL     1       7.228   4.881  13.123  0.00  0.00    +0.000 A 
ATOM     28  C   UNL     1       7.244   5.580  14.334  0.00  0.00    +0.000 A 
ATOM     29  C   UNL     1       6.548   5.066  15.429  0.00  0.00    +0.000 A 
ATOM     30  C   UNL     1       5.864   3.850  15.326  0.00  0.00    +0.000 A 
ATOM     31  C   UNL     1       5.844   3.164  14.108  0.00  0.00    +0.000 A 
BRANCH  26  32
ATOM     32  O   UNL     1       6.635   3.056  11.787  0.00  0.00    +0.000 OA
BRANCH  32  34
ATOM     33  C   UNL     1       4.304   3.188  11.271  0.00  0.00    +0.000 C 
ATOM     34  C   UNL     1       5.507   2.271  11.391  0.00  0.00    +0.000 C 
ENDBRANCH  32  34
ENDBRANCH  26  32
ENDBRANCH  23  29
ENDBRANCH   1  23
TORSDOF 7
ENDMDL
MODEL 9
REMARK VINA RESULT:      -7.5      5.109      8.369
REMARK  Name = 
REMARK  8 active torsions:
REMARK  status: ('A' for Active; 'I' for Inactive)
REMARK    1  A    between atoms: C_1  and  C_2
REMARK    2  A    between atoms: C_2  and  O_3
REMARK    3  A    between atoms: O_3  and  C_4
REMARK    4  A    between atoms: C_7  and  S_8
REMARK    5  A    between atoms: S_8  and  N_11
REMARK    6  A    between atoms: C_14  and  N_15
REMARK    7  A    between atoms: N_18  and  C_19
REMARK    8  A    between atoms: C_19  and  C_20
REMARK                            x       y       z     vdW  Elec       q    Type
REMARK                         _______ _______ _______ _____ _____    ______ ____
ROOT
ATOM      1  N   UNL     1      -0.808  10.716  18.209  0.00  0.00    +0.000 NA
ATOM      2  C   UNL     1      -1.748   9.689  18.743  0.00  0.00    +0.000 C 
ATOM      3  C   UNL     1      -3.044   9.598  17.958  0.00  0.00    +0.000 C 
ATOM      4  C   UNL     1      -3.734  10.940  17.718  0.00  0.00    +0.000 C 
ATOM      5  C   UNL     1      -2.740  11.925  17.100  0.00  0.00    +0.000 C 
ATOM      6  C   UNL     1      -1.415  12.036  17.843  0.00  0.00    +0.000 C 
ENDROOT
BRANCH   4   7
ATOM      7  N   UNL     1      -4.473  11.494  18.879  0.00  0.00    +0.000 N 
ATOM      8  C   UNL     1      -3.824  12.371  19.842  0.00  0.00    +0.000 C 
ATOM      9  C   UNL     1      -4.713  13.559  20.148  0.00  0.00    +0.000 C 
ATOM     10  N   UNL     1      -5.921  13.087  20.783  0.00  0.00    +0.000 N 
ATOM     11  C   UNL     1      -6.552  11.947  20.279  0.00  0.00    +0.000 C 
ATOM     12  O   UNL     1      -7.578  11.475  20.751  0.00  0.00    +0.000 OA
ATOM     13  C   UNL     1      -5.856  11.258  19.039  0.00  0.00    +0.000 C 
ATOM     14  O   UNL     1      -6.524  10.587  18.258  0.00  0.00    +0.000 OA
BRANCH  10  15
ATOM     15  C   UNL     1      -6.479  13.873  21.864  0.00  0.00    +0.000 C 
BRANCH  15  16
ATOM     16  C   UNL     1      -5.514  14.111  23.009  0.00  0.00    +0.000 A 
ATOM     17  C   UNL     1      -4.857  13.041  23.646  0.00  0.00    +0.000 A 
ATOM     18  C   UNL     1      -3.869  13.284  24.604  0.00  0.00    +0.000 A 
ATOM     19  C   UNL     1      -3.542  14.591  24.939  0.00  0.00    +0.000 A 
ATOM     20  F   UNL     1      -2.563  14.824  25.824  0.00  0.00    +0.000 F 
ATOM     21  C   UNL     1      -4.207  15.663  24.356  0.00  0.00    +0.000 A 
ATOM     22  C   UNL     1      -5.196  15.423  23.399  0.00  0.00    +0.000 A 
ENDBRANCH  15  16
ENDBRANCH  10  15
ENDBRANCH   4   7
BRANCH   1  23
ATOM     23  S   UNL     1       0.584  10.955  19.224  0.00  0.00    +0.000 S 
ATOM     24  O   UNL     1       0.087  11.373  20.522  0.00  0.00    +0.000 OA
ATOM     25  O   UNL     1       1.525  11.782  18.498  0.00  0.00    +0.000 OA
BRANCH  23  29
ATOM     26  C   UNL     1       2.290   6.732  19.601  0.00  0.00    +0.000 A 
ATOM     27  C   UNL     1       1.671   7.344  20.697  0.00  0.00    +0.000 A 
ATOM     28  C   UNL     1       1.155   8.639  20.594  0.00  0.00    +0.000 A 
ATOM     29  C   UNL     1       1.285   9.334  19.391  0.00  0.00    +0.000 A 
ATOM     30  C   UNL     1       1.900   8.731  18.289  0.00  0.00    +0.000 A 
ATOM     31  C   UNL     1       2.424   7.439  18.404  0.00  0.00    +0.000 A 
BRANCH  26  32
ATOM     32  O   UNL     1       2.720   5.451  19.812  0.00  0.00    +0.000 OA
BRANCH  32  34
ATOM     33  C   UNL     1       1.203   3.700  20.408  0.00  0.00    +0.000 C 
ATOM     34  C   UNL     1       2.144   4.770  20.930  0.00  0.00    +0.000 C 
ENDBRANCH  32  34
ENDBRANCH  26  32
ENDBRANCH  23  29
ENDBRANCH   1  23
TORSDOF 7
ENDMDL
