MODEL 1
REMARK VINA RESULT:      -7.8      0.000      0.000
REMARK  Name = 
REMARK  7 active torsions:
REMARK  status: ('A' for Active; 'I' for Inactive)
REMARK    1  A    between atoms: C_2  and  C_3
REMARK    2  A    between atoms: C_3  and  C_4
REMARK    3  A    between atoms: N_6  and  C_7
REMARK    4  A    between atoms: C_10  and  C_11
REMARK    5  A    between atoms: C_13  and  N_14
REMARK    6  A    between atoms: N_14  and  C_15
REMARK    7  A    between atoms: C_18  and  N_19
REMARK                            x       y       z     vdW  Elec       q    Type
REMARK                         _______ _______ _______ _____ _____    ______ ____
ROOT
ATOM      1  C   UNL     1       2.914   5.159  18.648  0.00  0.00    +0.000 A 
ATOM      2  C   UNL     1       2.894   6.385  19.286  0.00  0.00    +0.000 A 
ATOM      3  C   UNL     1       2.101   6.514  20.405  0.00  0.00    +0.000 A 
ATOM      4  N   UNL     1       1.344   5.498  20.846  0.00  0.00    +0.000 NA
ATOM      5  C   UNL     1       1.421   4.349  20.162  0.00  0.00    +0.000 A 
ATOM      6  N   UNL     1       2.165   4.124  19.071  0.00  0.00    +0.000 NA
ENDROOT
BRANCH   1  10
ATOM      7  C   UNL     1       5.561   4.481  15.317  0.00  0.00    +0.000 A 
ATOM      8  C   UNL     1       5.268   5.763  15.763  0.00  0.00    +0.000 A 
ATOM      9  C   UNL     1       4.417   5.974  16.839  0.00  0.00    +0.000 A 
ATOM     10  C   UNL     1       3.805   4.902  17.505  0.00  0.00    +0.000 A 
ATOM     11  C   UNL     1       4.095   3.608  17.049  0.00  0.00    +0.000 A 
ATOM     12  C   UNL     1       4.958   3.393  15.959  0.00  0.00    +0.000 A 
BRANCH   7  15
ATOM     13  C   UNL     1       6.038   3.818  12.967  0.00  0.00    +0.000 C 
ATOM     14  O   UNL     1       4.877   3.648  12.596  0.00  0.00    +0.000 OA
ATOM     15  N   UNL     1       6.439   4.244  14.234  0.00  0.00    +0.000 N 
ATOM     16  H   UNL     1       7.406   4.501  14.375  0.00  0.00    +0.000 HD
BRANCH  13  17
ATOM     17  C   UNL     1       7.171   3.550  12.004  0.00  0.00    +0.000 C 
BRANCH  17  19
ATOM     18  N   UNL     1       6.859   1.196  10.885  0.00  0.00    +0.000 NA
ATOM     19  C   UNL     1       7.010   2.239  11.383  0.00  0.00    +0.000 C 
ENDBRANCH  17  19
ENDBRANCH  13  17
ENDBRANCH   7  15
ENDBRANCH   1  10
BRANCH   3  20
ATOM     20  N   UNL     1       2.097   7.765  21.046  0.00  0.00    +0.000 N 
ATOM     21  H   UNL     1       2.699   7.807  21.856  0.00  0.00    +0.000 HD
BRANCH  20  22
ATOM     22  C   UNL     1       1.124   8.768  20.977  0.00  0.00    +0.000 A 
ATOM     23  C   UNL     1       0.396   9.118  22.112  0.00  0.00    +0.000 A 
ATOM     24  C   UNL     1      -0.518  10.178  22.074  0.00  0.00    +0.000 A 
ATOM     25  C   UNL     1      -0.740  10.919  20.907  0.00  0.00    +0.000 A 
ATOM     26  C   UNL     1      -0.036  10.520  19.763  0.00  0.00    +0.000 A 
ATOM     27  C   UNL     1       0.867   9.454  19.791  0.00  0.00    +0.000 A 
BRANCH  25  28
ATOM     28  N   UNL     1      -1.592  12.000  20.879  0.00  0.00    +0.000 N 
ATOM     29  C   UNL     1      -2.046  12.692  22.092  0.00  0.00    +0.000 C 
ATOM     30  C   UNL     1      -3.577  12.642  22.184  0.00  0.00    +0.000 C 
ATOM     31  O   UNL     1      -4.193  13.157  20.990  0.00  0.00    +0.000 OA
ATOM     32  C   UNL     1      -3.788  12.381  19.849  0.00  0.00    +0.000 C 
ATOM     33  C   UNL     1      -2.264  12.420  19.642  0.00  0.00    +0.000 C 
ENDBRANCH  25  28
ENDBRANCH  20  22
ENDBRANCH   3  20
TORSDOF 7
ENDMDL
MODEL 2
REMARK VINA RESULT:      -7.5      1.453      1.864
REMARK  Name = 
REMARK  7 active torsions:
REMARK  status: ('A' for Active; 'I' for Inactive)
REMARK    1  A    between atoms: C_2  and  C_3
REMARK    2  A    between atoms: C_3  and  C_4
REMARK    3  A    between atoms: N_6  and  C_7
REMARK    4  A    between atoms: C_10  and  C_11
REMARK    5  A    between atoms: C_13  and  N_14
REMARK    6  A    between atoms: N_14  and  C_15
REMARK    7  A    between atoms: C_18  and  N_19
REMARK                            x       y       z     vdW  Elec       q    Type
REMARK                         _______ _______ _______ _____ _____    ______ ____
ROOT
ATOM      1  C   UNL     1       2.734   5.727  18.916  0.00  0.00    +0.000 A 
ATOM      2  C   UNL     1       2.695   6.906  19.636  0.00  0.00    +0.000 A 
ATOM      3  C   UNL     1       1.858   6.965  20.728  0.00  0.00    +0.000 A 
ATOM      4  N   UNL     1       1.078   5.927  21.067  0.00  0.00    +0.000 NA
ATOM      5  C   UNL     1       1.177   4.828  20.309  0.00  0.00    +0.000 A 
ATOM      6  N   UNL     1       1.962   4.671  19.236  0.00  0.00    +0.000 NA
ENDROOT
BRANCH   1  10
ATOM      7  C   UNL     1       5.499   5.264  15.645  0.00  0.00    +0.000 A 
ATOM      8  C   UNL     1       5.012   6.512  16.013  0.00  0.00    +0.000 A 
ATOM      9  C   UNL     1       4.124   6.654  17.071  0.00  0.00    +0.000 A 
ATOM     10  C   UNL     1       3.669   5.541  17.795  0.00  0.00    +0.000 A 
ATOM     11  C   UNL     1       4.156   4.282  17.416  0.00  0.00    +0.000 A 
ATOM     12  C   UNL     1       5.056   4.137  16.346  0.00  0.00    +0.000 A 
BRANCH   7  15
ATOM     13  C   UNL     1       6.155   4.391  13.409  0.00  0.00    +0.000 C 
ATOM     14  O   UNL     1       5.084   3.864  13.108  0.00  0.00    +0.000 OA
ATOM     15  N   UNL     1       6.417   5.100  14.581  0.00  0.00    +0.000 N 
ATOM     16  H   UNL     1       7.280   5.622  14.649  0.00  0.00    +0.000 HD
BRANCH  13  17
ATOM     17  C   UNL     1       7.326   4.283  12.461  0.00  0.00    +0.000 C 
BRANCH  17  19
ATOM     18  N   UNL     1       9.127   6.118  12.987  0.00  0.00    +0.000 NA
ATOM     19  C   UNL     1       8.319   5.310  12.761  0.00  0.00    +0.000 C 
ENDBRANCH  17  19
ENDBRANCH  13  17
ENDBRANCH   7  15
ENDBRANCH   1  10
BRANCH   3  20
ATOM     20  N   UNL     1       1.835   8.169  21.453  0.00  0.00    +0.000 N 
ATOM     21  H   UNL     1       2.504   8.199  22.210  0.00  0.00    +0.000 HD
BRANCH  20  22
ATOM     22  C   UNL     1       0.800   9.106  21.539  0.00  0.00    +0.000 A 
ATOM     23  C   UNL     1       0.203   9.380  22.768  0.00  0.00    +0.000 A 
ATOM     24  C   UNL     1      -0.773  10.377  22.879  0.00  0.00    +0.000 A 
ATOM     25  C   UNL     1      -1.189  11.129  21.774  0.00  0.00    +0.000 A 
ATOM     26  C   UNL     1      -0.614  10.804  20.538  0.00  0.00    +0.000 A 
ATOM     27  C   UNL     1       0.351   9.801  20.418  0.00  0.00    +0.000 A 
BRANCH  25  28
ATOM     28  N   UNL     1      -2.104  12.151  21.887  0.00  0.00    +0.000 N 
ATOM     29  C   UNL     1      -2.195  13.255  20.923  0.00  0.00    +0.000 C 
ATOM     30  C   UNL     1      -1.972  14.595  21.636  0.00  0.00    +0.000 C 
ATOM     31  O   UNL     1      -2.873  14.757  22.746  0.00  0.00    +0.000 OA
ATOM     32  C   UNL     1      -2.673  13.703  23.703  0.00  0.00    +0.000 C 
ATOM     33  C   UNL     1      -2.931  12.315  23.090  0.00  0.00    +0.000 C 
ENDBRANCH  25  28
ENDBRANCH  20  22
ENDBRANCH   3  20
TORSDOF 7
ENDMDL
MODEL 3
REMARK VINA RESULT:      -7.5      4.898      9.709
REMARK  Name = 
REMARK  7 active torsions:
REMARK  status: ('A' for Active; 'I' for Inactive)
REMARK    1  A    between atoms: C_2  and  C_3
REMARK    2  A    between atoms: C_3  and  C_4
REMARK    3  A    between atoms: N_6  and  C_7
REMARK    4  A    between atoms: C_10  and  C_11
REMARK    5  A    between atoms: C_13  and  N_14
REMARK    6  A    between atoms: N_14  and  C_15
REMARK    7  A    between atoms: C_18  and  N_19
REMARK                            x       y       z     vdW  Elec       q    Type
REMARK                         _______ _______ _______ _____ _____    ______ ____
ROOT
ATOM      1  C   UNL     1      -1.695  10.828  18.214  0.00  0.00    +0.000 A 
ATOM      2  C   UNL     1      -0.466  10.235  18.434  0.00  0.00    +0.000 A 
ATOM      3  C   UNL     1       0.148  10.459  19.646  0.00  0.00    +0.000 A 
ATOM      4  N   UNL     1      -0.407  11.253  20.575  0.00  0.00    +0.000 NA
ATOM      5  C   UNL     1      -1.596  11.791  20.273  0.00  0.00    +0.000 A 
ATOM      6  N   UNL     1      -2.274  11.628  19.130  0.00  0.00    +0.000 NA
ENDROOT
BRANCH   1  10
ATOM      7  C   UNL     1      -3.979  10.141  14.626  0.00  0.00    +0.000 A 
ATOM      8  C   UNL     1      -4.295  11.172  15.503  0.00  0.00    +0.000 A 
ATOM      9  C   UNL     1      -3.553  11.389  16.655  0.00  0.00    +0.000 A 
ATOM     10  C   UNL     1      -2.467  10.565  16.989  0.00  0.00    +0.000 A 
ATOM     11  C   UNL     1      -2.155   9.520  16.108  0.00  0.00    +0.000 A 
ATOM     12  C   UNL     1      -2.906   9.300  14.939  0.00  0.00    +0.000 A 
BRANCH   7  15
ATOM     13  C   UNL     1      -4.142   9.662  12.190  0.00  0.00    +0.000 C 
ATOM     14  O   UNL     1      -2.939   9.543  11.957  0.00  0.00    +0.000 OA
ATOM     15  N   UNL     1      -4.712   9.914  13.439  0.00  0.00    +0.000 N 
ATOM     16  H   UNL     1      -5.715   9.834  13.538  0.00  0.00    +0.000 HD
BRANCH  13  17
ATOM     17  C   UNL     1      -5.133   9.540  11.057  0.00  0.00    +0.000 C 
BRANCH  17  19
ATOM     18  N   UNL     1      -7.460  10.503  11.795  0.00  0.00    +0.000 NA
ATOM     19  C   UNL     1      -6.433  10.068  11.459  0.00  0.00    +0.000 C 
ENDBRANCH  17  19
ENDBRANCH  13  17
ENDBRANCH   7  15
ENDBRANCH   1  10
BRANCH   3  20
ATOM     20  N   UNL     1       1.394   9.844  19.856  0.00  0.00    +0.000 N 
ATOM     21  H   UNL     1       2.149  10.498  20.009  0.00  0.00    +0.000 HD
BRANCH  20  22
ATOM     22  C   UNL     1       1.794   8.554  19.491  0.00  0.00    +0.000 A 
ATOM     23  C   UNL     1       2.343   8.320  18.232  0.00  0.00    +0.000 A 
ATOM     24  C   UNL     1       2.824   7.050  17.890  0.00  0.00    +0.000 A 
ATOM     25  C   UNL     1       2.770   5.975  18.785  0.00  0.00    +0.000 A 
ATOM     26  C   UNL     1       2.168   6.217  20.027  0.00  0.00    +0.000 A 
ATOM     27  C   UNL     1       1.674   7.478  20.370  0.00  0.00    +0.000 A 
BRANCH  25  28
ATOM     28  N   UNL     1       3.296   4.741  18.477  0.00  0.00    +0.000 N 
ATOM     29  C   UNL     1       2.674   3.824  17.512  0.00  0.00    +0.000 C 
ATOM     30  C   UNL     1       2.328   2.495  18.197  0.00  0.00    +0.000 C 
ATOM     31  O   UNL     1       3.479   1.921  18.842  0.00  0.00    +0.000 OA
ATOM     32  C   UNL     1       3.986   2.820  19.842  0.00  0.00    +0.000 C 
ATOM     33  C   UNL     1       4.415   4.168  19.236  0.00  0.00    +0.000 C 
ENDBRANCH  25  28
ENDBRANCH  20  22
ENDBRANCH   3  20
TORSDOF 7
ENDMDL
MODEL 4
REMARK VINA RESULT:      -7.5      5.389      7.879
REMARK  Name = 
REMARK  7 active torsions:
REMARK  status: ('A' for Active; 'I' for Inactive)
REMARK    1  A    between atoms: C_2  and  C_3
REMARK    2  A    between atoms: C_3  and  C_4
REMARK    3  A    between atoms: N_6  and  C_7
REMARK    4  A    between atoms: C_10  and  C_11
REMARK    5  A    between atoms: C_13  and  N_14
REMARK    6  A    between atoms: N_14  and  C_15
REMARK    7  A    between atoms: C_18  and  N_19
REMARK                            x       y       z     vdW  Elec       q    Type
REMARK                         _______ _______ _______ _____ _____    ______ ____
ROOT
ATOM      1  C   UNL     1       0.450  10.930  19.128  0.00  0.00    +0.000 A 
ATOM      2  C   UNL     1       1.079  12.154  18.995  0.00  0.00    +0.000 A 
ATOM      3  C   UNL     1       0.329  13.289  19.210  0.00  0.00    +0.000 A 
ATOM      4  N   UNL     1      -0.978  13.217  19.505  0.00  0.00    +0.000 NA
ATOM      5  C   UNL     1      -1.505  11.990  19.607  0.00  0.00    +0.000 A 
ATOM      6  N   UNL     1      -0.860  10.831  19.424  0.00  0.00    +0.000 NA
ENDROOT
BRANCH   1  10
ATOM      7  C   UNL     1       2.583   7.197  18.851  0.00  0.00    +0.000 A 
ATOM      8  C   UNL     1       1.930   7.577  20.018  0.00  0.00    +0.000 A 
ATOM      9  C   UNL     1       1.242   8.779  20.099  0.00  0.00    +0.000 A 
ATOM     10  C   UNL     1       1.195   9.666  19.013  0.00  0.00    +0.000 A 
ATOM     11  C   UNL     1       1.861   9.286  17.839  0.00  0.00    +0.000 A 
ATOM     12  C   UNL     1       2.558   8.067  17.756  0.00  0.00    +0.000 A 
BRANCH   7  15
ATOM     13  C   UNL     1       2.740   4.803  18.192  0.00  0.00    +0.000 C 
ATOM     14  O   UNL     1       1.630   4.694  17.673  0.00  0.00    +0.000 OA
ATOM     15  N   UNL     1       3.274   5.968  18.743  0.00  0.00    +0.000 N 
ATOM     16  H   UNL     1       4.253   5.980  18.997  0.00  0.00    +0.000 HD
BRANCH  13  17
ATOM     17  C   UNL     1       3.644   3.596  18.271  0.00  0.00    +0.000 C 
BRANCH  17  19
ATOM     18  N   UNL     1       5.999   4.281  19.204  0.00  0.00    +0.000 NA
ATOM     19  C   UNL     1       4.951   3.972  18.801  0.00  0.00    +0.000 C 
ENDBRANCH  17  19
ENDBRANCH  13  17
ENDBRANCH   7  15
ENDBRANCH   1  10
BRANCH   3  20
ATOM     20  N   UNL     1       0.984  14.525  19.077  0.00  0.00    +0.000 N 
ATOM     21  H   UNL     1       0.407  15.248  18.672  0.00  0.00    +0.000 HD
BRANCH  20  22
ATOM     22  C   UNL     1       2.360  14.773  19.038  0.00  0.00    +0.000 A 
ATOM     23  C   UNL     1       3.115  14.727  20.209  0.00  0.00    +0.000 A 
ATOM     24  C   UNL     1       4.505  14.888  20.167  0.00  0.00    +0.000 A 
ATOM     25  C   UNL     1       5.187  15.105  18.964  0.00  0.00    +0.000 A 
ATOM     26  C   UNL     1       4.406  15.199  17.804  0.00  0.00    +0.000 A 
ATOM     27  C   UNL     1       3.017  15.052  17.840  0.00  0.00    +0.000 A 
BRANCH  25  28
ATOM     28  N   UNL     1       6.559  15.205  18.909  0.00  0.00    +0.000 N 
ATOM     29  C   UNL     1       7.350  14.741  17.762  0.00  0.00    +0.000 C 
ATOM     30  C   UNL     1       8.355  13.673  18.214  0.00  0.00    +0.000 C 
ATOM     31  O   UNL     1       9.176  14.148  19.296  0.00  0.00    +0.000 OA
ATOM     32  C   UNL     1       8.357  14.496  20.424  0.00  0.00    +0.000 C 
ATOM     33  C   UNL     1       7.350  15.608  20.079  0.00  0.00    +0.000 C 
ENDBRANCH  25  28
ENDBRANCH  20  22
ENDBRANCH   3  20
TORSDOF 7
ENDMDL
MODEL 5
REMARK VINA RESULT:      -7.4      1.536      2.198
REMARK  Name = 
REMARK  7 active torsions:
REMARK  status: ('A' for Active; 'I' for Inactive)
REMARK    1  A    between atoms: C_2  and  C_3
REMARK    2  A    between atoms: C_3  and  C_4
REMARK    3  A    between atoms: N_6  and  C_7
REMARK    4  A    between atoms: C_10  and  C_11
REMARK    5  A    between atoms: C_13  and  N_14
REMARK    6  A    between atoms: N_14  and  C_15
REMARK    7  A    between atoms: C_18  and  N_19
REMARK                            x       y       z     vdW  Elec       q    Type
REMARK                         _______ _______ _______ _____ _____    ______ ____
ROOT
ATOM      1  C   UNL     1       2.789   5.304  18.768  0.00  0.00    +0.000 A 
ATOM      2  C   UNL     1       2.644   6.414  19.578  0.00  0.00    +0.000 A 
ATOM      3  C   UNL     1       1.792   6.317  20.655  0.00  0.00    +0.000 A 
ATOM      4  N   UNL     1       1.096   5.196  20.897  0.00  0.00    +0.000 NA
ATOM      5  C   UNL     1       1.293   4.172  20.056  0.00  0.00    +0.000 A 
ATOM      6  N   UNL     1       2.103   4.167  18.989  0.00  0.00    +0.000 NA
ENDROOT
BRANCH   1  10
ATOM      7  C   UNL     1       5.575   5.172  15.484  0.00  0.00    +0.000 A 
ATOM      8  C   UNL     1       5.110   4.011  16.090  0.00  0.00    +0.000 A 
ATOM      9  C   UNL     1       4.209   4.061  17.145  0.00  0.00    +0.000 A 
ATOM     10  C   UNL     1       3.750   5.285  17.653  0.00  0.00    +0.000 A 
ATOM     11  C   UNL     1       4.226   6.456  17.046  0.00  0.00    +0.000 A 
ATOM     12  C   UNL     1       5.138   6.407  15.976  0.00  0.00    +0.000 A 
BRANCH   7  15
ATOM     13  C   UNL     1       6.301   4.383  13.239  0.00  0.00    +0.000 C 
ATOM     14  O   UNL     1       5.320   3.689  12.974  0.00  0.00    +0.000 OA
ATOM     15  N   UNL     1       6.479   5.141  14.397  0.00  0.00    +0.000 N 
ATOM     16  H   UNL     1       7.249   5.794  14.435  0.00  0.00    +0.000 HD
BRANCH  13  17
ATOM     17  C   UNL     1       7.449   4.449  12.259  0.00  0.00    +0.000 C 
BRANCH  17  19
ATOM     18  N   UNL     1       9.242   6.196  13.049  0.00  0.00    +0.000 NA
ATOM     19  C   UNL     1       8.437   5.430  12.699  0.00  0.00    +0.000 C 
ENDBRANCH  17  19
ENDBRANCH  13  17
ENDBRANCH   7  15
ENDBRANCH   1  10
BRANCH   3  20
ATOM     20  N   UNL     1       1.661   7.453  21.473  0.00  0.00    +0.000 N 
ATOM     21  H   UNL     1       1.850   7.274  22.449  0.00  0.00    +0.000 HD
BRANCH  20  22
ATOM     22  C   UNL     1       0.944   8.626  21.214  0.00  0.00    +0.000 A 
ATOM     23  C   UNL     1       0.218   9.243  22.230  0.00  0.00    +0.000 A 
ATOM     24  C   UNL     1      -0.431  10.462  22.003  0.00  0.00    +0.000 A 
ATOM     25  C   UNL     1      -0.383  11.103  20.759  0.00  0.00    +0.000 A 
ATOM     26  C   UNL     1       0.309  10.443  19.736  0.00  0.00    +0.000 A 
ATOM     27  C   UNL     1       0.948   9.219  19.952  0.00  0.00    +0.000 A 
BRANCH  25  28
ATOM     28  N   UNL     1      -0.968  12.331  20.546  0.00  0.00    +0.000 N 
ATOM     29  C   UNL     1      -1.130  12.920  19.210  0.00  0.00    +0.000 C 
ATOM     30  C   UNL     1      -0.404  14.270  19.140  0.00  0.00    +0.000 C 
ATOM     31  O   UNL     1      -0.835  15.155  20.189  0.00  0.00    +0.000 OA
ATOM     32  C   UNL     1      -0.564  14.568  21.474  0.00  0.00    +0.000 C 
ATOM     33  C   UNL     1      -1.301  13.230  21.659  0.00  0.00    +0.000 C 
ENDBRANCH  25  28
ENDBRANCH  20  22
ENDBRANCH   3  20
TORSDOF 7
ENDMDL
MODEL 6
REMARK VINA RESULT:      -7.4      2.053      3.331
REMARK  Name = 
REMARK  7 active torsions:
REMARK  status: ('A' for Active; 'I' for Inactive)
REMARK    1  A    between atoms: C_2  and  C_3
REMARK    2  A    between atoms: C_3  and  C_4
REMARK    3  A    between atoms: N_6  and  C_7
REMARK    4  A    between atoms: C_10  and  C_11
REMARK    5  A    between atoms: C_13  and  N_14
REMARK    6  A    between atoms: N_14  and  C_15
REMARK    7  A    between atoms: C_18  and  N_19
REMARK                            x       y       z     vdW  Elec       q    Type
REMARK                         _______ _______ _______ _____ _____    ______ ____
ROOT
ATOM      1  C   UNL     1       1.996   7.628  19.356  0.00  0.00    +0.000 A 
ATOM      2  C   UNL     1       1.519   8.858  18.943  0.00  0.00    +0.000 A 
ATOM      3  C   UNL     1       0.888   9.649  19.877  0.00  0.00    +0.000 A 
ATOM      4  N   UNL     1       0.710   9.232  21.140  0.00  0.00    +0.000 NA
ATOM      5  C   UNL     1       1.199   8.025  21.449  0.00  0.00    +0.000 A 
ATOM      6  N   UNL     1       1.831   7.187  20.617  0.00  0.00    +0.000 NA
ENDROOT
BRANCH   1  10
ATOM      7  C   UNL     1       4.317   5.141  16.712  0.00  0.00    +0.000 A 
ATOM      8  C   UNL     1       4.524   6.513  16.789  0.00  0.00    +0.000 A 
ATOM      9  C   UNL     1       3.776   7.307  17.646  0.00  0.00    +0.000 A 
ATOM     10  C   UNL     1       2.767   6.759  18.452  0.00  0.00    +0.000 A 
ATOM     11  C   UNL     1       2.553   5.376  18.368  0.00  0.00    +0.000 A 
ATOM     12  C   UNL     1       3.312   4.570  17.500  0.00  0.00    +0.000 A 
BRANCH   7  15
ATOM     13  C   UNL     1       5.930   4.777  14.853  0.00  0.00    +0.000 C 
ATOM     14  O   UNL     1       6.181   5.957  14.609  0.00  0.00    +0.000 OA
ATOM     15  N   UNL     1       5.081   4.312  15.858  0.00  0.00    +0.000 N 
ATOM     16  H   UNL     1       5.075   3.324  16.069  0.00  0.00    +0.000 HD
BRANCH  13  17
ATOM     17  C   UNL     1       6.569   3.694  14.017  0.00  0.00    +0.000 C 
BRANCH  17  19
ATOM     18  N   UNL     1       5.143   3.278  11.853  0.00  0.00    +0.000 NA
ATOM     19  C   UNL     1       5.782   3.451  12.812  0.00  0.00    +0.000 C 
ENDBRANCH  17  19
ENDBRANCH  13  17
ENDBRANCH   7  15
ENDBRANCH   1  10
BRANCH   3  20
ATOM     20  N   UNL     1       0.414  10.899  19.442  0.00  0.00    +0.000 N 
ATOM     21  H   UNL     1       1.074  11.652  19.578  0.00  0.00    +0.000 HD
BRANCH  20  22
ATOM     22  C   UNL     1      -0.911  11.300  19.247  0.00  0.00    +0.000 A 
ATOM     23  C   UNL     1      -1.659  10.764  18.200  0.00  0.00    +0.000 A 
ATOM     24  C   UNL     1      -3.011  11.094  18.048  0.00  0.00    +0.000 A 
ATOM     25  C   UNL     1      -3.660  11.969  18.927  0.00  0.00    +0.000 A 
ATOM     26  C   UNL     1      -2.879  12.538  19.942  0.00  0.00    +0.000 A 
ATOM     27  C   UNL     1      -1.526  12.223  20.092  0.00  0.00    +0.000 A 
BRANCH  25  28
ATOM     28  N   UNL     1      -5.003  12.251  18.819  0.00  0.00    +0.000 N 
ATOM     29  C   UNL     1      -5.690  13.218  19.685  0.00  0.00    +0.000 C 
ATOM     30  C   UNL     1      -6.825  12.526  20.450  0.00  0.00    +0.000 C 
ATOM     31  O   UNL     1      -7.726  11.848  19.556  0.00  0.00    +0.000 OA
ATOM     32  C   UNL     1      -7.018  10.847  18.805  0.00  0.00    +0.000 C 
ATOM     33  C   UNL     1      -5.890  11.460  17.956  0.00  0.00    +0.000 C 
ENDBRANCH  25  28
ENDBRANCH  20  22
ENDBRANCH   3  20
TORSDOF 7
ENDMDL
MODEL 7
REMARK VINA RESULT:      -7.4      3.861      6.114
REMARK  Name = 
REMARK  7 active torsions:
REMARK  status: ('A' for Active; 'I' for Inactive)
REMARK    1  A    between atoms: C_2  and  C_3
REMARK    2  A    between atoms: C_3  and  C_4
REMARK    3  A    between atoms: N_6  and  C_7
REMARK    4  A    between atoms: C_10  and  C_11
REMARK    5  A    between atoms: C_13  and  N_14
REMARK    6  A    between atoms: N_14  and  C_15
REMARK    7  A    between atoms: C_18  and  N_19
REMARK                            x       y       z     vdW  Elec       q    Type
REMARK                         _______ _______ _______ _____ _____    ______ ____
ROOT
ATOM      1  C   UNL     1       0.938   9.890  20.127  0.00  0.00    +0.000 A 
ATOM      2  C   UNL     1       0.367  10.194  21.349  0.00  0.00    +0.000 A 
ATOM      3  C   UNL     1      -0.183  11.446  21.508  0.00  0.00    +0.000 A 
ATOM      4  N   UNL     1      -0.139  12.359  20.525  0.00  0.00    +0.000 NA
ATOM      5  C   UNL     1       0.440  11.980  19.378  0.00  0.00    +0.000 A 
ATOM      6  N   UNL     1       0.994  10.787  19.125  0.00  0.00    +0.000 NA
ENDROOT
BRANCH   1  10
ATOM      7  C   UNL     1       2.523   5.989  19.217  0.00  0.00    +0.000 A 
ATOM      8  C   UNL     1       2.565   7.024  18.292  0.00  0.00    +0.000 A 
ATOM      9  C   UNL     1       2.056   8.280  18.593  0.00  0.00    +0.000 A 
ATOM     10  C   UNL     1       1.461   8.546  19.836  0.00  0.00    +0.000 A 
ATOM     11  C   UNL     1       1.411   7.497  20.766  0.00  0.00    +0.000 A 
ATOM     12  C   UNL     1       1.928   6.225  20.462  0.00  0.00    +0.000 A 
BRANCH   7  15
ATOM     13  C   UNL     1       2.411   3.737  18.165  0.00  0.00    +0.000 C 
ATOM     14  O   UNL     1       1.338   3.874  17.578  0.00  0.00    +0.000 OA
ATOM     15  N   UNL     1       3.052   4.708  18.936  0.00  0.00    +0.000 N 
ATOM     16  H   UNL     1       4.001   4.538  19.237  0.00  0.00    +0.000 HD
BRANCH  13  17
ATOM     17  C   UNL     1       3.138   2.416  18.082  0.00  0.00    +0.000 C 
BRANCH  17  19
ATOM     18  N   UNL     1       4.735   2.101  20.141  0.00  0.00    +0.000 NA
ATOM     19  C   UNL     1       4.017   2.246  19.235  0.00  0.00    +0.000 C 
ENDBRANCH  17  19
ENDBRANCH  13  17
ENDBRANCH   7  15
ENDBRANCH   1  10
BRANCH   3  20
ATOM     20  N   UNL     1      -0.765  11.737  22.753  0.00  0.00    +0.000 N 
ATOM     21  H   UNL     1      -0.699  10.979  23.418  0.00  0.00    +0.000 HD
BRANCH  20  22
ATOM     22  C   UNL     1      -1.730  12.705  23.052  0.00  0.00    +0.000 A 
ATOM     23  C   UNL     1      -3.082  12.368  23.058  0.00  0.00    +0.000 A 
ATOM     24  C   UNL     1      -4.048  13.307  23.439  0.00  0.00    +0.000 A 
ATOM     25  C   UNL     1      -3.702  14.609  23.820  0.00  0.00    +0.000 A 
ATOM     26  C   UNL     1      -2.343  14.944  23.758  0.00  0.00    +0.000 A 
ATOM     27  C   UNL     1      -1.375  14.015  23.366  0.00  0.00    +0.000 A 
BRANCH  25  28
ATOM     28  N   UNL     1      -4.641  15.517  24.253  0.00  0.00    +0.000 N 
ATOM     29  C   UNL     1      -6.039  15.499  23.804  0.00  0.00    +0.000 C 
ATOM     30  C   UNL     1      -6.392  16.830  23.127  0.00  0.00    +0.000 C 
ATOM     31  O   UNL     1      -6.101  17.949  23.983  0.00  0.00    +0.000 OA
ATOM     32  C   UNL     1      -4.702  17.972  24.311  0.00  0.00    +0.000 C 
ATOM     33  C   UNL     1      -4.266  16.694  25.049  0.00  0.00    +0.000 C 
ENDBRANCH  25  28
ENDBRANCH  20  22
ENDBRANCH   3  20
TORSDOF 7
ENDMDL
MODEL 8
REMARK VINA RESULT:      -7.4      2.743     12.406
REMARK  Name = 
REMARK  7 active torsions:
REMARK  status: ('A' for Active; 'I' for Inactive)
REMARK    1  A    between atoms: C_2  and  C_3
REMARK    2  A    between atoms: C_3  and  C_4
REMARK    3  A    between atoms: N_6  and  C_7
REMARK    4  A    between atoms: C_10  and  C_11
REMARK    5  A    between atoms: C_13  and  N_14
REMARK    6  A    between atoms: N_14  and  C_15
REMARK    7  A    between atoms: C_18  and  N_19
REMARK                            x       y       z     vdW  Elec       q    Type
REMARK                         _______ _______ _______ _____ _____    ______ ____
ROOT
ATOM      1  C   UNL     1      -0.393  10.618  21.783  0.00  0.00    +0.000 A 
ATOM      2  C   UNL     1      -0.043  10.182  20.519  0.00  0.00    +0.000 A 
ATOM      3  C   UNL     1       0.935   9.218  20.420  0.00  0.00    +0.000 A 
ATOM      4  N   UNL     1       1.557   8.738  21.508  0.00  0.00    +0.000 NA
ATOM      5  C   UNL     1       1.158   9.223  22.691  0.00  0.00    +0.000 A 
ATOM      6  N   UNL     1       0.215  10.152  22.891  0.00  0.00    +0.000 NA
ENDROOT
BRANCH   1  10
ATOM      7  C   UNL     1      -3.597  13.414  22.472  0.00  0.00    +0.000 A 
ATOM      8  C   UNL     1      -3.149  12.561  23.472  0.00  0.00    +0.000 A 
ATOM      9  C   UNL     1      -2.114  11.665  23.245  0.00  0.00    +0.000 A 
ATOM     10  C   UNL     1      -1.493  11.573  21.990  0.00  0.00    +0.000 A 
ATOM     11  C   UNL     1      -1.951  12.429  20.978  0.00  0.00    +0.000 A 
ATOM     12  C   UNL     1      -3.000  13.338  21.209  0.00  0.00    +0.000 A 
BRANCH   7  15
ATOM     13  C   UNL     1      -5.990  14.093  22.456  0.00  0.00    +0.000 C 
ATOM     14  O   UNL     1      -6.472  13.020  22.092  0.00  0.00    +0.000 OA
ATOM     15  N   UNL     1      -4.638  14.346  22.689  0.00  0.00    +0.000 N 
ATOM     16  H   UNL     1      -4.378  15.214  23.137  0.00  0.00    +0.000 HD
BRANCH  13  17
ATOM     17  C   UNL     1      -6.902  15.276  22.680  0.00  0.00    +0.000 C 
BRANCH  17  19
ATOM     18  N   UNL     1      -5.488  17.430  23.180  0.00  0.00    +0.000 NA
ATOM     19  C   UNL     1      -6.118  16.478  22.946  0.00  0.00    +0.000 C 
ENDBRANCH  17  19
ENDBRANCH  13  17
ENDBRANCH   7  15
ENDBRANCH   1  10
BRANCH   3  20
ATOM     20  N   UNL     1       1.274   8.780  19.128  0.00  0.00    +0.000 N 
ATOM     21  H   UNL     1       0.565   8.975  18.435  0.00  0.00    +0.000 HD
BRANCH  20  22
ATOM     22  C   UNL     1       2.207   7.804  18.763  0.00  0.00    +0.000 A 
ATOM     23  C   UNL     1       3.100   8.042  17.720  0.00  0.00    +0.000 A 
ATOM     24  C   UNL     1       4.093   7.107  17.404  0.00  0.00    +0.000 A 
ATOM     25  C   UNL     1       4.227   5.906  18.111  0.00  0.00    +0.000 A 
ATOM     26  C   UNL     1       3.289   5.661  19.122  0.00  0.00    +0.000 A 
ATOM     27  C   UNL     1       2.287   6.585  19.434  0.00  0.00    +0.000 A 
BRANCH  25  28
ATOM     28  N   UNL     1       5.237   5.010  17.845  0.00  0.00    +0.000 N 
ATOM     29  C   UNL     1       6.366   4.783  18.757  0.00  0.00    +0.000 C 
ATOM     30  C   UNL     1       7.689   5.095  18.045  0.00  0.00    +0.000 C 
ATOM     31  O   UNL     1       7.813   4.354  16.818  0.00  0.00    +0.000 OA
ATOM     32  C   UNL     1       6.735   4.688  15.926  0.00  0.00    +0.000 C 
ATOM     33  C   UNL     1       5.363   4.355  16.537  0.00  0.00    +0.000 C 
ENDBRANCH  25  28
ENDBRANCH  20  22
ENDBRANCH   3  20
TORSDOF 7
ENDMDL
MODEL 9
REMARK VINA RESULT:      -7.3      5.698      8.155
REMARK  Name = 
REMARK  7 active torsions:
REMARK  status: ('A' for Active; 'I' for Inactive)
REMARK    1  A    between atoms: C_2  and  C_3
REMARK    2  A    between atoms: C_3  and  C_4
REMARK    3  A    between atoms: N_6  and  C_7
REMARK    4  A    between atoms: C_10  and  C_11
REMARK    5  A    between atoms: C_13  and  N_14
REMARK    6  A    between atoms: N_14  and  C_15
REMARK    7  A    between atoms: C_18  and  N_19
REMARK                            x       y       z     vdW  Elec       q    Type
REMARK                         _______ _______ _______ _____ _____    ______ ____
ROOT
ATOM      1  C   UNL     1       0.571  10.901  18.673  0.00  0.00    +0.000 A 
ATOM      2  C   UNL     1       1.259  12.083  18.872  0.00  0.00    +0.000 A 
ATOM      3  C   UNL     1       0.556  13.262  18.763  0.00  0.00    +0.000 A 
ATOM      4  N   UNL     1      -0.746  13.272  18.440  0.00  0.00    +0.000 NA
ATOM      5  C   UNL     1      -1.330  12.080  18.258  0.00  0.00    +0.000 A 
ATOM      6  N   UNL     1      -0.735  10.884  18.349  0.00  0.00    +0.000 NA
ENDROOT
BRANCH   1  10
ATOM      7  C   UNL     1       2.518   7.090  19.170  0.00  0.00    +0.000 A 
ATOM      8  C   UNL     1       2.519   7.753  17.950  0.00  0.00    +0.000 A 
ATOM      9  C   UNL     1       1.893   8.982  17.797  0.00  0.00    +0.000 A 
ATOM     10  C   UNL     1       1.218   9.593  18.865  0.00  0.00    +0.000 A 
ATOM     11  C   UNL     1       1.211   8.919  20.095  0.00  0.00    +0.000 A 
ATOM     12  C   UNL     1       1.846   7.674  20.250  0.00  0.00    +0.000 A 
BRANCH   7  15
ATOM     13  C   UNL     1       2.541   4.604  19.237  0.00  0.00    +0.000 C 
ATOM     14  O   UNL     1       1.370   4.412  18.911  0.00  0.00    +0.000 OA
ATOM     15  N   UNL     1       3.166   5.846  19.350  0.00  0.00    +0.000 N 
ATOM     16  H   UNL     1       4.169   5.874  19.470  0.00  0.00    +0.000 HD
BRANCH  13  17
ATOM     17  C   UNL     1       3.423   3.421  19.562  0.00  0.00    +0.000 C 
BRANCH  17  19
ATOM     18  N   UNL     1       5.939   4.039  19.138  0.00  0.00    +0.000 NA
ATOM     19  C   UNL     1       4.824   3.752  19.324  0.00  0.00    +0.000 C 
ENDBRANCH  17  19
ENDBRANCH  13  17
ENDBRANCH   7  15
ENDBRANCH   1  10
BRANCH   3  20
ATOM     20  N   UNL     1       1.269  14.455  18.974  0.00  0.00    +0.000 N 
ATOM     21  H   UNL     1       0.758  15.285  18.710  0.00  0.00    +0.000 HD
BRANCH  20  22
ATOM     22  C   UNL     1       2.652  14.625  19.098  0.00  0.00    +0.000 A 
ATOM     23  C   UNL     1       3.448  14.740  17.960  0.00  0.00    +0.000 A 
ATOM     24  C   UNL     1       4.820  14.996  18.074  0.00  0.00    +0.000 A 
ATOM     25  C   UNL     1       5.443  15.141  19.319  0.00  0.00    +0.000 A 
ATOM     26  C   UNL     1       4.636  14.971  20.452  0.00  0.00    +0.000 A 
ATOM     27  C   UNL     1       3.268  14.702  20.346  0.00  0.00    +0.000 A 
BRANCH  25  28
ATOM     28  N   UNL     1       6.779  15.452  19.437  0.00  0.00    +0.000 N 
ATOM     29  C   UNL     1       7.418  16.535  18.678  0.00  0.00    +0.000 C 
ATOM     30  C   UNL     1       8.558  15.974  17.819  0.00  0.00    +0.000 C 
ATOM     31  O   UNL     1       9.497  15.227  18.613  0.00  0.00    +0.000 OA
ATOM     32  C   UNL     1       8.836  14.124  19.254  0.00  0.00    +0.000 C 
ATOM     33  C   UNL     1       7.707  14.596  20.187  0.00  0.00    +0.000 C 
ENDBRANCH  25  28
ENDBRANCH  20  22
ENDBRANCH   3  20
TORSDOF 7
ENDMDL
