MODEL 1
REMARK VINA RESULT:      -7.2      0.000      0.000
REMARK  Name = 
REMARK  5 active torsions:
REMARK  status: ('A' for Active; 'I' for Inactive)
REMARK    1  A    between atoms: C_1  and  C_2
REMARK    2  A    between atoms: C_9  and  O_10
REMARK    3  A    between atoms: C_11  and  C_12
REMARK    4  A    between atoms: C_12  and  C_14
REMARK    5  A    between atoms: C_19  and  C_20
REMARK                            x       y       z     vdW  Elec       q    Type
REMARK                         _______ _______ _______ _____ _____    ______ ____
ROOT
ATOM      1  C   UNL     1       4.480  15.118  21.945  0.00  0.00    +0.000 C 
ATOM      2  C   UNL     1       3.314  14.619  21.176  0.00  0.00    +0.000 A 
ATOM      3  N   UNL     1       3.370  13.848  20.111  0.00  0.00    +0.000 NA
ATOM      4  N   UNL     1       2.110  13.457  19.695  0.00  0.00    +0.000 NA
ATOM      5  C   UNL     1       1.152  13.988  20.423  0.00  0.00    +0.000 A 
ATOM      6  N   UNL     1      -0.193  13.705  20.311  0.00  0.00    +0.000 N 
ATOM      7  C   UNL     1      -1.178  14.582  20.714  0.00  0.00    +0.000 C 
ATOM      8  O   UNL     1      -1.133  15.678  21.248  0.00  0.00    +0.000 OA
ATOM      9  C   UNL     1      -2.471  13.994  20.321  0.00  0.00    +0.000 C 
ATOM     10  C   UNL     1      -2.227  12.834  19.707  0.00  0.00    +0.000 C 
ATOM     11  C   UNL     1      -0.750  12.530  19.654  0.00  0.00    +0.000 C 
ATOM     12  S   UNL     1       1.723  14.999  21.682  0.00  0.00    +0.000 S 
ENDROOT
BRANCH  11  13
ATOM     13  C   UNL     1      -0.339  11.248  20.392  0.00  0.00    +0.000 A 
ATOM     14  C   UNL     1      -0.734  11.084  21.740  0.00  0.00    +0.000 A 
ATOM     15  C   UNL     1      -0.360   9.963  22.471  0.00  0.00    +0.000 A 
ATOM     16  C   UNL     1       0.428   8.984  21.880  0.00  0.00    +0.000 A 
ATOM     17  C   UNL     1       0.854   9.109  20.553  0.00  0.00    +0.000 A 
ATOM     18  C   UNL     1       1.663   8.102  19.998  0.00  0.00    +0.000 A 
ATOM     19  C   UNL     1       2.125   8.190  18.689  0.00  0.00    +0.000 A 
ATOM     20  C   UNL     1       1.789   9.293  17.919  0.00  0.00    +0.000 A 
ATOM     21  C   UNL     1       0.982  10.300  18.458  0.00  0.00    +0.000 A 
ATOM     22  C   UNL     1       0.484  10.245  19.783  0.00  0.00    +0.000 A 
ENDBRANCH  11  13
BRANCH   9  23
ATOM     23  O   UNL     1      -3.655  14.623  20.579  0.00  0.00    +0.000 OA
ATOM     24  H   UNL     1      -4.026  14.179  21.369  0.00  0.00    +0.000 HD
ENDBRANCH   9  23
BRANCH  10  25
ATOM     25  C   UNL     1      -3.308  11.937  19.224  0.00  0.00    +0.000 C 
ATOM     26  O   UNL     1      -4.334  11.823  19.895  0.00  0.00    +0.000 OA
BRANCH  25  27
ATOM     27  C   UNL     1      -3.139  11.188  17.995  0.00  0.00    +0.000 A 
ATOM     28  C   UNL     1      -2.607   9.928  17.783  0.00  0.00    +0.000 A 
ATOM     29  C   UNL     1      -2.650   9.692  16.389  0.00  0.00    +0.000 A 
ATOM     30  C   UNL     1      -3.214  10.813  15.832  0.00  0.00    +0.000 A 
ATOM     31  O   UNL     1      -3.538  11.710  16.797  0.00  0.00    +0.000 OA
ENDBRANCH  25  27
ENDBRANCH  10  25
TORSDOF 4
ENDMDL
MODEL 2
REMARK VINA RESULT:      -6.4      2.319      3.581
REMARK  Name = 
REMARK  5 active torsions:
REMARK  status: ('A' for Active; 'I' for Inactive)
REMARK    1  A    between atoms: C_1  and  C_2
REMARK    2  A    between atoms: C_9  and  O_10
REMARK    3  A    between atoms: C_11  and  C_12
REMARK    4  A    between atoms: C_12  and  C_14
REMARK    5  A    between atoms: C_19  and  C_20
REMARK                            x       y       z     vdW  Elec       q    Type
REMARK                         _______ _______ _______ _____ _____    ______ ____
ROOT
ATOM      1  C   UNL     1       3.788  15.949  19.768  0.00  0.00    +0.000 C 
ATOM      2  C   UNL     1       2.376  15.587  20.043  0.00  0.00    +0.000 A 
ATOM      3  N   UNL     1       1.462  15.321  19.135  0.00  0.00    +0.000 NA
ATOM      4  N   UNL     1       0.276  14.902  19.710  0.00  0.00    +0.000 NA
ATOM      5  C   UNL     1       0.321  14.919  21.025  0.00  0.00    +0.000 A 
ATOM      6  N   UNL     1      -0.670  14.461  21.868  0.00  0.00    +0.000 N 
ATOM      7  C   UNL     1      -0.817  14.914  23.163  0.00  0.00    +0.000 C 
ATOM      8  O   UNL     1      -0.172  15.700  23.837  0.00  0.00    +0.000 OA
ATOM      9  C   UNL     1      -2.046  14.302  23.700  0.00  0.00    +0.000 C 
ATOM     10  C   UNL     1      -2.581  13.542  22.741  0.00  0.00    +0.000 C 
ATOM     11  C   UNL     1      -1.746  13.559  21.484  0.00  0.00    +0.000 C 
ATOM     12  S   UNL     1       1.824  15.440  21.656  0.00  0.00    +0.000 S 
ENDROOT
BRANCH  11  13
ATOM     13  C   UNL     1      -1.188  12.188  21.075  0.00  0.00    +0.000 A 
ATOM     14  C   UNL     1      -0.318  11.516  21.965  0.00  0.00    +0.000 A 
ATOM     15  C   UNL     1       0.249  10.292  21.633  0.00  0.00    +0.000 A 
ATOM     16  C   UNL     1      -0.027   9.714  20.402  0.00  0.00    +0.000 A 
ATOM     17  C   UNL     1      -0.871  10.348  19.483  0.00  0.00    +0.000 A 
ATOM     18  C   UNL     1      -1.113   9.734  18.241  0.00  0.00    +0.000 A 
ATOM     19  C   UNL     1      -1.931  10.334  17.289  0.00  0.00    +0.000 A 
ATOM     20  C   UNL     1      -2.513  11.561  17.565  0.00  0.00    +0.000 A 
ATOM     21  C   UNL     1      -2.285  12.180  18.798  0.00  0.00    +0.000 A 
ATOM     22  C   UNL     1      -1.465  11.599  19.798  0.00  0.00    +0.000 A 
ENDBRANCH  11  13
BRANCH   9  23
ATOM     23  O   UNL     1      -2.477  14.551  24.971  0.00  0.00    +0.000 OA
ATOM     24  H   UNL     1      -3.148  13.865  25.164  0.00  0.00    +0.000 HD
ENDBRANCH   9  23
BRANCH  10  25
ATOM     25  C   UNL     1      -3.804  12.726  22.951  0.00  0.00    +0.000 C 
ATOM     26  O   UNL     1      -3.854  11.962  23.916  0.00  0.00    +0.000 OA
BRANCH  25  27
ATOM     27  C   UNL     1      -4.908  12.810  22.015  0.00  0.00    +0.000 A 
ATOM     28  C   UNL     1      -5.106  13.665  20.945  0.00  0.00    +0.000 A 
ATOM     29  C   UNL     1      -6.365  13.341  20.387  0.00  0.00    +0.000 A 
ATOM     30  C   UNL     1      -6.856  12.302  21.140  0.00  0.00    +0.000 A 
ATOM     31  O   UNL     1      -5.970  11.957  22.108  0.00  0.00    +0.000 OA
ENDBRANCH  25  27
ENDBRANCH  10  25
TORSDOF 4
ENDMDL
MODEL 3
REMARK VINA RESULT:      -6.4      7.511     10.497
REMARK  Name = 
REMARK  5 active torsions:
REMARK  status: ('A' for Active; 'I' for Inactive)
REMARK    1  A    between atoms: C_1  and  C_2
REMARK    2  A    between atoms: C_9  and  O_10
REMARK    3  A    between atoms: C_11  and  C_12
REMARK    4  A    between atoms: C_12  and  C_14
REMARK    5  A    between atoms: C_19  and  C_20
REMARK                            x       y       z     vdW  Elec       q    Type
REMARK                         _______ _______ _______ _____ _____    ______ ____
ROOT
ATOM      1  C   UNL     1       1.714   9.846  18.885  0.00  0.00    +0.000 C 
ATOM      2  C   UNL     1       1.959   8.395  18.701  0.00  0.00    +0.000 A 
ATOM      3  N   UNL     1       2.099   7.781  17.545  0.00  0.00    +0.000 NA
ATOM      4  N   UNL     1       2.435   6.450  17.709  0.00  0.00    +0.000 NA
ATOM      5  C   UNL     1       2.481   6.096  18.975  0.00  0.00    +0.000 A 
ATOM      6  N   UNL     1       2.885   4.865  19.451  0.00  0.00    +0.000 N 
ATOM      7  C   UNL     1       2.480   4.366  20.671  0.00  0.00    +0.000 C 
ATOM      8  O   UNL     1       1.787   4.831  21.560  0.00  0.00    +0.000 OA
ATOM      9  C   UNL     1       3.002   2.991  20.773  0.00  0.00    +0.000 C 
ATOM     10  C   UNL     1       3.666   2.718  19.646  0.00  0.00    +0.000 C 
ATOM     11  C   UNL     1       3.668   3.893  18.700  0.00  0.00    +0.000 C 
ATOM     12  S   UNL     1       2.128   7.370  20.061  0.00  0.00    +0.000 S 
ENDROOT
BRANCH  11  13
ATOM     13  C   UNL     1       5.064   4.447  18.381  0.00  0.00    +0.000 A 
ATOM     14  C   UNL     1       5.836   4.991  19.434  0.00  0.00    +0.000 A 
ATOM     15  C   UNL     1       7.089   5.543  19.199  0.00  0.00    +0.000 A 
ATOM     16  C   UNL     1       7.598   5.578  17.908  0.00  0.00    +0.000 A 
ATOM     17  C   UNL     1       6.865   5.064  16.832  0.00  0.00    +0.000 A 
ATOM     18  C   UNL     1       7.411   5.133  15.538  0.00  0.00    +0.000 A 
ATOM     19  C   UNL     1       6.713   4.652  14.436  0.00  0.00    +0.000 A 
ATOM     20  C   UNL     1       5.454   4.101  14.613  0.00  0.00    +0.000 A 
ATOM     21  C   UNL     1       4.900   4.022  15.895  0.00  0.00    +0.000 A 
ATOM     22  C   UNL     1       5.581   4.493  17.045  0.00  0.00    +0.000 A 
ENDBRANCH  11  13
BRANCH   9  23
ATOM     23  O   UNL     1       2.773   2.214  21.871  0.00  0.00    +0.000 OA
ATOM     24  H   UNL     1       3.357   1.435  21.773  0.00  0.00    +0.000 HD
ENDBRANCH   9  23
BRANCH  10  25
ATOM     25  C   UNL     1       4.377   1.432  19.424  0.00  0.00    +0.000 C 
ATOM     26  O   UNL     1       4.256   0.862  18.340  0.00  0.00    +0.000 OA
BRANCH  25  27
ATOM     27  C   UNL     1       5.177   0.850  20.483  0.00  0.00    +0.000 A 
ATOM     28  C   UNL     1       5.688  -0.430  20.614  0.00  0.00    +0.000 A 
ATOM     29  C   UNL     1       6.367  -0.477  21.854  0.00  0.00    +0.000 A 
ATOM     30  C   UNL     1       6.243   0.777  22.401  0.00  0.00    +0.000 A 
ATOM     31  O   UNL     1       5.549   1.592  21.567  0.00  0.00    +0.000 OA
ENDBRANCH  25  27
ENDBRANCH  10  25
TORSDOF 4
ENDMDL
MODEL 4
REMARK VINA RESULT:      -6.4      0.918      2.194
REMARK  Name = 
REMARK  5 active torsions:
REMARK  status: ('A' for Active; 'I' for Inactive)
REMARK    1  A    between atoms: C_1  and  C_2
REMARK    2  A    between atoms: C_9  and  O_10
REMARK    3  A    between atoms: C_11  and  C_12
REMARK    4  A    between atoms: C_12  and  C_14
REMARK    5  A    between atoms: C_19  and  C_20
REMARK                            x       y       z     vdW  Elec       q    Type
REMARK                         _______ _______ _______ _____ _____    ______ ____
ROOT
ATOM      1  C   UNL     1       5.022  15.239  20.195  0.00  0.00    +0.000 C 
ATOM      2  C   UNL     1       3.743  14.739  19.634  0.00  0.00    +0.000 A 
ATOM      3  N   UNL     1       3.606  14.082  18.502  0.00  0.00    +0.000 NA
ATOM      4  N   UNL     1       2.306  13.649  18.315  0.00  0.00    +0.000 NA
ATOM      5  C   UNL     1       1.502  14.041  19.279  0.00  0.00    +0.000 A 
ATOM      6  N   UNL     1       0.178  13.679  19.417  0.00  0.00    +0.000 N 
ATOM      7  C   UNL     1      -0.738  14.444  20.109  0.00  0.00    +0.000 C 
ATOM      8  O   UNL     1      -0.631  15.482  20.740  0.00  0.00    +0.000 OA
ATOM      9  C   UNL     1      -2.057  13.811  19.929  0.00  0.00    +0.000 C 
ATOM     10  C   UNL     1      -1.896  12.736  19.153  0.00  0.00    +0.000 C 
ATOM     11  C   UNL     1      -0.452  12.540  18.764  0.00  0.00    +0.000 C 
ATOM     12  S   UNL     1       2.280  14.959  20.496  0.00  0.00    +0.000 S 
ENDROOT
BRANCH  11  13
ATOM     13  C   UNL     1       0.164  11.222  19.256  0.00  0.00    +0.000 A 
ATOM     14  C   UNL     1       0.870  10.415  18.333  0.00  0.00    +0.000 A 
ATOM     15  C   UNL     1       1.415   9.194  18.710  0.00  0.00    +0.000 A 
ATOM     16  C   UNL     1       1.259   8.741  20.013  0.00  0.00    +0.000 A 
ATOM     17  C   UNL     1       0.555   9.497  20.958  0.00  0.00    +0.000 A 
ATOM     18  C   UNL     1       0.408   8.994  22.262  0.00  0.00    +0.000 A 
ATOM     19  C   UNL     1      -0.297   9.702  23.231  0.00  0.00    +0.000 A 
ATOM     20  C   UNL     1      -0.869  10.921  22.904  0.00  0.00    +0.000 A 
ATOM     21  C   UNL     1      -0.726  11.435  21.612  0.00  0.00    +0.000 A 
ATOM     22  C   UNL     1      -0.010  10.750  20.598  0.00  0.00    +0.000 A 
ENDBRANCH  11  13
BRANCH   9  23
ATOM     23  O   UNL     1      -3.186  14.330  20.494  0.00  0.00    +0.000 OA
ATOM     24  H   UNL     1      -3.780  13.568  20.650  0.00  0.00    +0.000 HD
ENDBRANCH   9  23
BRANCH  10  25
ATOM     25  C   UNL     1      -3.013  11.820  18.809  0.00  0.00    +0.000 C 
ATOM     26  O   UNL     1      -3.935  11.673  19.612  0.00  0.00    +0.000 OA
BRANCH  25  27
ATOM     27  C   UNL     1      -2.998  11.091  17.556  0.00  0.00    +0.000 A 
ATOM     28  C   UNL     1      -2.593   9.796  17.281  0.00  0.00    +0.000 A 
ATOM     29  C   UNL     1      -2.756   9.601  15.890  0.00  0.00    +0.000 A 
ATOM     30  C   UNL     1      -3.261  10.779  15.398  0.00  0.00    +0.000 A 
ATOM     31  O   UNL     1      -3.436  11.676  16.402  0.00  0.00    +0.000 OA
ENDBRANCH  25  27
ENDBRANCH  10  25
TORSDOF 4
ENDMDL
MODEL 5
REMARK VINA RESULT:      -6.2      3.255      6.030
REMARK  Name = 
REMARK  5 active torsions:
REMARK  status: ('A' for Active; 'I' for Inactive)
REMARK    1  A    between atoms: C_1  and  C_2
REMARK    2  A    between atoms: C_9  and  O_10
REMARK    3  A    between atoms: C_11  and  C_12
REMARK    4  A    between atoms: C_12  and  C_14
REMARK    5  A    between atoms: C_19  and  C_20
REMARK                            x       y       z     vdW  Elec       q    Type
REMARK                         _______ _______ _______ _____ _____    ______ ____
ROOT
ATOM      1  C   UNL     1      -7.530  12.262  19.447  0.00  0.00    +0.000 C 
ATOM      2  C   UNL     1      -6.352  12.650  20.261  0.00  0.00    +0.000 A 
ATOM      3  N   UNL     1      -5.802  11.923  21.209  0.00  0.00    +0.000 NA
ATOM      4  N   UNL     1      -4.648  12.507  21.698  0.00  0.00    +0.000 NA
ATOM      5  C   UNL     1      -4.401  13.675  21.144  0.00  0.00    +0.000 A 
ATOM      6  N   UNL     1      -3.275  14.442  21.355  0.00  0.00    +0.000 N 
ATOM      7  C   UNL     1      -3.256  15.809  21.168  0.00  0.00    +0.000 C 
ATOM      8  O   UNL     1      -4.100  16.596  20.775  0.00  0.00    +0.000 OA
ATOM      9  C   UNL     1      -1.935  16.290  21.613  0.00  0.00    +0.000 C 
ATOM     10  C   UNL     1      -1.238  15.237  22.049  0.00  0.00    +0.000 C 
ATOM     11  C   UNL     1      -2.021  13.954  21.912  0.00  0.00    +0.000 C 
ATOM     12  S   UNL     1      -5.559  14.139  19.972  0.00  0.00    +0.000 S 
ENDROOT
BRANCH  11  13
ATOM     13  C   UNL     1      -1.379  12.916  20.980  0.00  0.00    +0.000 A 
ATOM     14  C   UNL     1      -1.239  13.229  19.608  0.00  0.00    +0.000 A 
ATOM     15  C   UNL     1      -0.702  12.315  18.710  0.00  0.00    +0.000 A 
ATOM     16  C   UNL     1      -0.302  11.062  19.155  0.00  0.00    +0.000 A 
ATOM     17  C   UNL     1      -0.434  10.702  20.502  0.00  0.00    +0.000 A 
ATOM     18  C   UNL     1      -0.031   9.418  20.908  0.00  0.00    +0.000 A 
ATOM     19  C   UNL     1      -0.157   9.008  22.231  0.00  0.00    +0.000 A 
ATOM     20  C   UNL     1      -0.697   9.878  23.166  0.00  0.00    +0.000 A 
ATOM     21  C   UNL     1      -1.098  11.160  22.776  0.00  0.00    +0.000 A 
ATOM     22  C   UNL     1      -0.979  11.619  21.441  0.00  0.00    +0.000 A 
ENDBRANCH  11  13
BRANCH   9  23
ATOM     23  O   UNL     1      -1.595  17.611  21.559  0.00  0.00    +0.000 OA
ATOM     24  H   UNL     1      -2.430  18.106  21.686  0.00  0.00    +0.000 HD
ENDBRANCH   9  23
BRANCH  10  25
ATOM     25  C   UNL     1       0.166  15.343  22.522  0.00  0.00    +0.000 C 
ATOM     26  O   UNL     1       0.382  15.740  23.668  0.00  0.00    +0.000 OA
BRANCH  25  27
ATOM     27  C   UNL     1       1.262  15.009  21.634  0.00  0.00    +0.000 A 
ATOM     28  C   UNL     1       1.462  15.333  20.304  0.00  0.00    +0.000 A 
ATOM     29  C   UNL     1       2.678  14.725  19.911  0.00  0.00    +0.000 A 
ATOM     30  C   UNL     1       3.154  14.077  21.025  0.00  0.00    +0.000 A 
ATOM     31  O   UNL     1       2.319  14.266  22.077  0.00  0.00    +0.000 OA
ENDBRANCH  25  27
ENDBRANCH  10  25
TORSDOF 4
ENDMDL
MODEL 6
REMARK VINA RESULT:      -6.2      8.664     11.255
REMARK  Name = 
REMARK  5 active torsions:
REMARK  status: ('A' for Active; 'I' for Inactive)
REMARK    1  A    between atoms: C_1  and  C_2
REMARK    2  A    between atoms: C_9  and  O_10
REMARK    3  A    between atoms: C_11  and  C_12
REMARK    4  A    between atoms: C_12  and  C_14
REMARK    5  A    between atoms: C_19  and  C_20
REMARK                            x       y       z     vdW  Elec       q    Type
REMARK                         _______ _______ _______ _____ _____    ______ ____
ROOT
ATOM      1  C   UNL     1       5.730  11.218  24.289  0.00  0.00    +0.000 C 
ATOM      2  C   UNL     1       6.827  12.097  23.814  0.00  0.00    +0.000 A 
ATOM      3  N   UNL     1       8.057  11.713  23.548  0.00  0.00    +0.000 NA
ATOM      4  N   UNL     1       8.809  12.742  23.010  0.00  0.00    +0.000 NA
ATOM      5  C   UNL     1       8.139  13.872  22.942  0.00  0.00    +0.000 A 
ATOM      6  N   UNL     1       8.591  15.039  22.362  0.00  0.00    +0.000 N 
ATOM      7  C   UNL     1       8.112  16.283  22.715  0.00  0.00    +0.000 C 
ATOM      8  O   UNL     1       7.245  16.639  23.496  0.00  0.00    +0.000 OA
ATOM      9  C   UNL     1       8.915  17.281  21.985  0.00  0.00    +0.000 C 
ATOM     10  C   UNL     1       9.824  16.627  21.257  0.00  0.00    +0.000 C 
ATOM     11  C   UNL     1       9.695  15.132  21.416  0.00  0.00    +0.000 C 
ATOM     12  S   UNL     1       6.533  13.758  23.521  0.00  0.00    +0.000 S 
ENDROOT
BRANCH  11  13
ATOM     13  C   UNL     1       9.363  14.383  20.117  0.00  0.00    +0.000 A 
ATOM     14  C   UNL     1       8.148  14.676  19.455  0.00  0.00    +0.000 A 
ATOM     15  C   UNL     1       7.776  14.003  18.298  0.00  0.00    +0.000 A 
ATOM     16  C   UNL     1       8.599  13.013  17.780  0.00  0.00    +0.000 A 
ATOM     17  C   UNL     1       9.804  12.678  18.408  0.00  0.00    +0.000 A 
ATOM     18  C   UNL     1      10.601  11.658  17.858  0.00  0.00    +0.000 A 
ATOM     19  C   UNL     1      11.798  11.279  18.456  0.00  0.00    +0.000 A 
ATOM     20  C   UNL     1      12.211  11.911  19.618  0.00  0.00    +0.000 A 
ATOM     21  C   UNL     1      11.430  12.930  20.173  0.00  0.00    +0.000 A 
ATOM     22  C   UNL     1      10.209  13.352  19.592  0.00  0.00    +0.000 A 
ENDBRANCH  11  13
BRANCH   9  23
ATOM     23  O   UNL     1       8.691  18.621  22.118  0.00  0.00    +0.000 OA
ATOM     24  H   UNL     1       9.501  18.988  22.527  0.00  0.00    +0.000 HD
ENDBRANCH   9  23
BRANCH  10  25
ATOM     25  C   UNL     1      10.773  17.317  20.347  0.00  0.00    +0.000 C 
ATOM     26  O   UNL     1      11.356  18.326  20.745  0.00  0.00    +0.000 OA
BRANCH  25  27
ATOM     27  C   UNL     1      10.983  16.822  19.001  0.00  0.00    +0.000 A 
ATOM     28  C   UNL     1      12.052  16.128  18.463  0.00  0.00    +0.000 A 
ATOM     29  C   UNL     1      11.761  15.919  17.094  0.00  0.00    +0.000 A 
ATOM     30  C   UNL     1      10.528  16.486  16.879  0.00  0.00    +0.000 A 
ATOM     31  O   UNL     1      10.039  17.009  18.032  0.00  0.00    +0.000 OA
ENDBRANCH  25  27
ENDBRANCH  10  25
TORSDOF 4
ENDMDL
MODEL 7
REMARK VINA RESULT:      -6.2      3.044      5.676
REMARK  Name = 
REMARK  5 active torsions:
REMARK  status: ('A' for Active; 'I' for Inactive)
REMARK    1  A    between atoms: C_1  and  C_2
REMARK    2  A    between atoms: C_9  and  O_10
REMARK    3  A    between atoms: C_11  and  C_12
REMARK    4  A    between atoms: C_12  and  C_14
REMARK    5  A    between atoms: C_19  and  C_20
REMARK                            x       y       z     vdW  Elec       q    Type
REMARK                         _______ _______ _______ _____ _____    ______ ____
ROOT
ATOM      1  C   UNL     1      -7.311  12.757  21.144  0.00  0.00    +0.000 C 
ATOM      2  C   UNL     1      -5.901  13.042  21.508  0.00  0.00    +0.000 A 
ATOM      3  N   UNL     1      -5.180  12.361  22.372  0.00  0.00    +0.000 NA
ATOM      4  N   UNL     1      -3.869  12.800  22.403  0.00  0.00    +0.000 NA
ATOM      5  C   UNL     1      -3.663  13.826  21.605  0.00  0.00    +0.000 A 
ATOM      6  N   UNL     1      -2.441  14.412  21.350  0.00  0.00    +0.000 N 
ATOM      7  C   UNL     1      -2.312  15.719  20.929  0.00  0.00    +0.000 C 
ATOM      8  O   UNL     1      -3.133  16.580  20.661  0.00  0.00    +0.000 OA
ATOM      9  C   UNL     1      -0.870  16.023  20.889  0.00  0.00    +0.000 C 
ATOM     10  C   UNL     1      -0.208  14.933  21.285  0.00  0.00    +0.000 C 
ATOM     11  C   UNL     1      -1.146  13.794  21.603  0.00  0.00    +0.000 C 
ATOM     12  S   UNL     1      -5.059  14.324  20.749  0.00  0.00    +0.000 S 
ENDROOT
BRANCH  11  13
ATOM     13  C   UNL     1      -0.955  12.550  20.724  0.00  0.00    +0.000 A 
ATOM     14  C   UNL     1      -1.105  12.678  19.323  0.00  0.00    +0.000 A 
ATOM     15  C   UNL     1      -0.983  11.581  18.481  0.00  0.00    +0.000 A 
ATOM     16  C   UNL     1      -0.720  10.326  19.014  0.00  0.00    +0.000 A 
ATOM     17  C   UNL     1      -0.577  10.148  20.395  0.00  0.00    +0.000 A 
ATOM     18  C   UNL     1      -0.327   8.857  20.895  0.00  0.00    +0.000 A 
ATOM     19  C   UNL     1      -0.194   8.628  22.260  0.00  0.00    +0.000 A 
ATOM     20  C   UNL     1      -0.318   9.687  23.146  0.00  0.00    +0.000 A 
ATOM     21  C   UNL     1      -0.563  10.976  22.662  0.00  0.00    +0.000 A 
ATOM     22  C   UNL     1      -0.696  11.254  21.279  0.00  0.00    +0.000 A 
ENDBRANCH  11  13
BRANCH   9  23
ATOM     23  O   UNL     1      -0.404  17.248  20.509  0.00  0.00    +0.000 OA
ATOM     24  H   UNL     1       0.552  17.127  20.337  0.00  0.00    +0.000 HD
ENDBRANCH   9  23
BRANCH  10  25
ATOM     25  C   UNL     1       1.275  14.859  21.313  0.00  0.00    +0.000 C 
ATOM     26  O   UNL     1       1.857  14.936  22.395  0.00  0.00    +0.000 OA
BRANCH  25  27
ATOM     27  C   UNL     1       2.022  14.727  20.078  0.00  0.00    +0.000 A 
ATOM     28  C   UNL     1       2.504  15.699  19.218  0.00  0.00    +0.000 A 
ATOM     29  C   UNL     1       3.132  15.024  18.145  0.00  0.00    +0.000 A 
ATOM     30  C   UNL     1       3.008  13.683  18.416  0.00  0.00    +0.000 A 
ATOM     31  O   UNL     1       2.364  13.496  19.595  0.00  0.00    +0.000 OA
ENDBRANCH  25  27
ENDBRANCH  10  25
TORSDOF 4
ENDMDL
MODEL 8
REMARK VINA RESULT:      -6.1      7.221     10.097
REMARK  Name = 
REMARK  5 active torsions:
REMARK  status: ('A' for Active; 'I' for Inactive)
REMARK    1  A    between atoms: C_1  and  C_2
REMARK    2  A    between atoms: C_9  and  O_10
REMARK    3  A    between atoms: C_11  and  C_12
REMARK    4  A    between atoms: C_12  and  C_14
REMARK    5  A    between atoms: C_19  and  C_20
REMARK                            x       y       z     vdW  Elec       q    Type
REMARK                         _______ _______ _______ _____ _____    ______ ____
ROOT
ATOM      1  C   UNL     1       5.889  -1.159  20.501  0.00  0.00    +0.000 C 
ATOM      2  C   UNL     1       5.328   0.214  20.464  0.00  0.00    +0.000 A 
ATOM      3  N   UNL     1       5.633   1.190  21.292  0.00  0.00    +0.000 NA
ATOM      4  N   UNL     1       5.033   2.380  20.923  0.00  0.00    +0.000 NA
ATOM      5  C   UNL     1       4.256   2.247  19.870  0.00  0.00    +0.000 A 
ATOM      6  N   UNL     1       3.609   3.273  19.214  0.00  0.00    +0.000 N 
ATOM      7  C   UNL     1       2.469   3.078  18.462  0.00  0.00    +0.000 C 
ATOM      8  O   UNL     1       1.836   2.076  18.174  0.00  0.00    +0.000 OA
ATOM      9  C   UNL     1       2.000   4.408  18.032  0.00  0.00    +0.000 C 
ATOM     10  C   UNL     1       2.834   5.322  18.533  0.00  0.00    +0.000 C 
ATOM     11  C   UNL     1       3.951   4.684  19.324  0.00  0.00    +0.000 C 
ATOM     12  S   UNL     1       4.212   0.654  19.243  0.00  0.00    +0.000 S 
ENDROOT
BRANCH  11  13
ATOM     13  C   UNL     1       5.356   4.949  18.763  0.00  0.00    +0.000 A 
ATOM     14  C   UNL     1       6.340   5.489  19.624  0.00  0.00    +0.000 A 
ATOM     15  C   UNL     1       7.617   5.786  19.164  0.00  0.00    +0.000 A 
ATOM     16  C   UNL     1       7.940   5.565  17.832  0.00  0.00    +0.000 A 
ATOM     17  C   UNL     1       6.995   5.046  16.939  0.00  0.00    +0.000 A 
ATOM     18  C   UNL     1       7.360   4.851  15.596  0.00  0.00    +0.000 A 
ATOM     19  C   UNL     1       6.450   4.353  14.668  0.00  0.00    +0.000 A 
ATOM     20  C   UNL     1       5.160   4.050  15.073  0.00  0.00    +0.000 A 
ATOM     21  C   UNL     1       4.785   4.235  16.407  0.00  0.00    +0.000 A 
ATOM     22  C   UNL     1       5.683   4.732  17.385  0.00  0.00    +0.000 A 
ENDBRANCH  11  13
BRANCH   9  23
ATOM     23  O   UNL     1       0.881   4.562  17.265  0.00  0.00    +0.000 OA
ATOM     24  H   UNL     1       0.579   3.656  17.050  0.00  0.00    +0.000 HD
ENDBRANCH   9  23
BRANCH  10  25
ATOM     25  C   UNL     1       2.698   6.774  18.253  0.00  0.00    +0.000 C 
ATOM     26  O   UNL     1       3.156   7.225  17.202  0.00  0.00    +0.000 OA
BRANCH  25  27
ATOM     27  C   UNL     1       2.060   7.647  19.218  0.00  0.00    +0.000 A 
ATOM     28  C   UNL     1       1.838   7.467  20.572  0.00  0.00    +0.000 A 
ATOM     29  C   UNL     1       1.145   8.612  21.031  0.00  0.00    +0.000 A 
ATOM     30  C   UNL     1       0.995   9.427  19.936  0.00  0.00    +0.000 A 
ATOM     31  O   UNL     1       1.569   8.864  18.843  0.00  0.00    +0.000 OA
ENDBRANCH  25  27
ENDBRANCH  10  25
TORSDOF 4
ENDMDL
MODEL 9
REMARK VINA RESULT:      -6.0      2.548      3.485
REMARK  Name = 
REMARK  5 active torsions:
REMARK  status: ('A' for Active; 'I' for Inactive)
REMARK    1  A    between atoms: C_1  and  C_2
REMARK    2  A    between atoms: C_9  and  O_10
REMARK    3  A    between atoms: C_11  and  C_12
REMARK    4  A    between atoms: C_12  and  C_14
REMARK    5  A    between atoms: C_19  and  C_20
REMARK                            x       y       z     vdW  Elec       q    Type
REMARK                         _______ _______ _______ _____ _____    ______ ____
ROOT
ATOM      1  C   UNL     1       2.926  16.689  22.057  0.00  0.00    +0.000 C 
ATOM      2  C   UNL     1       1.543  16.218  21.801  0.00  0.00    +0.000 A 
ATOM      3  N   UNL     1       1.078  15.799  20.644  0.00  0.00    +0.000 NA
ATOM      4  N   UNL     1      -0.212  15.314  20.756  0.00  0.00    +0.000 NA
ATOM      5  C   UNL     1      -0.691  15.435  21.976  0.00  0.00    +0.000 A 
ATOM      6  N   UNL     1      -1.906  14.952  22.414  0.00  0.00    +0.000 N 
ATOM      7  C   UNL     1      -2.578  15.485  23.494  0.00  0.00    +0.000 C 
ATOM      8  O   UNL     1      -2.297  16.377  24.277  0.00  0.00    +0.000 OA
ATOM      9  C   UNL     1      -3.882  14.802  23.575  0.00  0.00    +0.000 C 
ATOM     10  C   UNL     1      -3.951  13.925  22.570  0.00  0.00    +0.000 C 
ATOM     11  C   UNL     1      -2.691  13.925  21.741  0.00  0.00    +0.000 C 
ATOM     12  S   UNL     1       0.409  16.142  23.080  0.00  0.00    +0.000 S 
ENDROOT
BRANCH  11  13
ATOM     13  C   UNL     1      -1.939  12.586  21.729  0.00  0.00    +0.000 A 
ATOM     14  C   UNL     1      -1.506  12.039  22.958  0.00  0.00    +0.000 A 
ATOM     15  C   UNL     1      -0.788  10.851  23.007  0.00  0.00    +0.000 A 
ATOM     16  C   UNL     1      -0.473  10.185  21.830  0.00  0.00    +0.000 A 
ATOM     17  C   UNL     1      -0.868  10.695  20.588  0.00  0.00    +0.000 A 
ATOM     18  C   UNL     1      -0.516   9.997  19.419  0.00  0.00    +0.000 A 
ATOM     19  C   UNL     1      -0.872  10.473  18.162  0.00  0.00    +0.000 A 
ATOM     20  C   UNL     1      -1.580  11.660  18.057  0.00  0.00    +0.000 A 
ATOM     21  C   UNL     1      -1.941  12.362  19.211  0.00  0.00    +0.000 A 
ATOM     22  C   UNL     1      -1.605  11.908  20.511  0.00  0.00    +0.000 A 
ENDBRANCH  11  13
BRANCH   9  23
ATOM     23  O   UNL     1      -4.792  15.105  24.546  0.00  0.00    +0.000 OA
ATOM     24  H   UNL     1      -5.662  15.128  24.097  0.00  0.00    +0.000 HD
ENDBRANCH   9  23
BRANCH  10  25
ATOM     25  C   UNL     1      -5.109  13.015  22.377  0.00  0.00    +0.000 C 
ATOM     26  O   UNL     1      -5.496  12.330  23.324  0.00  0.00    +0.000 OA
BRANCH  25  27
ATOM     27  C   UNL     1      -5.752  12.919  21.081  0.00  0.00    +0.000 A 
ATOM     28  C   UNL     1      -5.590  11.986  20.072  0.00  0.00    +0.000 A 
ATOM     29  C   UNL     1      -6.435  12.380  19.008  0.00  0.00    +0.000 A 
ATOM     30  C   UNL     1      -7.071  13.520  19.433  0.00  0.00    +0.000 A 
ATOM     31  O   UNL     1      -6.686  13.837  20.694  0.00  0.00    +0.000 OA
ENDBRANCH  25  27
ENDBRANCH  10  25
TORSDOF 4
ENDMDL
