MODEL 1
REMARK VINA RESULT:      -8.2      0.000      0.000
REMARK  Name = 
REMARK  6 active torsions:
REMARK  status: ('A' for Active; 'I' for Inactive)
REMARK    1  A    between atoms: N_2  and  C_4
REMARK    2  A    between atoms: C_7  and  O_8
REMARK    3  A    between atoms: O_8  and  S_9
REMARK    4  A    between atoms: S_9  and  C_12
REMARK    5  A    between atoms: C_12  and  C_13
REMARK    6  A    between atoms: C_16  and  N_17
REMARK                            x       y       z     vdW  Elec       q    Type
REMARK                         _______ _______ _______ _____ _____    ______ ____
ROOT
ATOM      1  S   UNL     1       4.262   4.907  18.915  0.00  0.00    +0.000 S 
ATOM      2  O   UNL     1       3.244   4.330  19.774  0.00  0.00    +0.000 OA
ATOM      3  O   UNL     1       5.441   5.550  19.461  0.00  0.00    +0.000 OA
ENDROOT
BRANCH   1   4
ATOM      4  O   UNL     1       4.716   3.795  17.802  0.00  0.00    +0.000 OA
BRANCH   4   8
ATOM      5  C   UNL     1       6.957   4.821  14.431  0.00  0.00    +0.000 A 
ATOM      6  C   UNL     1       5.683   4.253  14.304  0.00  0.00    +0.000 A 
ATOM      7  C   UNL     1       4.954   3.929  15.456  0.00  0.00    +0.000 A 
ATOM      8  C   UNL     1       5.497   4.154  16.727  0.00  0.00    +0.000 A 
ATOM      9  C   UNL     1       6.759   4.746  16.841  0.00  0.00    +0.000 A 
ATOM     10  C   UNL     1       7.494   5.075  15.697  0.00  0.00    +0.000 A 
BRANCH   5  12
ATOM     11  O   UNL     1       7.413   4.614  12.166  0.00  0.00    +0.000 OA
ATOM     12  N   UNL     1       7.739   5.152  13.232  0.00  0.00    +0.000 N 
ATOM     13  O   UNL     1       8.680   5.950  13.360  0.00  0.00    +0.000 OA
ENDBRANCH   5  12
ENDBRANCH   4   8
ENDBRANCH   1   4
BRANCH   1  14
ATOM     14  C   UNL     1       3.468   6.070  17.801  0.00  0.00    +0.000 C 
BRANCH  14  15
ATOM     15  C   UNL     1       2.608   7.009  18.629  0.00  0.00    +0.000 A 
ATOM     16  C   UNL     1       2.166   8.230  18.101  0.00  0.00    +0.000 A 
ATOM     17  C   UNL     1       1.436   9.131  18.889  0.00  0.00    +0.000 A 
ATOM     18  C   UNL     1       1.139   8.814  20.220  0.00  0.00    +0.000 A 
ATOM     19  C   UNL     1       1.562   7.591  20.754  0.00  0.00    +0.000 A 
ATOM     20  C   UNL     1       2.294   6.698  19.960  0.00  0.00    +0.000 A 
BRANCH  18  21
ATOM     21  N   UNL     1       0.413   9.764  21.053  0.00  0.00    +0.000 N 
ATOM     22  C   UNL     1       0.041   9.429  22.317  0.00  0.00    +0.000 A 
ATOM     23  C   UNL     1      -0.681  10.313  23.118  0.00  0.00    +0.000 A 
ATOM     24  C   UNL     1      -1.020  11.563  22.625  0.00  0.00    +0.000 A 
ATOM     25  C   UNL     1      -0.629  11.907  21.341  0.00  0.00    +0.000 A 
ATOM     26  C   UNL     1       0.084  10.993  20.570  0.00  0.00    +0.000 A 
ENDBRANCH  18  21
ENDBRANCH  14  15
ENDBRANCH   1  14
TORSDOF 6
ENDMDL
MODEL 2
REMARK VINA RESULT:      -8.1      3.028      8.720
REMARK  Name = 
REMARK  6 active torsions:
REMARK  status: ('A' for Active; 'I' for Inactive)
REMARK    1  A    between atoms: N_2  and  C_4
REMARK    2  A    between atoms: C_7  and  O_8
REMARK    3  A    between atoms: O_8  and  S_9
REMARK    4  A    between atoms: S_9  and  C_12
REMARK    5  A    between atoms: C_12  and  C_13
REMARK    6  A    between atoms: C_16  and  N_17
REMARK                            x       y       z     vdW  Elec       q    Type
REMARK                         _______ _______ _______ _____ _____    ______ ____
ROOT
ATOM      1  S   UNL     1       2.538   4.671  20.033  0.00  0.00    +0.000 S 
ATOM      2  O   UNL     1       2.282   4.803  21.455  0.00  0.00    +0.000 OA
ATOM      3  O   UNL     1       1.503   4.245  19.110  0.00  0.00    +0.000 OA
ENDROOT
BRANCH   1   4
ATOM      4  O   UNL     1       3.221   6.054  19.482  0.00  0.00    +0.000 OA
BRANCH   4   8
ATOM      5  C   UNL     1       1.013   9.560  18.958  0.00  0.00    +0.000 A 
ATOM      6  C   UNL     1       1.656   8.944  17.876  0.00  0.00    +0.000 A 
ATOM      7  C   UNL     1       2.382   7.764  18.085  0.00  0.00    +0.000 A 
ATOM      8  C   UNL     1       2.479   7.208  19.367  0.00  0.00    +0.000 A 
ATOM      9  C   UNL     1       1.810   7.817  20.434  0.00  0.00    +0.000 A 
ATOM     10  C   UNL     1       1.083   8.994  20.235  0.00  0.00    +0.000 A 
BRANCH   5  12
ATOM     11  O   UNL     1       0.593  11.792  19.427  0.00  0.00    +0.000 OA
ATOM     12  N   UNL     1       0.261  10.806  18.756  0.00  0.00    +0.000 N 
ATOM     13  O   UNL     1      -0.661  10.795  17.927  0.00  0.00    +0.000 OA
ENDBRANCH   5  12
ENDBRANCH   4   8
ENDBRANCH   1   4
BRANCH   1  14
ATOM     14  C   UNL     1       3.951   3.587  19.812  0.00  0.00    +0.000 C 
BRANCH  14  15
ATOM     15  C   UNL     1       4.529   3.836  18.430  0.00  0.00    +0.000 A 
ATOM     16  C   UNL     1       3.848   3.413  17.279  0.00  0.00    +0.000 A 
ATOM     17  C   UNL     1       4.415   3.577  16.008  0.00  0.00    +0.000 A 
ATOM     18  C   UNL     1       5.676   4.170  15.876  0.00  0.00    +0.000 A 
ATOM     19  C   UNL     1       6.359   4.611  17.015  0.00  0.00    +0.000 A 
ATOM     20  C   UNL     1       5.787   4.440  18.283  0.00  0.00    +0.000 A 
BRANCH  18  21
ATOM     21  N   UNL     1       6.285   4.307  14.558  0.00  0.00    +0.000 N 
ATOM     22  C   UNL     1       7.319   5.168  14.364  0.00  0.00    +0.000 A 
ATOM     23  C   UNL     1       7.894   5.335  13.105  0.00  0.00    +0.000 A 
ATOM     24  C   UNL     1       7.414   4.606  12.030  0.00  0.00    +0.000 A 
ATOM     25  C   UNL     1       6.367   3.720  12.233  0.00  0.00    +0.000 A 
ATOM     26  C   UNL     1       5.815   3.587  13.504  0.00  0.00    +0.000 A 
ENDBRANCH  18  21
ENDBRANCH  14  15
ENDBRANCH   1  14
TORSDOF 6
ENDMDL
MODEL 3
REMARK VINA RESULT:      -8.0      3.070      9.245
REMARK  Name = 
REMARK  6 active torsions:
REMARK  status: ('A' for Active; 'I' for Inactive)
REMARK    1  A    between atoms: N_2  and  C_4
REMARK    2  A    between atoms: C_7  and  O_8
REMARK    3  A    between atoms: O_8  and  S_9
REMARK    4  A    between atoms: S_9  and  C_12
REMARK    5  A    between atoms: C_12  and  C_13
REMARK    6  A    between atoms: C_16  and  N_17
REMARK                            x       y       z     vdW  Elec       q    Type
REMARK                         _______ _______ _______ _____ _____    ______ ____
ROOT
ATOM      1  S   UNL     1       2.382   5.876  19.433  0.00  0.00    +0.000 S 
ATOM      2  O   UNL     1       1.518   5.284  20.437  0.00  0.00    +0.000 OA
ATOM      3  O   UNL     1       2.087   5.768  18.017  0.00  0.00    +0.000 OA
ENDROOT
BRANCH   1   4
ATOM      4  O   UNL     1       2.649   7.446  19.815  0.00  0.00    +0.000 OA
BRANCH   4   8
ATOM      5  C   UNL     1      -0.322  10.327  19.251  0.00  0.00    +0.000 A 
ATOM      6  C   UNL     1      -0.124   9.730  20.504  0.00  0.00    +0.000 A 
ATOM      7  C   UNL     1       0.887   8.773  20.660  0.00  0.00    +0.000 A 
ATOM      8  C   UNL     1       1.688   8.401  19.573  0.00  0.00    +0.000 A 
ATOM      9  C   UNL     1       1.498   9.023  18.334  0.00  0.00    +0.000 A 
ATOM     10  C   UNL     1       0.492   9.980  18.168  0.00  0.00    +0.000 A 
BRANCH   5  12
ATOM     11  O   UNL     1      -1.823  11.890  20.079  0.00  0.00    +0.000 OA
ATOM     12  N   UNL     1      -1.388  11.320  19.069  0.00  0.00    +0.000 N 
ATOM     13  O   UNL     1      -1.791  11.528  17.914  0.00  0.00    +0.000 OA
ENDBRANCH   5  12
ENDBRANCH   4   8
ENDBRANCH   1   4
BRANCH   1  14
ATOM     14  C   UNL     1       4.051   5.266  19.694  0.00  0.00    +0.000 C 
BRANCH  14  15
ATOM     15  C   UNL     1       4.697   5.057  18.335  0.00  0.00    +0.000 A 
ATOM     16  C   UNL     1       5.349   6.113  17.681  0.00  0.00    +0.000 A 
ATOM     17  C   UNL     1       5.880   5.940  16.395  0.00  0.00    +0.000 A 
ATOM     18  C   UNL     1       5.765   4.704  15.750  0.00  0.00    +0.000 A 
ATOM     19  C   UNL     1       5.130   3.638  16.400  0.00  0.00    +0.000 A 
ATOM     20  C   UNL     1       4.598   3.820  17.683  0.00  0.00    +0.000 A 
BRANCH  18  21
ATOM     21  N   UNL     1       6.283   4.532  14.398  0.00  0.00    +0.000 N 
ATOM     22  C   UNL     1       7.352   5.257  13.973  0.00  0.00    +0.000 A 
ATOM     23  C   UNL     1       7.842   5.130  12.675  0.00  0.00    +0.000 A 
ATOM     24  C   UNL     1       7.240   4.241  11.799  0.00  0.00    +0.000 A 
ATOM     25  C   UNL     1       6.158   3.495  12.238  0.00  0.00    +0.000 A 
ATOM     26  C   UNL     1       5.693   3.657  13.541  0.00  0.00    +0.000 A 
ENDBRANCH  18  21
ENDBRANCH  14  15
ENDBRANCH   1  14
TORSDOF 6
ENDMDL
MODEL 4
REMARK VINA RESULT:      -8.0      1.451      2.179
REMARK  Name = 
REMARK  6 active torsions:
REMARK  status: ('A' for Active; 'I' for Inactive)
REMARK    1  A    between atoms: N_2  and  C_4
REMARK    2  A    between atoms: C_7  and  O_8
REMARK    3  A    between atoms: O_8  and  S_9
REMARK    4  A    between atoms: S_9  and  C_12
REMARK    5  A    between atoms: C_12  and  C_13
REMARK    6  A    between atoms: C_16  and  N_17
REMARK                            x       y       z     vdW  Elec       q    Type
REMARK                         _______ _______ _______ _____ _____    ______ ____
ROOT
ATOM      1  S   UNL     1       2.572   4.744  19.890  0.00  0.00    +0.000 S 
ATOM      2  O   UNL     1       1.427   4.484  19.037  0.00  0.00    +0.000 OA
ATOM      3  O   UNL     1       2.445   4.807  21.333  0.00  0.00    +0.000 OA
ENDROOT
BRANCH   1   4
ATOM      4  O   UNL     1       3.779   3.709  19.495  0.00  0.00    +0.000 OA
BRANCH   4   8
ATOM      5  C   UNL     1       6.126   4.406  16.112  0.00  0.00    +0.000 A 
ATOM      6  C   UNL     1       4.828   3.891  15.996  0.00  0.00    +0.000 A 
ATOM      7  C   UNL     1       4.064   3.677  17.151  0.00  0.00    +0.000 A 
ATOM      8  C   UNL     1       4.595   3.960  18.416  0.00  0.00    +0.000 A 
ATOM      9  C   UNL     1       5.882   4.498  18.517  0.00  0.00    +0.000 A 
ATOM     10  C   UNL     1       6.652   4.716  17.370  0.00  0.00    +0.000 A 
BRANCH   5  12
ATOM     11  O   UNL     1       7.773   5.539  14.936  0.00  0.00    +0.000 OA
ATOM     12  N   UNL     1       6.944   4.620  14.910  0.00  0.00    +0.000 N 
ATOM     13  O   UNL     1       6.754   3.869  13.942  0.00  0.00    +0.000 OA
ENDBRANCH   5  12
ENDBRANCH   4   8
ENDBRANCH   1   4
BRANCH   1  14
ATOM     14  C   UNL     1       3.353   6.264  19.339  0.00  0.00    +0.000 C 
BRANCH  14  15
ATOM     15  C   UNL     1       2.358   7.398  19.514  0.00  0.00    +0.000 A 
ATOM     16  C   UNL     1       2.139   8.326  18.485  0.00  0.00    +0.000 A 
ATOM     17  C   UNL     1       1.277   9.416  18.673  0.00  0.00    +0.000 A 
ATOM     18  C   UNL     1       0.622   9.586  19.898  0.00  0.00    +0.000 A 
ATOM     19  C   UNL     1       0.821   8.658  20.927  0.00  0.00    +0.000 A 
ATOM     20  C   UNL     1       1.686   7.574  20.733  0.00  0.00    +0.000 A 
BRANCH  18  21
ATOM     21  N   UNL     1      -0.245  10.739  20.109  0.00  0.00    +0.000 N 
ATOM     22  C   UNL     1      -0.593  11.539  19.067  0.00  0.00    +0.000 A 
ATOM     23  C   UNL     1      -1.397  12.663  19.254  0.00  0.00    +0.000 A 
ATOM     24  C   UNL     1      -1.860  12.970  20.523  0.00  0.00    +0.000 A 
ATOM     25  C   UNL     1      -1.514  12.146  21.582  0.00  0.00    +0.000 A 
ATOM     26  C   UNL     1      -0.703  11.036  21.355  0.00  0.00    +0.000 A 
ENDBRANCH  18  21
ENDBRANCH  14  15
ENDBRANCH   1  14
TORSDOF 6
ENDMDL
MODEL 5
REMARK VINA RESULT:      -8.0      0.992      1.863
REMARK  Name = 
REMARK  6 active torsions:
REMARK  status: ('A' for Active; 'I' for Inactive)
REMARK    1  A    between atoms: N_2  and  C_4
REMARK    2  A    between atoms: C_7  and  O_8
REMARK    3  A    between atoms: O_8  and  S_9
REMARK    4  A    between atoms: S_9  and  C_12
REMARK    5  A    between atoms: C_12  and  C_13
REMARK    6  A    between atoms: C_16  and  N_17
REMARK                            x       y       z     vdW  Elec       q    Type
REMARK                         _______ _______ _______ _____ _____    ______ ____
ROOT
ATOM      1  S   UNL     1       3.328   4.842  18.781  0.00  0.00    +0.000 S 
ATOM      2  O   UNL     1       2.277   4.326  17.924  0.00  0.00    +0.000 OA
ATOM      3  O   UNL     1       3.170   4.911  20.221  0.00  0.00    +0.000 OA
ENDROOT
BRANCH   1   4
ATOM      4  O   UNL     1       4.732   4.078  18.424  0.00  0.00    +0.000 OA
BRANCH   4   8
ATOM      5  C   UNL     1       6.766   4.743  14.838  0.00  0.00    +0.000 A 
ATOM      6  C   UNL     1       7.398   4.940  16.073  0.00  0.00    +0.000 A 
ATOM      7  C   UNL     1       6.690   4.699  17.258  0.00  0.00    +0.000 A 
ATOM      8  C   UNL     1       5.354   4.279  17.213  0.00  0.00    +0.000 A 
ATOM      9  C   UNL     1       4.742   4.061  15.974  0.00  0.00    +0.000 A 
ATOM     10  C   UNL     1       5.442   4.297  14.786  0.00  0.00    +0.000 A 
BRANCH   5  12
ATOM     11  O   UNL     1       8.454   5.785  13.635  0.00  0.00    +0.000 OA
ATOM     12  N   UNL     1       7.493   5.006  13.588  0.00  0.00    +0.000 N 
ATOM     13  O   UNL     1       7.099   4.433  12.561  0.00  0.00    +0.000 OA
ENDBRANCH   5  12
ENDBRANCH   4   8
ENDBRANCH   1   4
BRANCH   1  14
ATOM     14  C   UNL     1       3.778   6.480  18.198  0.00  0.00    +0.000 C 
BRANCH  14  15
ATOM     15  C   UNL     1       2.691   7.451  18.628  0.00  0.00    +0.000 A 
ATOM     16  C   UNL     1       2.189   8.407  17.733  0.00  0.00    +0.000 A 
ATOM     17  C   UNL     1       1.240   9.351  18.150  0.00  0.00    +0.000 A 
ATOM     18  C   UNL     1       0.782   9.345  19.473  0.00  0.00    +0.000 A 
ATOM     19  C   UNL     1       1.264   8.386  20.370  0.00  0.00    +0.000 A 
ATOM     20  C   UNL     1       2.215   7.448  19.947  0.00  0.00    +0.000 A 
BRANCH  18  21
ATOM     21  N   UNL     1      -0.176  10.349  19.919  0.00  0.00    +0.000 N 
ATOM     22  C   UNL     1      -1.053  10.904  19.040  0.00  0.00    +0.000 A 
ATOM     23  C   UNL     1      -1.956  11.887  19.442  0.00  0.00    +0.000 A 
ATOM     24  C   UNL     1      -1.971  12.304  20.763  0.00  0.00    +0.000 A 
ATOM     25  C   UNL     1      -1.085  11.729  21.659  0.00  0.00    +0.000 A 
ATOM     26  C   UNL     1      -0.193  10.755  21.217  0.00  0.00    +0.000 A 
ENDBRANCH  18  21
ENDBRANCH  14  15
ENDBRANCH   1  14
TORSDOF 6
ENDMDL
MODEL 6
REMARK VINA RESULT:      -8.0      3.074      9.124
REMARK  Name = 
REMARK  6 active torsions:
REMARK  status: ('A' for Active; 'I' for Inactive)
REMARK    1  A    between atoms: N_2  and  C_4
REMARK    2  A    between atoms: C_7  and  O_8
REMARK    3  A    between atoms: O_8  and  S_9
REMARK    4  A    between atoms: S_9  and  C_12
REMARK    5  A    between atoms: C_12  and  C_13
REMARK    6  A    between atoms: C_16  and  N_17
REMARK                            x       y       z     vdW  Elec       q    Type
REMARK                         _______ _______ _______ _____ _____    ______ ____
ROOT
ATOM      1  S   UNL     1       2.306   5.796  19.477  0.00  0.00    +0.000 S 
ATOM      2  O   UNL     1       1.433   5.164  20.449  0.00  0.00    +0.000 OA
ATOM      3  O   UNL     1       2.022   5.749  18.056  0.00  0.00    +0.000 OA
ENDROOT
BRANCH   1   4
ATOM      4  O   UNL     1       2.574   7.348  19.927  0.00  0.00    +0.000 OA
BRANCH   4   8
ATOM      5  C   UNL     1      -0.145  10.372  18.976  0.00  0.00    +0.000 A 
ATOM      6  C   UNL     1      -0.100   9.821  20.264  0.00  0.00    +0.000 A 
ATOM      7  C   UNL     1       0.830   8.814  20.552  0.00  0.00    +0.000 A 
ATOM      8  C   UNL     1       1.701   8.347  19.559  0.00  0.00    +0.000 A 
ATOM      9  C   UNL     1       1.664   8.923  18.285  0.00  0.00    +0.000 A 
ATOM     10  C   UNL     1       0.740   9.929  17.988  0.00  0.00    +0.000 A 
BRANCH   5  12
ATOM     11  O   UNL     1      -0.704  12.467  18.153  0.00  0.00    +0.000 OA
ATOM     12  N   UNL     1      -1.126  11.418  18.656  0.00  0.00    +0.000 N 
ATOM     13  O   UNL     1      -2.318  11.187  18.909  0.00  0.00    +0.000 OA
ENDBRANCH   5  12
ENDBRANCH   4   8
ENDBRANCH   1   4
BRANCH   1  14
ATOM     14  C   UNL     1       3.971   5.172  19.725  0.00  0.00    +0.000 C 
BRANCH  14  15
ATOM     15  C   UNL     1       4.617   4.990  18.362  0.00  0.00    +0.000 A 
ATOM     16  C   UNL     1       5.183   6.080  17.685  0.00  0.00    +0.000 A 
ATOM     17  C   UNL     1       5.713   5.928  16.396  0.00  0.00    +0.000 A 
ATOM     18  C   UNL     1       5.682   4.676  15.771  0.00  0.00    +0.000 A 
ATOM     19  C   UNL     1       5.135   3.577  16.443  0.00  0.00    +0.000 A 
ATOM     20  C   UNL     1       4.604   3.739  17.729  0.00  0.00    +0.000 A 
BRANCH  18  21
ATOM     21  N   UNL     1       6.198   4.523  14.416  0.00  0.00    +0.000 N 
ATOM     22  C   UNL     1       5.605   3.664  13.546  0.00  0.00    +0.000 A 
ATOM     23  C   UNL     1       6.102   3.481  12.256  0.00  0.00    +0.000 A 
ATOM     24  C   UNL     1       7.216   4.194  11.845  0.00  0.00    +0.000 A 
ATOM     25  C   UNL     1       7.812   5.078  12.729  0.00  0.00    +0.000 A 
ATOM     26  C   UNL     1       7.290   5.227  14.011  0.00  0.00    +0.000 A 
ENDBRANCH  18  21
ENDBRANCH  14  15
ENDBRANCH   1  14
TORSDOF 6
ENDMDL
MODEL 7
REMARK VINA RESULT:      -7.9      1.908      2.961
REMARK  Name = 
REMARK  6 active torsions:
REMARK  status: ('A' for Active; 'I' for Inactive)
REMARK    1  A    between atoms: N_2  and  C_4
REMARK    2  A    between atoms: C_7  and  O_8
REMARK    3  A    between atoms: O_8  and  S_9
REMARK    4  A    between atoms: S_9  and  C_12
REMARK    5  A    between atoms: C_12  and  C_13
REMARK    6  A    between atoms: C_16  and  N_17
REMARK                            x       y       z     vdW  Elec       q    Type
REMARK                         _______ _______ _______ _____ _____    ______ ____
ROOT
ATOM      1  S   UNL     1       1.762   3.610  19.168  0.00  0.00    +0.000 S 
ATOM      2  O   UNL     1       1.331   4.506  18.110  0.00  0.00    +0.000 OA
ATOM      3  O   UNL     1       0.868   2.619  19.736  0.00  0.00    +0.000 OA
ENDROOT
BRANCH   1   4
ATOM      4  O   UNL     1       3.161   2.887  18.720  0.00  0.00    +0.000 OA
BRANCH   4   8
ATOM      5  C   UNL     1       6.182   5.031  16.792  0.00  0.00    +0.000 A 
ATOM      6  C   UNL     1       6.277   4.718  18.154  0.00  0.00    +0.000 A 
ATOM      7  C   UNL     1       5.249   3.990  18.768  0.00  0.00    +0.000 A 
ATOM      8  C   UNL     1       4.127   3.588  18.033  0.00  0.00    +0.000 A 
ATOM      9  C   UNL     1       4.056   3.884  16.668  0.00  0.00    +0.000 A 
ATOM     10  C   UNL     1       5.077   4.610  16.046  0.00  0.00    +0.000 A 
BRANCH   5  12
ATOM     11  O   UNL     1       7.665   6.814  16.725  0.00  0.00    +0.000 OA
ATOM     12  N   UNL     1       7.244   5.808  16.138  0.00  0.00    +0.000 N 
ATOM     13  O   UNL     1       7.656   5.410  15.038  0.00  0.00    +0.000 OA
ENDBRANCH   5  12
ENDBRANCH   4   8
ENDBRANCH   1   4
BRANCH   1  14
ATOM     14  C   UNL     1       2.411   4.602  20.517  0.00  0.00    +0.000 C 
BRANCH  14  15
ATOM     15  C   UNL     1       2.023   6.049  20.271  0.00  0.00    +0.000 A 
ATOM     16  C   UNL     1       2.512   6.745  19.155  0.00  0.00    +0.000 A 
ATOM     17  C   UNL     1       2.215   8.102  18.968  0.00  0.00    +0.000 A 
ATOM     18  C   UNL     1       1.419   8.778  19.900  0.00  0.00    +0.000 A 
ATOM     19  C   UNL     1       0.911   8.091  21.009  0.00  0.00    +0.000 A 
ATOM     20  C   UNL     1       1.216   6.736  21.190  0.00  0.00    +0.000 A 
BRANCH  18  21
ATOM     21  N   UNL     1       1.138  10.198  19.727  0.00  0.00    +0.000 N 
ATOM     22  C   UNL     1       1.494  10.836  18.581  0.00  0.00    +0.000 A 
ATOM     23  C   UNL     1       1.262  12.200  18.410  0.00  0.00    +0.000 A 
ATOM     24  C   UNL     1       0.648  12.923  19.421  0.00  0.00    +0.000 A 
ATOM     25  C   UNL     1       0.276  12.267  20.583  0.00  0.00    +0.000 A 
ATOM     26  C   UNL     1       0.532  10.905  20.719  0.00  0.00    +0.000 A 
ENDBRANCH  18  21
ENDBRANCH  14  15
ENDBRANCH   1  14
TORSDOF 6
ENDMDL
MODEL 8
REMARK VINA RESULT:      -7.8      2.143      3.050
REMARK  Name = 
REMARK  6 active torsions:
REMARK  status: ('A' for Active; 'I' for Inactive)
REMARK    1  A    between atoms: N_2  and  C_4
REMARK    2  A    between atoms: C_7  and  O_8
REMARK    3  A    between atoms: O_8  and  S_9
REMARK    4  A    between atoms: S_9  and  C_12
REMARK    5  A    between atoms: C_12  and  C_13
REMARK    6  A    between atoms: C_16  and  N_17
REMARK                            x       y       z     vdW  Elec       q    Type
REMARK                         _______ _______ _______ _____ _____    ______ ____
ROOT
ATOM      1  S   UNL     1       2.125   4.264  20.207  0.00  0.00    +0.000 S 
ATOM      2  O   UNL     1       0.878   4.732  19.631  0.00  0.00    +0.000 OA
ATOM      3  O   UNL     1       2.169   3.628  21.510  0.00  0.00    +0.000 OA
ENDROOT
BRANCH   1   4
ATOM      4  O   UNL     1       2.898   3.319  19.115  0.00  0.00    +0.000 OA
BRANCH   4   8
ATOM      5  C   UNL     1       6.036   4.874  16.841  0.00  0.00    +0.000 A 
ATOM      6  C   UNL     1       6.236   4.478  18.170  0.00  0.00    +0.000 A 
ATOM      7  C   UNL     1       5.163   3.952  18.902  0.00  0.00    +0.000 A 
ATOM      8  C   UNL     1       3.895   3.835  18.319  0.00  0.00    +0.000 A 
ATOM      9  C   UNL     1       3.715   4.209  16.983  0.00  0.00    +0.000 A 
ATOM     10  C   UNL     1       4.779   4.733  16.244  0.00  0.00    +0.000 A 
BRANCH   5  12
ATOM     11  O   UNL     1       7.556   4.798  15.090  0.00  0.00    +0.000 OA
ATOM     12  N   UNL     1       7.148   5.441  16.066  0.00  0.00    +0.000 N 
ATOM     13  O   UNL     1       7.613   6.529  16.437  0.00  0.00    +0.000 OA
ENDBRANCH   5  12
ENDBRANCH   4   8
ENDBRANCH   1   4
BRANCH   1  14
ATOM     14  C   UNL     1       3.288   5.632  20.223  0.00  0.00    +0.000 C 
BRANCH  14  15
ATOM     15  C   UNL     1       2.535   6.899  19.857  0.00  0.00    +0.000 A 
ATOM     16  C   UNL     1       1.774   7.584  20.815  0.00  0.00    +0.000 A 
ATOM     17  C   UNL     1       1.019   8.711  20.460  0.00  0.00    +0.000 A 
ATOM     18  C   UNL     1       1.021   9.165  19.136  0.00  0.00    +0.000 A 
ATOM     19  C   UNL     1       1.789   8.499  18.174  0.00  0.00    +0.000 A 
ATOM     20  C   UNL     1       2.538   7.372  18.536  0.00  0.00    +0.000 A 
BRANCH  18  21
ATOM     21  N   UNL     1       0.208  10.314  18.757  0.00  0.00    +0.000 N 
ATOM     22  C   UNL     1       0.667  11.578  18.952  0.00  0.00    +0.000 A 
ATOM     23  C   UNL     1      -0.109  12.689  18.624  0.00  0.00    +0.000 A 
ATOM     24  C   UNL     1      -1.369  12.507  18.078  0.00  0.00    +0.000 A 
ATOM     25  C   UNL     1      -1.830  11.217  17.868  0.00  0.00    +0.000 A 
ATOM     26  C   UNL     1      -1.028  10.134  18.217  0.00  0.00    +0.000 A 
ENDBRANCH  18  21
ENDBRANCH  14  15
ENDBRANCH   1  14
TORSDOF 6
ENDMDL
MODEL 9
REMARK VINA RESULT:      -7.8      1.980      3.119
REMARK  Name = 
REMARK  6 active torsions:
REMARK  status: ('A' for Active; 'I' for Inactive)
REMARK    1  A    between atoms: N_2  and  C_4
REMARK    2  A    between atoms: C_7  and  O_8
REMARK    3  A    between atoms: O_8  and  S_9
REMARK    4  A    between atoms: S_9  and  C_12
REMARK    5  A    between atoms: C_12  and  C_13
REMARK    6  A    between atoms: C_16  and  N_17
REMARK                            x       y       z     vdW  Elec       q    Type
REMARK                         _______ _______ _______ _____ _____    ______ ____
ROOT
ATOM      1  S   UNL     1       1.788   4.392  19.550  0.00  0.00    +0.000 S 
ATOM      2  O   UNL     1       1.526   5.153  18.342  0.00  0.00    +0.000 OA
ATOM      3  O   UNL     1       0.799   3.493  20.112  0.00  0.00    +0.000 OA
ENDROOT
BRANCH   1   4
ATOM      4  O   UNL     1       3.211   3.598  19.383  0.00  0.00    +0.000 OA
BRANCH   4   8
ATOM      5  C   UNL     1       6.038   4.885  16.591  0.00  0.00    +0.000 A 
ATOM      6  C   UNL     1       5.980   5.450  17.872  0.00  0.00    +0.000 A 
ATOM      7  C   UNL     1       5.025   4.988  18.788  0.00  0.00    +0.000 A 
ATOM      8  C   UNL     1       4.122   3.981  18.425  0.00  0.00    +0.000 A 
ATOM      9  C   UNL     1       4.206   3.408  17.152  0.00  0.00    +0.000 A 
ATOM     10  C   UNL     1       5.157   3.861  16.231  0.00  0.00    +0.000 A 
BRANCH   5  12
ATOM     11  O   UNL     1       7.795   6.270  15.976  0.00  0.00    +0.000 OA
ATOM     12  N   UNL     1       7.024   5.370  15.616  0.00  0.00    +0.000 N 
ATOM     13  O   UNL     1       7.025   4.850  14.490  0.00  0.00    +0.000 OA
ENDBRANCH   5  12
ENDBRANCH   4   8
ENDBRANCH   1   4
BRANCH   1  14
ATOM     14  C   UNL     1       2.288   5.536  20.840  0.00  0.00    +0.000 C 
BRANCH  14  15
ATOM     15  C   UNL     1       1.886   6.937  20.413  0.00  0.00    +0.000 A 
ATOM     16  C   UNL     1       1.030   7.712  21.209  0.00  0.00    +0.000 A 
ATOM     17  C   UNL     1       0.599   8.976  20.781  0.00  0.00    +0.000 A 
ATOM     18  C   UNL     1       1.025   9.478  19.545  0.00  0.00    +0.000 A 
ATOM     19  C   UNL     1       1.892   8.720  18.749  0.00  0.00    +0.000 A 
ATOM     20  C   UNL     1       2.315   7.457  19.183  0.00  0.00    +0.000 A 
BRANCH  18  21
ATOM     21  N   UNL     1       0.549  10.775  19.080  0.00  0.00    +0.000 N 
ATOM     22  C   UNL     1       1.388  11.843  19.042  0.00  0.00    +0.000 A 
ATOM     23  C   UNL     1       0.943  13.098  18.629  0.00  0.00    +0.000 A 
ATOM     24  C   UNL     1      -0.376  13.264  18.240  0.00  0.00    +0.000 A 
ATOM     25  C   UNL     1      -1.226  12.170  18.268  0.00  0.00    +0.000 A 
ATOM     26  C   UNL     1      -0.746  10.934  18.694  0.00  0.00    +0.000 A 
ENDBRANCH  18  21
ENDBRANCH  14  15
ENDBRANCH   1  14
TORSDOF 6
ENDMDL
