MODEL 1
REMARK VINA RESULT:      -8.2      0.000      0.000
REMARK  Name = 
REMARK  15 active torsions:
REMARK  status: ('A' for Active; 'I' for Inactive)
REMARK    1  A    between atoms: C_1  and  C_2
REMARK    2  A    between atoms: C_2  and  C_3
REMARK    3  A    between atoms: C_2  and  N_4
REMARK    4  A    between atoms: N_4  and  C_5
REMARK    5  A    between atoms: C_5  and  C_6
REMARK    6  A    between atoms: C_10  and  O_11
REMARK    7  A    between atoms: O_11  and  C_12
REMARK    8  A    between atoms: C_12  and  C_13
REMARK    9  A    between atoms: C_13  and  C_14
REMARK   10  A    between atoms: C_14  and  C_15
REMARK   11  A    between atoms: C_15  and  C_16
REMARK   12  A    between atoms: C_16  and  C_17
REMARK   13  A    between atoms: C_17  and  O_19
REMARK   14  A    between atoms: C_21  and  C_23
REMARK   15  A    between atoms: C_26  and  C_27
REMARK                            x       y       z     vdW  Elec       q    Type
REMARK                         _______ _______ _______ _____ _____    ______ ____
ROOT
ATOM      1  N   UNL     1       2.909   4.514  18.993  0.00  0.00    +0.000 N 
ATOM      2  C   UNL     1       2.438   5.403  20.005  0.00  0.00    +0.000 C 
ATOM      3  O   UNL     1       2.315   5.068  21.185  0.00  0.00    +0.000 OA
ENDROOT
BRANCH   2   4
ATOM      4  C   UNL     1       2.078   6.812  19.699  0.00  0.00    +0.000 A 
ATOM      5  C   UNL     1       2.229   7.381  18.438  0.00  0.00    +0.000 A 
ATOM      6  C   UNL     1       1.940   8.724  18.221  0.00  0.00    +0.000 A 
ATOM      7  C   UNL     1       1.322   9.508  19.205  0.00  0.00    +0.000 A 
ATOM      8  C   UNL     1       1.068   8.897  20.445  0.00  0.00    +0.000 A 
ATOM      9  C   UNL     1       1.462   7.574  20.699  0.00  0.00    +0.000 A 
BRANCH   7  10
ATOM     10  C   UNL     1       0.922  10.897  18.898  0.00  0.00    +0.000 A 
ATOM     11  C   UNL     1       1.884  11.872  18.586  0.00  0.00    +0.000 A 
ATOM     12  C   UNL     1       1.489  13.175  18.331  0.00  0.00    +0.000 A 
ATOM     13  N   UNL     1       0.206  13.577  18.346  0.00  0.00    +0.000 NA
ATOM     14  C   UNL     1      -0.716  12.635  18.630  0.00  0.00    +0.000 A 
ATOM     15  C   UNL     1      -0.414  11.311  18.913  0.00  0.00    +0.000 A 
ENDBRANCH   7  10
ENDBRANCH   2   4
BRANCH   1  17
ATOM     16  C   UNL     1       2.576   2.135  18.325  0.00  0.00    +0.000 C 
ATOM     17  C   UNL     1       3.135   3.108  19.373  0.00  0.00    +0.000 C 
ATOM     18  C   UNL     1       4.617   2.842  19.660  0.00  0.00    +0.000 C 
ENDBRANCH   1  17
BRANCH   1  19
ATOM     19  C   UNL     1       3.003   4.928  17.594  0.00  0.00    +0.000 C 
BRANCH  19  20
ATOM     20  C   UNL     1       4.289   5.034  16.807  0.00  0.00    +0.000 A 
ATOM     21  C   UNL     1       4.831   3.930  16.146  0.00  0.00    +0.000 A 
ATOM     22  C   UNL     1       6.168   3.953  15.733  0.00  0.00    +0.000 A 
ATOM     23  C   UNL     1       6.978   5.060  16.015  0.00  0.00    +0.000 A 
ATOM     24  C   UNL     1       6.455   6.167  16.680  0.00  0.00    +0.000 A 
ATOM     25  C   UNL     1       5.095   6.181  16.997  0.00  0.00    +0.000 A 
BRANCH  24  26
ATOM     26  O   UNL     1       7.357   7.143  17.032  0.00  0.00    +0.000 OA
BRANCH  26  27
ATOM     27  C   UNL     1       7.990   6.973  18.307  0.00  0.00    +0.000 C 
BRANCH  27  28
ATOM     28  C   UNL     1       8.584   8.289  18.818  0.00  0.00    +0.000 C 
BRANCH  28  29
ATOM     29  C   UNL     1       8.288   9.507  17.938  0.00  0.00    +0.000 C 
BRANCH  29  30
ATOM     30  C   UNL     1       9.303  10.625  18.210  0.00  0.00    +0.000 C 
BRANCH  30  31
ATOM     31  C   UNL     1       9.652  10.745  19.693  0.00  0.00    +0.000 C 
BRANCH  31  32
ATOM     32  C   UNL     1      10.797  11.709  19.923  0.00  0.00    +0.000 C 
ATOM     33  O   UNL     1      11.883  11.663  19.368  0.00  0.00    +0.000 OA
BRANCH  32  34
ATOM     34  O   UNL     1      10.494  12.657  20.841  0.00  0.00    +0.000 OA
ATOM     35  H   UNL     1       9.605  12.561  21.229  0.00  0.00    +0.000 HD
ENDBRANCH  32  34
ENDBRANCH  31  32
ENDBRANCH  30  31
ENDBRANCH  29  30
ENDBRANCH  28  29
ENDBRANCH  27  28
ENDBRANCH  26  27
ENDBRANCH  24  26
ENDBRANCH  19  20
ENDBRANCH   1  19
TORSDOF 13
ENDMDL
MODEL 2
REMARK VINA RESULT:      -8.0      3.753      8.278
REMARK  Name = 
REMARK  15 active torsions:
REMARK  status: ('A' for Active; 'I' for Inactive)
REMARK    1  A    between atoms: C_1  and  C_2
REMARK    2  A    between atoms: C_2  and  C_3
REMARK    3  A    between atoms: C_2  and  N_4
REMARK    4  A    between atoms: N_4  and  C_5
REMARK    5  A    between atoms: C_5  and  C_6
REMARK    6  A    between atoms: C_10  and  O_11
REMARK    7  A    between atoms: O_11  and  C_12
REMARK    8  A    between atoms: C_12  and  C_13
REMARK    9  A    between atoms: C_13  and  C_14
REMARK   10  A    between atoms: C_14  and  C_15
REMARK   11  A    between atoms: C_15  and  C_16
REMARK   12  A    between atoms: C_16  and  C_17
REMARK   13  A    between atoms: C_17  and  O_19
REMARK   14  A    between atoms: C_21  and  C_23
REMARK   15  A    between atoms: C_26  and  C_27
REMARK                            x       y       z     vdW  Elec       q    Type
REMARK                         _______ _______ _______ _____ _____    ______ ____
ROOT
ATOM      1  N   UNL     1       4.758   4.595  18.242  0.00  0.00    +0.000 N 
ATOM      2  C   UNL     1       5.979   4.881  17.559  0.00  0.00    +0.000 C 
ATOM      3  O   UNL     1       6.468   4.124  16.720  0.00  0.00    +0.000 OA
ENDROOT
BRANCH   2   4
ATOM      4  C   UNL     1       6.736   6.136  17.809  0.00  0.00    +0.000 A 
ATOM      5  C   UNL     1       6.439   7.342  17.182  0.00  0.00    +0.000 A 
ATOM      6  C   UNL     1       7.222   8.471  17.400  0.00  0.00    +0.000 A 
ATOM      7  C   UNL     1       8.219   8.492  18.385  0.00  0.00    +0.000 A 
ATOM      8  C   UNL     1       8.441   7.300  19.096  0.00  0.00    +0.000 A 
ATOM      9  C   UNL     1       7.726   6.129  18.798  0.00  0.00    +0.000 A 
BRANCH   7  10
ATOM     10  C   UNL     1       8.949   9.745  18.670  0.00  0.00    +0.000 A 
ATOM     11  C   UNL     1       9.382  10.580  17.627  0.00  0.00    +0.000 A 
ATOM     12  C   UNL     1      10.091  11.734  17.917  0.00  0.00    +0.000 A 
ATOM     13  N   UNL     1      10.385  12.130  19.168  0.00  0.00    +0.000 NA
ATOM     14  C   UNL     1       9.953  11.333  20.167  0.00  0.00    +0.000 A 
ATOM     15  C   UNL     1       9.251  10.153  19.973  0.00  0.00    +0.000 A 
ENDBRANCH   7  10
ENDBRANCH   2   4
BRANCH   1  17
ATOM     16  C   UNL     1       3.954   2.492  19.315  0.00  0.00    +0.000 C 
ATOM     17  C   UNL     1       4.140   3.278  18.008  0.00  0.00    +0.000 C 
ATOM     18  C   UNL     1       2.823   3.412  17.235  0.00  0.00    +0.000 C 
ENDBRANCH   1  17
BRANCH   1  19
ATOM     19  C   UNL     1       4.225   5.493  19.265  0.00  0.00    +0.000 C 
BRANCH  19  20
ATOM     20  C   UNL     1       3.119   6.499  19.042  0.00  0.00    +0.000 A 
ATOM     21  C   UNL     1       2.941   7.124  17.805  0.00  0.00    +0.000 A 
ATOM     22  C   UNL     1       2.162   8.283  17.718  0.00  0.00    +0.000 A 
ATOM     23  C   UNL     1       1.593   8.845  18.867  0.00  0.00    +0.000 A 
ATOM     24  C   UNL     1       1.766   8.237  20.109  0.00  0.00    +0.000 A 
ATOM     25  C   UNL     1       2.457   7.025  20.175  0.00  0.00    +0.000 A 
BRANCH  24  26
ATOM     26  O   UNL     1       1.287   8.932  21.194  0.00  0.00    +0.000 OA
BRANCH  26  27
ATOM     27  C   UNL     1      -0.104   8.746  21.485  0.00  0.00    +0.000 C 
BRANCH  27  28
ATOM     28  C   UNL     1      -0.614   9.794  22.479  0.00  0.00    +0.000 C 
BRANCH  28  29
ATOM     29  C   UNL     1      -0.164  11.228  22.182  0.00  0.00    +0.000 C 
BRANCH  29  30
ATOM     30  C   UNL     1      -1.157  12.237  22.774  0.00  0.00    +0.000 C 
BRANCH  30  31
ATOM     31  C   UNL     1      -2.439  11.567  23.271  0.00  0.00    +0.000 C 
BRANCH  31  32
ATOM     32  C   UNL     1      -3.413  12.576  23.841  0.00  0.00    +0.000 C 
ATOM     33  O   UNL     1      -3.343  13.786  23.697  0.00  0.00    +0.000 OA
BRANCH  32  34
ATOM     34  O   UNL     1      -4.401  11.989  24.557  0.00  0.00    +0.000 OA
ATOM     35  H   UNL     1      -4.491  12.338  25.463  0.00  0.00    +0.000 HD
ENDBRANCH  32  34
ENDBRANCH  31  32
ENDBRANCH  30  31
ENDBRANCH  29  30
ENDBRANCH  28  29
ENDBRANCH  27  28
ENDBRANCH  26  27
ENDBRANCH  24  26
ENDBRANCH  19  20
ENDBRANCH   1  19
TORSDOF 13
ENDMDL
MODEL 3
REMARK VINA RESULT:      -8.0      3.482      8.445
REMARK  Name = 
REMARK  15 active torsions:
REMARK  status: ('A' for Active; 'I' for Inactive)
REMARK    1  A    between atoms: C_1  and  C_2
REMARK    2  A    between atoms: C_2  and  C_3
REMARK    3  A    between atoms: C_2  and  N_4
REMARK    4  A    between atoms: N_4  and  C_5
REMARK    5  A    between atoms: C_5  and  C_6
REMARK    6  A    between atoms: C_10  and  O_11
REMARK    7  A    between atoms: O_11  and  C_12
REMARK    8  A    between atoms: C_12  and  C_13
REMARK    9  A    between atoms: C_13  and  C_14
REMARK   10  A    between atoms: C_14  and  C_15
REMARK   11  A    between atoms: C_15  and  C_16
REMARK   12  A    between atoms: C_16  and  C_17
REMARK   13  A    between atoms: C_17  and  O_19
REMARK   14  A    between atoms: C_21  and  C_23
REMARK   15  A    between atoms: C_26  and  C_27
REMARK                            x       y       z     vdW  Elec       q    Type
REMARK                         _______ _______ _______ _____ _____    ______ ____
ROOT
ATOM      1  N   UNL     1       4.912   4.661  18.231  0.00  0.00    +0.000 N 
ATOM      2  C   UNL     1       6.165   4.942  17.607  0.00  0.00    +0.000 C 
ATOM      3  O   UNL     1       6.707   4.166  16.818  0.00  0.00    +0.000 OA
ENDROOT
BRANCH   2   4
ATOM      4  C   UNL     1       6.894   6.213  17.858  0.00  0.00    +0.000 A 
ATOM      5  C   UNL     1       6.628   7.393  17.170  0.00  0.00    +0.000 A 
ATOM      6  C   UNL     1       7.385   8.537  17.397  0.00  0.00    +0.000 A 
ATOM      7  C   UNL     1       8.317   8.603  18.442  0.00  0.00    +0.000 A 
ATOM      8  C   UNL     1       8.503   7.440  19.209  0.00  0.00    +0.000 A 
ATOM      9  C   UNL     1       7.819   6.252  18.908  0.00  0.00    +0.000 A 
BRANCH   7  10
ATOM     10  C   UNL     1       9.017   9.873  18.728  0.00  0.00    +0.000 A 
ATOM     11  C   UNL     1       9.376  10.748  17.689  0.00  0.00    +0.000 A 
ATOM     12  C   UNL     1      10.058  11.918  17.977  0.00  0.00    +0.000 A 
ATOM     13  N   UNL     1      10.393  12.293  19.225  0.00  0.00    +0.000 NA
ATOM     14  C   UNL     1      10.033  11.459  20.221  0.00  0.00    +0.000 A 
ATOM     15  C   UNL     1       9.362  10.260  20.026  0.00  0.00    +0.000 A 
ENDBRANCH   7  10
ENDBRANCH   2   4
BRANCH   1  17
ATOM     16  C   UNL     1       4.016   2.607  19.324  0.00  0.00    +0.000 C 
ATOM     17  C   UNL     1       4.322   3.330  18.004  0.00  0.00    +0.000 C 
ATOM     18  C   UNL     1       3.082   3.419  17.106  0.00  0.00    +0.000 C 
ENDBRANCH   1  17
BRANCH   1  19
ATOM     19  C   UNL     1       4.314   5.583  19.195  0.00  0.00    +0.000 C 
BRANCH  19  20
ATOM     20  C   UNL     1       3.229   6.586  18.876  0.00  0.00    +0.000 A 
ATOM     21  C   UNL     1       3.247   7.327  17.692  0.00  0.00    +0.000 A 
ATOM     22  C   UNL     1       2.456   8.475  17.579  0.00  0.00    +0.000 A 
ATOM     23  C   UNL     1       1.676   8.910  18.657  0.00  0.00    +0.000 A 
ATOM     24  C   UNL     1       1.652   8.186  19.848  0.00  0.00    +0.000 A 
ATOM     25  C   UNL     1       2.363   6.986  19.920  0.00  0.00    +0.000 A 
BRANCH  24  26
ATOM     26  O   UNL     1       0.968   8.762  20.892  0.00  0.00    +0.000 OA
BRANCH  26  27
ATOM     27  C   UNL     1       0.680  10.159  20.750  0.00  0.00    +0.000 C 
BRANCH  27  28
ATOM     28  C   UNL     1      -0.794  10.395  20.409  0.00  0.00    +0.000 C 
BRANCH  28  29
ATOM     29  C   UNL     1      -1.033  11.143  19.094  0.00  0.00    +0.000 C 
BRANCH  29  30
ATOM     30  C   UNL     1      -2.255  10.568  18.364  0.00  0.00    +0.000 C 
BRANCH  30  31
ATOM     31  C   UNL     1      -3.257  11.653  17.966  0.00  0.00    +0.000 C 
BRANCH  31  32
ATOM     32  C   UNL     1      -4.583  11.061  17.540  0.00  0.00    +0.000 C 
ATOM     33  O   UNL     1      -5.452  10.655  18.294  0.00  0.00    +0.000 OA
BRANCH  32  34
ATOM     34  O   UNL     1      -4.717  11.016  16.194  0.00  0.00    +0.000 OA
ATOM     35  H   UNL     1      -5.624  11.195  15.881  0.00  0.00    +0.000 HD
ENDBRANCH  32  34
ENDBRANCH  31  32
ENDBRANCH  30  31
ENDBRANCH  29  30
ENDBRANCH  28  29
ENDBRANCH  27  28
ENDBRANCH  26  27
ENDBRANCH  24  26
ENDBRANCH  19  20
ENDBRANCH   1  19
TORSDOF 13
ENDMDL
MODEL 4
REMARK VINA RESULT:      -8.0      1.050      1.692
REMARK  Name = 
REMARK  15 active torsions:
REMARK  status: ('A' for Active; 'I' for Inactive)
REMARK    1  A    between atoms: C_1  and  C_2
REMARK    2  A    between atoms: C_2  and  C_3
REMARK    3  A    between atoms: C_2  and  N_4
REMARK    4  A    between atoms: N_4  and  C_5
REMARK    5  A    between atoms: C_5  and  C_6
REMARK    6  A    between atoms: C_10  and  O_11
REMARK    7  A    between atoms: O_11  and  C_12
REMARK    8  A    between atoms: C_12  and  C_13
REMARK    9  A    between atoms: C_13  and  C_14
REMARK   10  A    between atoms: C_14  and  C_15
REMARK   11  A    between atoms: C_15  and  C_16
REMARK   12  A    between atoms: C_16  and  C_17
REMARK   13  A    between atoms: C_17  and  O_19
REMARK   14  A    between atoms: C_21  and  C_23
REMARK   15  A    between atoms: C_26  and  C_27
REMARK                            x       y       z     vdW  Elec       q    Type
REMARK                         _______ _______ _______ _____ _____    ______ ____
ROOT
ATOM      1  N   UNL     1       2.926   4.697  18.969  0.00  0.00    +0.000 N 
ATOM      2  C   UNL     1       2.306   5.485  19.985  0.00  0.00    +0.000 C 
ATOM      3  O   UNL     1       2.055   5.048  21.109  0.00  0.00    +0.000 OA
ENDROOT
BRANCH   2   4
ATOM      4  C   UNL     1       1.937   6.906  19.753  0.00  0.00    +0.000 A 
ATOM      5  C   UNL     1       1.455   7.742  20.756  0.00  0.00    +0.000 A 
ATOM      6  C   UNL     1       1.060   9.045  20.470  0.00  0.00    +0.000 A 
ATOM      7  C   UNL     1       1.296   9.624  19.216  0.00  0.00    +0.000 A 
ATOM      8  C   UNL     1       1.887   8.808  18.235  0.00  0.00    +0.000 A 
ATOM      9  C   UNL     1       2.182   7.460  18.491  0.00  0.00    +0.000 A 
BRANCH   7  10
ATOM     10  C   UNL     1       0.971  11.047  18.986  0.00  0.00    +0.000 A 
ATOM     11  C   UNL     1      -0.335  11.528  19.174  0.00  0.00    +0.000 A 
ATOM     12  C   UNL     1      -0.623  12.859  18.924  0.00  0.00    +0.000 A 
ATOM     13  N   UNL     1       0.296  13.753  18.519  0.00  0.00    +0.000 NA
ATOM     14  C   UNL     1       1.553  13.292  18.355  0.00  0.00    +0.000 A 
ATOM     15  C   UNL     1       1.931  11.974  18.567  0.00  0.00    +0.000 A 
ENDBRANCH   7  10
ENDBRANCH   2   4
BRANCH   1  17
ATOM     16  C   UNL     1       2.682   2.371  18.106  0.00  0.00    +0.000 C 
ATOM     17  C   UNL     1       3.154   3.271  19.258  0.00  0.00    +0.000 C 
ATOM     18  C   UNL     1       4.620   3.005  19.621  0.00  0.00    +0.000 C 
ENDBRANCH   1  17
BRANCH   1  19
ATOM     19  C   UNL     1       3.172   5.232  17.630  0.00  0.00    +0.000 C 
BRANCH  19  20
ATOM     20  C   UNL     1       4.534   5.359  16.986  0.00  0.00    +0.000 A 
ATOM     21  C   UNL     1       5.025   4.379  16.120  0.00  0.00    +0.000 A 
ATOM     22  C   UNL     1       6.392   4.336  15.823  0.00  0.00    +0.000 A 
ATOM     23  C   UNL     1       7.277   5.241  16.419  0.00  0.00    +0.000 A 
ATOM     24  C   UNL     1       6.805   6.221  17.291  0.00  0.00    +0.000 A 
ATOM     25  C   UNL     1       5.428   6.326  17.503  0.00  0.00    +0.000 A 
BRANCH  24  26
ATOM     26  O   UNL     1       7.761   6.974  17.930  0.00  0.00    +0.000 OA
BRANCH  26  27
ATOM     27  C   UNL     1       7.793   8.364  17.579  0.00  0.00    +0.000 C 
BRANCH  27  28
ATOM     28  C   UNL     1       8.541   9.190  18.629  0.00  0.00    +0.000 C 
BRANCH  28  29
ATOM     29  C   UNL     1       9.083  10.529  18.120  0.00  0.00    +0.000 C 
BRANCH  29  30
ATOM     30  C   UNL     1      10.134  11.087  19.089  0.00  0.00    +0.000 C 
BRANCH  30  31
ATOM     31  C   UNL     1      10.493  12.541  18.782  0.00  0.00    +0.000 C 
BRANCH  31  32
ATOM     32  C   UNL     1       9.259  13.413  18.681  0.00  0.00    +0.000 C 
ATOM     33  O   UNL     1       8.454  13.607  19.578  0.00  0.00    +0.000 OA
BRANCH  32  34
ATOM     34  O   UNL     1       9.123  13.971  17.456  0.00  0.00    +0.000 OA
ATOM     35  H   UNL     1       8.743  13.370  16.788  0.00  0.00    +0.000 HD
ENDBRANCH  32  34
ENDBRANCH  31  32
ENDBRANCH  30  31
ENDBRANCH  29  30
ENDBRANCH  28  29
ENDBRANCH  27  28
ENDBRANCH  26  27
ENDBRANCH  24  26
ENDBRANCH  19  20
ENDBRANCH   1  19
TORSDOF 13
ENDMDL
MODEL 5
REMARK VINA RESULT:      -8.0      3.692      8.361
REMARK  Name = 
REMARK  15 active torsions:
REMARK  status: ('A' for Active; 'I' for Inactive)
REMARK    1  A    between atoms: C_1  and  C_2
REMARK    2  A    between atoms: C_2  and  C_3
REMARK    3  A    between atoms: C_2  and  N_4
REMARK    4  A    between atoms: N_4  and  C_5
REMARK    5  A    between atoms: C_5  and  C_6
REMARK    6  A    between atoms: C_10  and  O_11
REMARK    7  A    between atoms: O_11  and  C_12
REMARK    8  A    between atoms: C_12  and  C_13
REMARK    9  A    between atoms: C_13  and  C_14
REMARK   10  A    between atoms: C_14  and  C_15
REMARK   11  A    between atoms: C_15  and  C_16
REMARK   12  A    between atoms: C_16  and  C_17
REMARK   13  A    between atoms: C_17  and  O_19
REMARK   14  A    between atoms: C_21  and  C_23
REMARK   15  A    between atoms: C_26  and  C_27
REMARK                            x       y       z     vdW  Elec       q    Type
REMARK                         _______ _______ _______ _____ _____    ______ ____
ROOT
ATOM      1  N   UNL     1       5.054   4.679  18.115  0.00  0.00    +0.000 N 
ATOM      2  C   UNL     1       6.299   5.027  17.511  0.00  0.00    +0.000 C 
ATOM      3  O   UNL     1       6.847   4.326  16.658  0.00  0.00    +0.000 OA
ENDROOT
BRANCH   2   4
ATOM      4  C   UNL     1       7.013   6.282  17.863  0.00  0.00    +0.000 A 
ATOM      5  C   UNL     1       7.966   6.359  18.874  0.00  0.00    +0.000 A 
ATOM      6  C   UNL     1       8.556   7.574  19.208  0.00  0.00    +0.000 A 
ATOM      7  C   UNL     1       8.355   8.723  18.432  0.00  0.00    +0.000 A 
ATOM      8  C   UNL     1       7.475   8.613  17.341  0.00  0.00    +0.000 A 
ATOM      9  C   UNL     1       6.794   7.416  17.072  0.00  0.00    +0.000 A 
BRANCH   7  10
ATOM     10  C   UNL     1       9.091   9.965  18.748  0.00  0.00    +0.000 A 
ATOM     11  C   UNL     1       9.331  10.343  20.079  0.00  0.00    +0.000 A 
ATOM     12  C   UNL     1       9.997  11.526  20.351  0.00  0.00    +0.000 A 
ATOM     13  N   UNL     1      10.459  12.353  19.397  0.00  0.00    +0.000 NA
ATOM     14  C   UNL     1      10.241  11.979  18.120  0.00  0.00    +0.000 A 
ATOM     15  C   UNL     1       9.572  10.821  17.752  0.00  0.00    +0.000 A 
ENDBRANCH   7  10
ENDBRANCH   2   4
BRANCH   1  17
ATOM     16  C   UNL     1       4.031   2.600  19.037  0.00  0.00    +0.000 C 
ATOM     17  C   UNL     1       4.479   3.364  17.782  0.00  0.00    +0.000 C 
ATOM     18  C   UNL     1       3.341   3.497  16.763  0.00  0.00    +0.000 C 
ENDBRANCH   1  17
BRANCH   1  19
ATOM     19  C   UNL     1       4.450   5.511  19.155  0.00  0.00    +0.000 C 
BRANCH  19  20
ATOM     20  C   UNL     1       3.284   6.449  18.944  0.00  0.00    +0.000 A 
ATOM     21  C   UNL     1       3.271   7.370  17.893  0.00  0.00    +0.000 A 
ATOM     22  C   UNL     1       2.376   8.445  17.922  0.00  0.00    +0.000 A 
ATOM     23  C   UNL     1       1.521   8.629  19.016  0.00  0.00    +0.000 A 
ATOM     24  C   UNL     1       1.527   7.723  20.075  0.00  0.00    +0.000 A 
ATOM     25  C   UNL     1       2.347   6.596  19.993  0.00  0.00    +0.000 A 
BRANCH  24  26
ATOM     26  O   UNL     1       0.754   8.060  21.162  0.00  0.00    +0.000 OA
BRANCH  26  27
ATOM     27  C   UNL     1       0.160   9.363  21.121  0.00  0.00    +0.000 C 
BRANCH  27  28
ATOM     28  C   UNL     1       0.331  10.100  22.452  0.00  0.00    +0.000 C 
BRANCH  28  29
ATOM     29  C   UNL     1      -0.977  10.569  23.095  0.00  0.00    +0.000 C 
BRANCH  29  30
ATOM     30  C   UNL     1      -1.153  12.083  22.911  0.00  0.00    +0.000 C 
BRANCH  30  31
ATOM     31  C   UNL     1      -2.378  12.426  22.062  0.00  0.00    +0.000 C 
BRANCH  31  32
ATOM     32  C   UNL     1      -3.566  12.805  22.921  0.00  0.00    +0.000 C 
ATOM     33  O   UNL     1      -4.193  12.041  23.638  0.00  0.00    +0.000 OA
BRANCH  32  34
ATOM     34  O   UNL     1      -3.883  14.116  22.812  0.00  0.00    +0.000 OA
ATOM     35  H   UNL     1      -4.822  14.311  22.992  0.00  0.00    +0.000 HD
ENDBRANCH  32  34
ENDBRANCH  31  32
ENDBRANCH  30  31
ENDBRANCH  29  30
ENDBRANCH  28  29
ENDBRANCH  27  28
ENDBRANCH  26  27
ENDBRANCH  24  26
ENDBRANCH  19  20
ENDBRANCH   1  19
TORSDOF 13
ENDMDL
MODEL 6
REMARK VINA RESULT:      -7.9      0.676      1.070
REMARK  Name = 
REMARK  15 active torsions:
REMARK  status: ('A' for Active; 'I' for Inactive)
REMARK    1  A    between atoms: C_1  and  C_2
REMARK    2  A    between atoms: C_2  and  C_3
REMARK    3  A    between atoms: C_2  and  N_4
REMARK    4  A    between atoms: N_4  and  C_5
REMARK    5  A    between atoms: C_5  and  C_6
REMARK    6  A    between atoms: C_10  and  O_11
REMARK    7  A    between atoms: O_11  and  C_12
REMARK    8  A    between atoms: C_12  and  C_13
REMARK    9  A    between atoms: C_13  and  C_14
REMARK   10  A    between atoms: C_14  and  C_15
REMARK   11  A    between atoms: C_15  and  C_16
REMARK   12  A    between atoms: C_16  and  C_17
REMARK   13  A    between atoms: C_17  and  O_19
REMARK   14  A    between atoms: C_21  and  C_23
REMARK   15  A    between atoms: C_26  and  C_27
REMARK                            x       y       z     vdW  Elec       q    Type
REMARK                         _______ _______ _______ _____ _____    ______ ____
ROOT
ATOM      1  N   UNL     1       2.901   4.548  19.074  0.00  0.00    +0.000 N 
ATOM      2  C   UNL     1       2.328   5.382  20.081  0.00  0.00    +0.000 C 
ATOM      3  O   UNL     1       2.100   4.987  21.225  0.00  0.00    +0.000 OA
ENDROOT
BRANCH   2   4
ATOM      4  C   UNL     1       1.984   6.803  19.813  0.00  0.00    +0.000 A 
ATOM      5  C   UNL     1       1.384   7.633  20.756  0.00  0.00    +0.000 A 
ATOM      6  C   UNL     1       1.022   8.936  20.432  0.00  0.00    +0.000 A 
ATOM      7  C   UNL     1       1.402   9.521  19.217  0.00  0.00    +0.000 A 
ATOM      8  C   UNL     1       2.109   8.712  18.309  0.00  0.00    +0.000 A 
ATOM      9  C   UNL     1       2.376   7.364  18.592  0.00  0.00    +0.000 A 
BRANCH   7  10
ATOM     10  C   UNL     1       1.103  10.945  18.957  0.00  0.00    +0.000 A 
ATOM     11  C   UNL     1       2.092  11.812  18.466  0.00  0.00    +0.000 A 
ATOM     12  C   UNL     1       1.797  13.149  18.258  0.00  0.00    +0.000 A 
ATOM     13  N   UNL     1       0.585  13.685  18.486  0.00  0.00    +0.000 NA
ATOM     14  C   UNL     1      -0.367  12.846  18.942  0.00  0.00    +0.000 A 
ATOM     15  C   UNL     1      -0.160  11.498  19.194  0.00  0.00    +0.000 A 
ENDBRANCH   7  10
ENDBRANCH   2   4
BRANCH   1  17
ATOM     16  C   UNL     1       2.513   2.200  18.330  0.00  0.00    +0.000 C 
ATOM     17  C   UNL     1       3.105   3.126  19.403  0.00  0.00    +0.000 C 
ATOM     18  C   UNL     1       4.586   2.822  19.659  0.00  0.00    +0.000 C 
ENDBRANCH   1  17
BRANCH   1  19
ATOM     19  C   UNL     1       3.121   5.033  17.712  0.00  0.00    +0.000 C 
BRANCH  19  20
ATOM     20  C   UNL     1       4.444   4.997  16.984  0.00  0.00    +0.000 A 
ATOM     21  C   UNL     1       4.696   4.063  15.976  0.00  0.00    +0.000 A 
ATOM     22  C   UNL     1       6.012   3.816  15.570  0.00  0.00    +0.000 A 
ATOM     23  C   UNL     1       7.082   4.466  16.195  0.00  0.00    +0.000 A 
ATOM     24  C   UNL     1       6.849   5.396  17.207  0.00  0.00    +0.000 A 
ATOM     25  C   UNL     1       5.530   5.716  17.536  0.00  0.00    +0.000 A 
BRANCH  24  26
ATOM     26  O   UNL     1       7.963   5.879  17.852  0.00  0.00    +0.000 OA
BRANCH  26  27
ATOM     27  C   UNL     1       7.820   7.174  18.451  0.00  0.00    +0.000 C 
BRANCH  27  28
ATOM     28  C   UNL     1       7.875   8.287  17.401  0.00  0.00    +0.000 C 
BRANCH  28  29
ATOM     29  C   UNL     1       8.196   9.676  17.961  0.00  0.00    +0.000 C 
BRANCH  29  30
ATOM     30  C   UNL     1       9.195   9.570  19.121  0.00  0.00    +0.000 C 
BRANCH  30  31
ATOM     31  C   UNL     1       9.400  10.907  19.834  0.00  0.00    +0.000 C 
BRANCH  31  32
ATOM     32  C   UNL     1      10.545  11.693  19.231  0.00  0.00    +0.000 C 
ATOM     33  O   UNL     1      11.710  11.332  19.193  0.00  0.00    +0.000 OA
BRANCH  32  34
ATOM     34  O   UNL     1      10.141  12.882  18.723  0.00  0.00    +0.000 OA
ATOM     35  H   UNL     1      10.198  13.621  19.357  0.00  0.00    +0.000 HD
ENDBRANCH  32  34
ENDBRANCH  31  32
ENDBRANCH  30  31
ENDBRANCH  29  30
ENDBRANCH  28  29
ENDBRANCH  27  28
ENDBRANCH  26  27
ENDBRANCH  24  26
ENDBRANCH  19  20
ENDBRANCH   1  19
TORSDOF 13
ENDMDL
MODEL 7
REMARK VINA RESULT:      -7.9      4.830     10.924
REMARK  Name = 
REMARK  15 active torsions:
REMARK  status: ('A' for Active; 'I' for Inactive)
REMARK    1  A    between atoms: C_1  and  C_2
REMARK    2  A    between atoms: C_2  and  C_3
REMARK    3  A    between atoms: C_2  and  N_4
REMARK    4  A    between atoms: N_4  and  C_5
REMARK    5  A    between atoms: C_5  and  C_6
REMARK    6  A    between atoms: C_10  and  O_11
REMARK    7  A    between atoms: O_11  and  C_12
REMARK    8  A    between atoms: C_12  and  C_13
REMARK    9  A    between atoms: C_13  and  C_14
REMARK   10  A    between atoms: C_14  and  C_15
REMARK   11  A    between atoms: C_15  and  C_16
REMARK   12  A    between atoms: C_16  and  C_17
REMARK   13  A    between atoms: C_17  and  O_19
REMARK   14  A    between atoms: C_21  and  C_23
REMARK   15  A    between atoms: C_26  and  C_27
REMARK                            x       y       z     vdW  Elec       q    Type
REMARK                         _______ _______ _______ _____ _____    ______ ____
ROOT
ATOM      1  N   UNL     1      -0.234  11.336  19.492  0.00  0.00    +0.000 N 
ATOM      2  C   UNL     1       1.134  10.971  19.307  0.00  0.00    +0.000 C 
ATOM      3  O   UNL     1       2.059  11.779  19.402  0.00  0.00    +0.000 OA
ENDROOT
BRANCH   2   4
ATOM      4  C   UNL     1       1.533   9.572  19.002  0.00  0.00    +0.000 A 
ATOM      5  C   UNL     1       1.918   9.149  17.734  0.00  0.00    +0.000 A 
ATOM      6  C   UNL     1       2.218   7.813  17.488  0.00  0.00    +0.000 A 
ATOM      7  C   UNL     1       2.320   6.881  18.530  0.00  0.00    +0.000 A 
ATOM      8  C   UNL     1       2.038   7.340  19.829  0.00  0.00    +0.000 A 
ATOM      9  C   UNL     1       1.627   8.662  20.061  0.00  0.00    +0.000 A 
BRANCH   7  10
ATOM     10  C   UNL     1       2.757   5.499  18.244  0.00  0.00    +0.000 A 
ATOM     11  C   UNL     1       2.058   4.399  18.769  0.00  0.00    +0.000 A 
ATOM     12  C   UNL     1       2.503   3.113  18.513  0.00  0.00    +0.000 A 
ATOM     13  N   UNL     1       3.581   2.838  17.758  0.00  0.00    +0.000 NA
ATOM     14  C   UNL     1       4.241   3.896  17.243  0.00  0.00    +0.000 A 
ATOM     15  C   UNL     1       3.878   5.217  17.457  0.00  0.00    +0.000 A 
ENDBRANCH   7  10
ENDBRANCH   2   4
BRANCH   1  17
ATOM     16  C   UNL     1      -0.680  13.503  18.342  0.00  0.00    +0.000 C 
ATOM     17  C   UNL     1      -0.537  12.765  19.682  0.00  0.00    +0.000 C 
ATOM     18  C   UNL     1      -1.773  12.958  20.568  0.00  0.00    +0.000 C 
ENDBRANCH   1  17
BRANCH   1  19
ATOM     19  C   UNL     1      -1.314  10.363  19.331  0.00  0.00    +0.000 C 
BRANCH  19  20
ATOM     20  C   UNL     1      -2.301  10.347  18.187  0.00  0.00    +0.000 A 
ATOM     21  C   UNL     1      -1.900  10.046  16.883  0.00  0.00    +0.000 A 
ATOM     22  C   UNL     1      -2.730  10.376  15.806  0.00  0.00    +0.000 A 
ATOM     23  C   UNL     1      -3.941  11.045  16.022  0.00  0.00    +0.000 A 
ATOM     24  C   UNL     1      -4.352  11.360  17.316  0.00  0.00    +0.000 A 
ATOM     25  C   UNL     1      -3.571  10.935  18.393  0.00  0.00    +0.000 A 
BRANCH  24  26
ATOM     26  O   UNL     1      -5.484  12.134  17.420  0.00  0.00    +0.000 OA
BRANCH  26  27
ATOM     27  C   UNL     1      -6.632  11.483  17.979  0.00  0.00    +0.000 C 
BRANCH  27  28
ATOM     28  C   UNL     1      -7.132  12.208  19.232  0.00  0.00    +0.000 C 
BRANCH  28  29
ATOM     29  C   UNL     1      -6.396  11.834  20.522  0.00  0.00    +0.000 C 
BRANCH  29  30
ATOM     30  C   UNL     1      -6.225  13.067  21.419  0.00  0.00    +0.000 C 
BRANCH  30  31
ATOM     31  C   UNL     1      -5.043  12.927  22.380  0.00  0.00    +0.000 C 
BRANCH  31  32
ATOM     32  C   UNL     1      -5.495  12.909  23.824  0.00  0.00    +0.000 C 
ATOM     33  O   UNL     1      -5.316  11.993  24.611  0.00  0.00    +0.000 OA
BRANCH  32  34
ATOM     34  O   UNL     1      -6.147  14.043  24.174  0.00  0.00    +0.000 OA
ATOM     35  H   UNL     1      -7.023  13.887  24.573  0.00  0.00    +0.000 HD
ENDBRANCH  32  34
ENDBRANCH  31  32
ENDBRANCH  30  31
ENDBRANCH  29  30
ENDBRANCH  28  29
ENDBRANCH  27  28
ENDBRANCH  26  27
ENDBRANCH  24  26
ENDBRANCH  19  20
ENDBRANCH   1  19
TORSDOF 13
ENDMDL
MODEL 8
REMARK VINA RESULT:      -7.9      3.630      8.191
REMARK  Name = 
REMARK  15 active torsions:
REMARK  status: ('A' for Active; 'I' for Inactive)
REMARK    1  A    between atoms: C_1  and  C_2
REMARK    2  A    between atoms: C_2  and  C_3
REMARK    3  A    between atoms: C_2  and  N_4
REMARK    4  A    between atoms: N_4  and  C_5
REMARK    5  A    between atoms: C_5  and  C_6
REMARK    6  A    between atoms: C_10  and  O_11
REMARK    7  A    between atoms: O_11  and  C_12
REMARK    8  A    between atoms: C_12  and  C_13
REMARK    9  A    between atoms: C_13  and  C_14
REMARK   10  A    between atoms: C_14  and  C_15
REMARK   11  A    between atoms: C_15  and  C_16
REMARK   12  A    between atoms: C_16  and  C_17
REMARK   13  A    between atoms: C_17  and  O_19
REMARK   14  A    between atoms: C_21  and  C_23
REMARK   15  A    between atoms: C_26  and  C_27
REMARK                            x       y       z     vdW  Elec       q    Type
REMARK                         _______ _______ _______ _____ _____    ______ ____
ROOT
ATOM      1  N   UNL     1       4.628   4.488  18.089  0.00  0.00    +0.000 N 
ATOM      2  C   UNL     1       5.803   4.830  17.356  0.00  0.00    +0.000 C 
ATOM      3  O   UNL     1       6.266   4.118  16.464  0.00  0.00    +0.000 OA
ENDROOT
BRANCH   2   4
ATOM      4  C   UNL     1       6.543   6.094  17.614  0.00  0.00    +0.000 A 
ATOM      5  C   UNL     1       6.208   7.308  17.021  0.00  0.00    +0.000 A 
ATOM      6  C   UNL     1       6.975   8.447  17.244  0.00  0.00    +0.000 A 
ATOM      7  C   UNL     1       7.995   8.466  18.205  0.00  0.00    +0.000 A 
ATOM      8  C   UNL     1       8.257   7.264  18.885  0.00  0.00    +0.000 A 
ATOM      9  C   UNL     1       7.557   6.086  18.579  0.00  0.00    +0.000 A 
BRANCH   7  10
ATOM     10  C   UNL     1       8.708   9.726  18.499  0.00  0.00    +0.000 A 
ATOM     11  C   UNL     1       9.356   9.917  19.731  0.00  0.00    +0.000 A 
ATOM     12  C   UNL     1       9.992  11.118  19.997  0.00  0.00    +0.000 A 
ATOM     13  N   UNL     1      10.049  12.137  19.121  0.00  0.00    +0.000 NA
ATOM     14  C   UNL     1       9.440  11.944  17.934  0.00  0.00    +0.000 A 
ATOM     15  C   UNL     1       8.766  10.783  17.585  0.00  0.00    +0.000 A 
ENDBRANCH   7  10
ENDBRANCH   2   4
BRANCH   1  17
ATOM     16  C   UNL     1       4.041   2.283  19.094  0.00  0.00    +0.000 C 
ATOM     17  C   UNL     1       4.029   3.165  17.837  0.00  0.00    +0.000 C 
ATOM     18  C   UNL     1       2.619   3.297  17.250  0.00  0.00    +0.000 C 
ENDBRANCH   1  17
BRANCH   1  19
ATOM     19  C   UNL     1       4.127   5.334  19.172  0.00  0.00    +0.000 C 
BRANCH  19  20
ATOM     20  C   UNL     1       3.070   6.403  19.016  0.00  0.00    +0.000 A 
ATOM     21  C   UNL     1       2.990   7.186  17.862  0.00  0.00    +0.000 A 
ATOM     22  C   UNL     1       2.256   8.377  17.880  0.00  0.00    +0.000 A 
ATOM     23  C   UNL     1       1.635   8.812  19.057  0.00  0.00    +0.000 A 
ATOM     24  C   UNL     1       1.711   8.046  20.219  0.00  0.00    +0.000 A 
ATOM     25  C   UNL     1       2.357   6.809  20.168  0.00  0.00    +0.000 A 
BRANCH  24  26
ATOM     26  O   UNL     1       1.188   8.617  21.355  0.00  0.00    +0.000 OA
BRANCH  26  27
ATOM     27  C   UNL     1       0.971  10.032  21.294  0.00  0.00    +0.000 C 
BRANCH  27  28
ATOM     28  C   UNL     1      -0.520  10.375  21.375  0.00  0.00    +0.000 C 
BRANCH  28  29
ATOM     29  C   UNL     1      -0.847  11.856  21.162  0.00  0.00    +0.000 C 
BRANCH  29  30
ATOM     30  C   UNL     1      -1.183  12.530  22.499  0.00  0.00    +0.000 C 
BRANCH  30  31
ATOM     31  C   UNL     1      -2.143  11.694  23.346  0.00  0.00    +0.000 C 
BRANCH  31  32
ATOM     32  C   UNL     1      -3.478  12.385  23.525  0.00  0.00    +0.000 C 
ATOM     33  O   UNL     1      -3.852  12.949  24.540  0.00  0.00    +0.000 OA
BRANCH  32  34
ATOM     34  O   UNL     1      -4.249  12.311  22.415  0.00  0.00    +0.000 OA
ATOM     35  H   UNL     1      -4.330  11.409  22.050  0.00  0.00    +0.000 HD
ENDBRANCH  32  34
ENDBRANCH  31  32
ENDBRANCH  30  31
ENDBRANCH  29  30
ENDBRANCH  28  29
ENDBRANCH  27  28
ENDBRANCH  26  27
ENDBRANCH  24  26
ENDBRANCH  19  20
ENDBRANCH   1  19
TORSDOF 13
ENDMDL
MODEL 9
REMARK VINA RESULT:      -7.9      3.328      7.800
REMARK  Name = 
REMARK  15 active torsions:
REMARK  status: ('A' for Active; 'I' for Inactive)
REMARK    1  A    between atoms: C_1  and  C_2
REMARK    2  A    between atoms: C_2  and  C_3
REMARK    3  A    between atoms: C_2  and  N_4
REMARK    4  A    between atoms: N_4  and  C_5
REMARK    5  A    between atoms: C_5  and  C_6
REMARK    6  A    between atoms: C_10  and  O_11
REMARK    7  A    between atoms: O_11  and  C_12
REMARK    8  A    between atoms: C_12  and  C_13
REMARK    9  A    between atoms: C_13  and  C_14
REMARK   10  A    between atoms: C_14  and  C_15
REMARK   11  A    between atoms: C_15  and  C_16
REMARK   12  A    between atoms: C_16  and  C_17
REMARK   13  A    between atoms: C_17  and  O_19
REMARK   14  A    between atoms: C_21  and  C_23
REMARK   15  A    between atoms: C_26  and  C_27
REMARK                            x       y       z     vdW  Elec       q    Type
REMARK                         _______ _______ _______ _____ _____    ______ ____
ROOT
ATOM      1  N   UNL     1       4.855   4.687  18.167  0.00  0.00    +0.000 N 
ATOM      2  C   UNL     1       6.103   4.964  17.532  0.00  0.00    +0.000 C 
ATOM      3  O   UNL     1       6.626   4.196  16.723  0.00  0.00    +0.000 OA
ENDROOT
BRANCH   2   4
ATOM      4  C   UNL     1       6.851   6.221  17.797  0.00  0.00    +0.000 A 
ATOM      5  C   UNL     1       6.549   7.432  17.180  0.00  0.00    +0.000 A 
ATOM      6  C   UNL     1       7.324   8.563  17.413  0.00  0.00    +0.000 A 
ATOM      7  C   UNL     1       8.316   8.581  18.403  0.00  0.00    +0.000 A 
ATOM      8  C   UNL     1       8.542   7.384  19.104  0.00  0.00    +0.000 A 
ATOM      9  C   UNL     1       7.837   6.211  18.790  0.00  0.00    +0.000 A 
BRANCH   7  10
ATOM     10  C   UNL     1       9.036   9.836  18.704  0.00  0.00    +0.000 A 
ATOM     11  C   UNL     1       9.292  10.220  20.031  0.00  0.00    +0.000 A 
ATOM     12  C   UNL     1       9.942  11.415  20.289  0.00  0.00    +0.000 A 
ATOM     13  N   UNL     1      10.374  12.248  19.326  0.00  0.00    +0.000 NA
ATOM     14  C   UNL     1      10.141  11.868  18.054  0.00  0.00    +0.000 A 
ATOM     15  C   UNL     1       9.485  10.699  17.699  0.00  0.00    +0.000 A 
ENDBRANCH   7  10
ENDBRANCH   2   4
BRANCH   1  17
ATOM     16  C   UNL     1       4.121   2.547  19.216  0.00  0.00    +0.000 C 
ATOM     17  C   UNL     1       4.246   3.368  17.923  0.00  0.00    +0.000 C 
ATOM     18  C   UNL     1       2.897   3.503  17.207  0.00  0.00    +0.000 C 
ENDBRANCH   1  17
BRANCH   1  19
ATOM     19  C   UNL     1       4.281   5.599  19.155  0.00  0.00    +0.000 C 
BRANCH  19  20
ATOM     20  C   UNL     1       3.147   6.562  18.889  0.00  0.00    +0.000 A 
ATOM     21  C   UNL     1       3.154   7.405  17.775  0.00  0.00    +0.000 A 
ATOM     22  C   UNL     1       2.298   8.511  17.735  0.00  0.00    +0.000 A 
ATOM     23  C   UNL     1       1.464   8.803  18.821  0.00  0.00    +0.000 A 
ATOM     24  C   UNL     1       1.450   7.976  19.942  0.00  0.00    +0.000 A 
ATOM     25  C   UNL     1       2.229   6.817  19.934  0.00  0.00    +0.000 A 
BRANCH  24  26
ATOM     26  O   UNL     1       0.703   8.417  21.009  0.00  0.00    +0.000 OA
BRANCH  26  27
ATOM     27  C   UNL     1       1.176   9.610  21.647  0.00  0.00    +0.000 C 
BRANCH  27  28
ATOM     28  C   UNL     1       0.153  10.745  21.543  0.00  0.00    +0.000 C 
BRANCH  28  29
ATOM     29  C   UNL     1       0.586  11.916  20.658  0.00  0.00    +0.000 C 
BRANCH  29  30
ATOM     30  C   UNL     1      -0.640  12.631  20.074  0.00  0.00    +0.000 C 
BRANCH  30  31
ATOM     31  C   UNL     1      -0.753  12.447  18.560  0.00  0.00    +0.000 C 
BRANCH  31  32
ATOM     32  C   UNL     1      -1.875  11.500  18.193  0.00  0.00    +0.000 C 
ATOM     33  O   UNL     1      -3.060  11.683  18.423  0.00  0.00    +0.000 OA
BRANCH  32  34
ATOM     34  O   UNL     1      -1.425  10.386  17.570  0.00  0.00    +0.000 OA
ATOM     35  H   UNL     1      -1.728  10.301  16.646  0.00  0.00    +0.000 HD
ENDBRANCH  32  34
ENDBRANCH  31  32
ENDBRANCH  30  31
ENDBRANCH  29  30
ENDBRANCH  28  29
ENDBRANCH  27  28
ENDBRANCH  26  27
ENDBRANCH  24  26
ENDBRANCH  19  20
ENDBRANCH   1  19
TORSDOF 13
ENDMDL
