MODEL 1
REMARK VINA RESULT:      -5.9      0.000      0.000
REMARK  Name = 
REMARK  3 active torsions:
REMARK  status: ('A' for Active; 'I' for Inactive)
REMARK    1  A    between atoms: C_1  and  C_2
REMARK    2  A    between atoms: C_2  and  C_3
REMARK    3  A    between atoms: C_3  and  C_4
REMARK                            x       y       z     vdW  Elec       q    Type
REMARK                         _______ _______ _______ _____ _____    ______ ____
ROOT
ATOM      1  C   UNL     1       6.852   5.799  17.982  0.00  0.00    +0.000 A 
ATOM      2  C   UNL     1       5.967   5.339  18.883  0.00  0.00    +0.000 A 
ATOM      3  N   UNL     1       5.013   4.388  18.583  0.00  0.00    +0.000 NA
ATOM      4  N   UNL     1       4.917   3.902  17.422  0.00  0.00    +0.000 NA
ATOM      5  C   UNL     1       5.771   4.305  16.437  0.00  0.00    +0.000 A 
ATOM      6  C   UNL     1       5.885   3.983  15.104  0.00  0.00    +0.000 A 
ATOM      7  C   UNL     1       6.967   4.746  14.645  0.00  0.00    +0.000 A 
ATOM      8  N   UNL     1       7.522   5.485  15.604  0.00  0.00    +0.000 NA
ATOM      9  N   UNL     1       6.760   5.245  16.704  0.00  0.00    +0.000 N 
ENDROOT
BRANCH   1  10
ATOM     10  C   UNL     1       7.906   6.830  18.281  0.00  0.00    +0.000 C 
BRANCH  10  12
ATOM     11  C   UNL     1       8.447   9.299  18.221  0.00  0.00    +0.000 C 
ATOM     12  C   UNL     1       7.649   8.172  17.584  0.00  0.00    +0.000 C 
ENDBRANCH  10  12
ENDBRANCH   1  10
TORSDOF 2
ENDMDL
MODEL 2
REMARK VINA RESULT:      -5.8      1.742      4.399
REMARK  Name = 
REMARK  3 active torsions:
REMARK  status: ('A' for Active; 'I' for Inactive)
REMARK    1  A    between atoms: C_1  and  C_2
REMARK    2  A    between atoms: C_2  and  C_3
REMARK    3  A    between atoms: C_3  and  C_4
REMARK                            x       y       z     vdW  Elec       q    Type
REMARK                         _______ _______ _______ _____ _____    ______ ____
ROOT
ATOM      1  C   UNL     1       5.264   4.260  16.886  0.00  0.00    +0.000 A 
ATOM      2  C   UNL     1       5.440   4.572  15.591  0.00  0.00    +0.000 A 
ATOM      3  N   UNL     1       6.411   5.450  15.153  0.00  0.00    +0.000 NA
ATOM      4  N   UNL     1       7.190   6.021  15.967  0.00  0.00    +0.000 NA
ATOM      5  C   UNL     1       7.091   5.769  17.304  0.00  0.00    +0.000 A 
ATOM      6  C   UNL     1       7.763   6.252  18.402  0.00  0.00    +0.000 A 
ATOM      7  C   UNL     1       7.181   5.593  19.494  0.00  0.00    +0.000 A 
ATOM      8  N   UNL     1       6.226   4.739  19.132  0.00  0.00    +0.000 NA
ATOM      9  N   UNL     1       6.140   4.873  17.782  0.00  0.00    +0.000 N 
ENDROOT
BRANCH   1  10
ATOM     10  C   UNL     1       4.219   3.303  17.392  0.00  0.00    +0.000 C 
BRANCH  10  12
ATOM     11  C   UNL     1       2.507   5.051  18.029  0.00  0.00    +0.000 C 
ATOM     12  C   UNL     1       2.787   3.815  17.189  0.00  0.00    +0.000 C 
ENDBRANCH  10  12
ENDBRANCH   1  10
TORSDOF 2
ENDMDL
MODEL 3
REMARK VINA RESULT:      -5.7      1.452      1.877
REMARK  Name = 
REMARK  3 active torsions:
REMARK  status: ('A' for Active; 'I' for Inactive)
REMARK    1  A    between atoms: C_1  and  C_2
REMARK    2  A    between atoms: C_2  and  C_3
REMARK    3  A    between atoms: C_3  and  C_4
REMARK                            x       y       z     vdW  Elec       q    Type
REMARK                         _______ _______ _______ _____ _____    ______ ____
ROOT
ATOM      1  C   UNL     1       7.509   7.015  17.891  0.00  0.00    +0.000 A 
ATOM      2  C   UNL     1       8.018   6.338  18.934  0.00  0.00    +0.000 A 
ATOM      3  N   UNL     1       7.712   5.017  19.195  0.00  0.00    +0.000 NA
ATOM      4  N   UNL     1       6.917   4.373  18.456  0.00  0.00    +0.000 NA
ATOM      5  C   UNL     1       6.349   4.973  17.371  0.00  0.00    +0.000 A 
ATOM      6  C   UNL     1       5.447   4.544  16.426  0.00  0.00    +0.000 A 
ATOM      7  C   UNL     1       5.267   5.645  15.578  0.00  0.00    +0.000 A 
ATOM      8  N   UNL     1       6.008   6.694  15.931  0.00  0.00    +0.000 NA
ATOM      9  N   UNL     1       6.648   6.296  17.062  0.00  0.00    +0.000 N 
ENDROOT
BRANCH   1  10
ATOM     10  C   UNL     1       7.827   8.452  17.579  0.00  0.00    +0.000 C 
BRANCH  10  12
ATOM     11  C   UNL     1       9.053  10.551  18.274  0.00  0.00    +0.000 C 
ATOM     12  C   UNL     1       8.690   9.124  18.654  0.00  0.00    +0.000 C 
ENDBRANCH  10  12
ENDBRANCH   1  10
TORSDOF 2
ENDMDL
MODEL 4
REMARK VINA RESULT:      -5.7      2.379      4.400
REMARK  Name = 
REMARK  3 active torsions:
REMARK  status: ('A' for Active; 'I' for Inactive)
REMARK    1  A    between atoms: C_1  and  C_2
REMARK    2  A    between atoms: C_2  and  C_3
REMARK    3  A    between atoms: C_3  and  C_4
REMARK                            x       y       z     vdW  Elec       q    Type
REMARK                         _______ _______ _______ _____ _____    ______ ____
ROOT
ATOM      1  C   UNL     1       5.915   4.523  16.314  0.00  0.00    +0.000 A 
ATOM      2  C   UNL     1       7.211   4.483  16.668  0.00  0.00    +0.000 A 
ATOM      3  N   UNL     1       7.635   4.546  17.981  0.00  0.00    +0.000 NA
ATOM      4  N   UNL     1       6.809   4.656  18.929  0.00  0.00    +0.000 NA
ATOM      5  C   UNL     1       5.471   4.704  18.671  0.00  0.00    +0.000 A 
ATOM      6  C   UNL     1       4.364   4.848  19.476  0.00  0.00    +0.000 A 
ATOM      7  C   UNL     1       3.276   4.823  18.593  0.00  0.00    +0.000 A 
ATOM      8  N   UNL     1       3.644   4.657  17.324  0.00  0.00    +0.000 NA
ATOM      9  N   UNL     1       5.002   4.622  17.364  0.00  0.00    +0.000 N 
ENDROOT
BRANCH   1  10
ATOM     10  C   UNL     1       5.424   4.451  14.894  0.00  0.00    +0.000 C 
BRANCH  10  12
ATOM     11  C   UNL     1       5.933   3.453  12.628  0.00  0.00    +0.000 C 
ATOM     12  C   UNL     1       6.519   4.049  13.898  0.00  0.00    +0.000 C 
ENDBRANCH  10  12
ENDBRANCH   1  10
TORSDOF 2
ENDMDL
MODEL 5
REMARK VINA RESULT:      -5.6      2.539      4.430
REMARK  Name = 
REMARK  3 active torsions:
REMARK  status: ('A' for Active; 'I' for Inactive)
REMARK    1  A    between atoms: C_1  and  C_2
REMARK    2  A    between atoms: C_2  and  C_3
REMARK    3  A    between atoms: C_3  and  C_4
REMARK                            x       y       z     vdW  Elec       q    Type
REMARK                         _______ _______ _______ _____ _____    ______ ____
ROOT
ATOM      1  C   UNL     1       4.274   4.042  17.824  0.00  0.00    +0.000 A 
ATOM      2  C   UNL     1       4.747   4.163  19.076  0.00  0.00    +0.000 A 
ATOM      3  N   UNL     1       6.069   4.447  19.357  0.00  0.00    +0.000 NA
ATOM      4  N   UNL     1       6.915   4.599  18.432  0.00  0.00    +0.000 NA
ATOM      5  C   UNL     1       6.531   4.496  17.127  0.00  0.00    +0.000 A 
ATOM      6  C   UNL     1       7.217   4.580  15.938  0.00  0.00    +0.000 A 
ATOM      7  C   UNL     1       6.244   4.379  14.950  0.00  0.00    +0.000 A 
ATOM      8  N   UNL     1       5.025   4.201  15.455  0.00  0.00    +0.000 NA
ATOM      9  N   UNL     1       5.205   4.233  16.802  0.00  0.00    +0.000 N 
ENDROOT
BRANCH   1  10
ATOM     10  C   UNL     1       2.839   3.739  17.487  0.00  0.00    +0.000 C 
BRANCH  10  12
ATOM     11  C   UNL     1       1.218   2.269  18.752  0.00  0.00    +0.000 C 
ATOM     12  C   UNL     1       2.430   2.302  17.835  0.00  0.00    +0.000 C 
ENDBRANCH  10  12
ENDBRANCH   1  10
TORSDOF 2
ENDMDL
MODEL 6
REMARK VINA RESULT:      -5.6      0.982      1.237
REMARK  Name = 
REMARK  3 active torsions:
REMARK  status: ('A' for Active; 'I' for Inactive)
REMARK    1  A    between atoms: C_1  and  C_2
REMARK    2  A    between atoms: C_2  and  C_3
REMARK    3  A    between atoms: C_3  and  C_4
REMARK                            x       y       z     vdW  Elec       q    Type
REMARK                         _______ _______ _______ _____ _____    ______ ____
ROOT
ATOM      1  C   UNL     1       6.601   4.743  17.748  0.00  0.00    +0.000 A 
ATOM      2  C   UNL     1       5.478   4.479  18.436  0.00  0.00    +0.000 A 
ATOM      3  N   UNL     1       4.293   4.110  17.829  0.00  0.00    +0.000 NA
ATOM      4  N   UNL     1       4.205   4.013  16.574  0.00  0.00    +0.000 NA
ATOM      5  C   UNL     1       5.293   4.261  15.788  0.00  0.00    +0.000 A 
ATOM      6  C   UNL     1       5.486   4.263  14.426  0.00  0.00    +0.000 A 
ATOM      7  C   UNL     1       6.835   4.603  14.258  0.00  0.00    +0.000 A 
ATOM      8  N   UNL     1       7.469   4.785  15.414  0.00  0.00    +0.000 NA
ATOM      9  N   UNL     1       6.510   4.613  16.362  0.00  0.00    +0.000 N 
ENDROOT
BRANCH   1  10
ATOM     10  C   UNL     1       7.907   5.141  18.381  0.00  0.00    +0.000 C 
BRANCH  10  12
ATOM     11  C   UNL     1       7.649   7.546  17.646  0.00  0.00    +0.000 C 
ATOM     12  C   UNL     1       7.943   6.614  18.810  0.00  0.00    +0.000 C 
ENDBRANCH  10  12
ENDBRANCH   1  10
TORSDOF 2
ENDMDL
MODEL 7
REMARK VINA RESULT:      -5.5      2.333      4.360
REMARK  Name = 
REMARK  3 active torsions:
REMARK  status: ('A' for Active; 'I' for Inactive)
REMARK    1  A    between atoms: C_1  and  C_2
REMARK    2  A    between atoms: C_2  and  C_3
REMARK    3  A    between atoms: C_3  and  C_4
REMARK                            x       y       z     vdW  Elec       q    Type
REMARK                         _______ _______ _______ _____ _____    ______ ____
ROOT
ATOM      1  C   UNL     1       5.552   4.477  16.637  0.00  0.00    +0.000 A 
ATOM      2  C   UNL     1       6.695   4.817  17.258  0.00  0.00    +0.000 A 
ATOM      3  N   UNL     1       6.882   4.675  18.619  0.00  0.00    +0.000 NA
ATOM      4  N   UNL     1       5.968   4.221  19.360  0.00  0.00    +0.000 NA
ATOM      5  C   UNL     1       4.771   3.847  18.824  0.00  0.00    +0.000 A 
ATOM      6  C   UNL     1       3.608   3.359  19.372  0.00  0.00    +0.000 A 
ATOM      7  C   UNL     1       2.748   3.178  18.280  0.00  0.00    +0.000 A 
ATOM      8  N   UNL     1       3.312   3.502  17.119  0.00  0.00    +0.000 NA
ATOM      9  N   UNL     1       4.550   3.953  17.454  0.00  0.00    +0.000 N 
ENDROOT
BRANCH   1  10
ATOM     10  C   UNL     1       5.321   4.614  15.157  0.00  0.00    +0.000 C 
BRANCH  10  12
ATOM     11  C   UNL     1       6.043   3.623  12.947  0.00  0.00    +0.000 C 
ATOM     12  C   UNL     1       6.498   4.107  14.314  0.00  0.00    +0.000 C 
ENDBRANCH  10  12
ENDBRANCH   1  10
TORSDOF 2
ENDMDL
MODEL 8
REMARK VINA RESULT:      -5.5      2.429      4.004
REMARK  Name = 
REMARK  3 active torsions:
REMARK  status: ('A' for Active; 'I' for Inactive)
REMARK    1  A    between atoms: C_1  and  C_2
REMARK    2  A    between atoms: C_2  and  C_3
REMARK    3  A    between atoms: C_3  and  C_4
REMARK                            x       y       z     vdW  Elec       q    Type
REMARK                         _______ _______ _______ _____ _____    ______ ____
ROOT
ATOM      1  C   UNL     1       4.333   5.136  18.152  0.00  0.00    +0.000 A 
ATOM      2  C   UNL     1       4.874   5.239  19.378  0.00  0.00    +0.000 A 
ATOM      3  N   UNL     1       6.223   5.073  19.622  0.00  0.00    +0.000 NA
ATOM      4  N   UNL     1       7.027   4.802  18.687  0.00  0.00    +0.000 NA
ATOM      5  C   UNL     1       6.574   4.677  17.406  0.00  0.00    +0.000 A 
ATOM      6  C   UNL     1       7.192   4.366  16.218  0.00  0.00    +0.000 A 
ATOM      7  C   UNL     1       6.167   4.398  15.263  0.00  0.00    +0.000 A 
ATOM      8  N   UNL     1       4.986   4.723  15.785  0.00  0.00    +0.000 NA
ATOM      9  N   UNL     1       5.226   4.858  17.116  0.00  0.00    +0.000 N 
ENDROOT
BRANCH   1  10
ATOM     10  C   UNL     1       2.869   5.316  17.856  0.00  0.00    +0.000 C 
BRANCH  10  12
ATOM     11  C   UNL     1       1.308   3.760  19.093  0.00  0.00    +0.000 C 
ATOM     12  C   UNL     1       2.097   3.992  17.814  0.00  0.00    +0.000 C 
ENDBRANCH  10  12
ENDBRANCH   1  10
TORSDOF 2
ENDMDL
MODEL 9
REMARK VINA RESULT:      -5.5      2.223      4.618
REMARK  Name = 
REMARK  3 active torsions:
REMARK  status: ('A' for Active; 'I' for Inactive)
REMARK    1  A    between atoms: C_1  and  C_2
REMARK    2  A    between atoms: C_2  and  C_3
REMARK    3  A    between atoms: C_3  and  C_4
REMARK                            x       y       z     vdW  Elec       q    Type
REMARK                         _______ _______ _______ _____ _____    ______ ____
ROOT
ATOM      1  C   UNL     1       4.859   5.329  17.769  0.00  0.00    +0.000 A 
ATOM      2  C   UNL     1       4.652   5.928  16.584  0.00  0.00    +0.000 A 
ATOM      3  N   UNL     1       5.576   6.768  15.995  0.00  0.00    +0.000 NA
ATOM      4  N   UNL     1       6.677   7.026  16.557  0.00  0.00    +0.000 NA
ATOM      5  C   UNL     1       6.979   6.465  17.763  0.00  0.00    +0.000 A 
ATOM      6  C   UNL     1       8.059   6.580  18.607  0.00  0.00    +0.000 A 
ATOM      7  C   UNL     1       7.755   5.745  19.691  0.00  0.00    +0.000 A 
ATOM      8  N   UNL     1       6.585   5.124  19.552  0.00  0.00    +0.000 NA
ATOM      9  N   UNL     1       6.085   5.596  18.379  0.00  0.00    +0.000 N 
ENDROOT
BRANCH   1  10
ATOM     10  C   UNL     1       3.874   4.406  18.433  0.00  0.00    +0.000 C 
BRANCH  10  12
ATOM     11  C   UNL     1       1.472   4.185  17.677  0.00  0.00    +0.000 C 
ATOM     12  C   UNL     1       2.908   3.744  17.443  0.00  0.00    +0.000 C 
ENDBRANCH  10  12
ENDBRANCH   1  10
TORSDOF 2
ENDMDL
