MODEL 1
REMARK VINA RESULT:      -9.2      0.000      0.000
REMARK  Name = 
REMARK  1 active torsions:
REMARK  status: ('A' for Active; 'I' for Inactive)
REMARK    1  A    between atoms: N_7  and  C_8
REMARK                            x       y       z     vdW  Elec       q    Type
REMARK                         _______ _______ _______ _____ _____    ______ ____
ROOT
ATOM      1  O   UNL     1       1.443   2.526  22.302  0.00  0.00    +0.000 OA
ATOM      2  C   UNL     1       1.558   3.171  21.254  0.00  0.00    +0.000 C 
ATOM      3  C   UNL     1       1.223   2.547  19.916  0.00  0.00    +0.000 C 
ATOM      4  C   UNL     1       2.358   2.647  18.980  0.00  0.00    +0.000 A 
ATOM      5  C   UNL     1       2.984   1.652  18.219  0.00  0.00    +0.000 A 
ATOM      6  N   UNL     1       3.936   2.145  17.429  0.00  0.00    +0.000 NA
ATOM      7  N   UNL     1       4.046   3.453  17.804  0.00  0.00    +0.000 N 
ATOM      8  C   UNL     1       2.984   3.826  18.628  0.00  0.00    +0.000 A 
ATOM      9  C   UNL     1       2.560   5.175  19.019  0.00  0.00    +0.000 A 
ATOM     10  C   UNL     1       2.645   6.227  18.086  0.00  0.00    +0.000 A 
ATOM     11  C   UNL     1       2.351   7.540  18.447  0.00  0.00    +0.000 A 
ATOM     12  C   UNL     1       1.945   7.823  19.743  0.00  0.00    +0.000 A 
ATOM     13  C   UNL     1       1.817   6.791  20.672  0.00  0.00    +0.000 A 
ATOM     14  C   UNL     1       2.083   5.459  20.316  0.00  0.00    +0.000 A 
ATOM     15  N   UNL     1       1.862   4.505  21.334  0.00  0.00    +0.000 N 
ATOM     16  H   UNL     1       1.844   4.841  22.290  0.00  0.00    +0.000 HD
ENDROOT
BRANCH   7  17
ATOM     17  C   UNL     1       5.129   4.223  17.311  0.00  0.00    +0.000 A 
ATOM     18  C   UNL     1       5.291   4.360  15.923  0.00  0.00    +0.000 A 
ATOM     19  C   UNL     1       6.296   5.192  15.420  0.00  0.00    +0.000 A 
ATOM     20  C   UNL     1       7.159   5.857  16.291  0.00  0.00    +0.000 A 
ATOM     21  C   UNL     1       7.032   5.680  17.667  0.00  0.00    +0.000 A 
ATOM     22  C   UNL     1       6.026   4.856  18.169  0.00  0.00    +0.000 A 
ATOM     23  F   UNL     1       5.994   4.655  19.494  0.00  0.00    +0.000 F 
ENDBRANCH   7  17
TORSDOF 1
ENDMDL
MODEL 2
REMARK VINA RESULT:      -8.9      0.996      1.431
REMARK  Name = 
REMARK  1 active torsions:
REMARK  status: ('A' for Active; 'I' for Inactive)
REMARK    1  A    between atoms: N_7  and  C_8
REMARK                            x       y       z     vdW  Elec       q    Type
REMARK                         _______ _______ _______ _____ _____    ______ ____
ROOT
ATOM      1  O   UNL     1       1.391   2.508  22.267  0.00  0.00    +0.000 OA
ATOM      2  C   UNL     1       1.540   3.167  21.232  0.00  0.00    +0.000 C 
ATOM      3  C   UNL     1       1.291   2.549  19.873  0.00  0.00    +0.000 C 
ATOM      4  C   UNL     1       2.468   2.691  18.997  0.00  0.00    +0.000 A 
ATOM      5  C   UNL     1       3.160   1.722  18.258  0.00  0.00    +0.000 A 
ATOM      6  N   UNL     1       4.136   2.250  17.523  0.00  0.00    +0.000 NA
ATOM      7  N   UNL     1       4.190   3.556  17.915  0.00  0.00    +0.000 N 
ATOM      8  C   UNL     1       3.078   3.890  18.688  0.00  0.00    +0.000 A 
ATOM      9  C   UNL     1       2.596   5.223  19.069  0.00  0.00    +0.000 A 
ATOM     10  C   UNL     1       2.698   6.287  18.152  0.00  0.00    +0.000 A 
ATOM     11  C   UNL     1       2.349   7.588  18.510  0.00  0.00    +0.000 A 
ATOM     12  C   UNL     1       1.871   7.845  19.787  0.00  0.00    +0.000 A 
ATOM     13  C   UNL     1       1.726   6.799  20.699  0.00  0.00    +0.000 A 
ATOM     14  C   UNL     1       2.046   5.479  20.344  0.00  0.00    +0.000 A 
ATOM     15  N   UNL     1       1.802   4.508  21.340  0.00  0.00    +0.000 N 
ATOM     16  H   UNL     1       1.726   4.833  22.297  0.00  0.00    +0.000 HD
ENDROOT
BRANCH   7  17
ATOM     17  C   UNL     1       5.274   4.361  17.485  0.00  0.00    +0.000 A 
ATOM     18  C   UNL     1       6.129   4.921  18.448  0.00  0.00    +0.000 A 
ATOM     19  C   UNL     1       7.258   5.639  18.041  0.00  0.00    +0.000 A 
ATOM     20  C   UNL     1       7.517   5.830  16.684  0.00  0.00    +0.000 A 
ATOM     21  C   UNL     1       6.640   5.319  15.729  0.00  0.00    +0.000 A 
ATOM     22  C   UNL     1       5.519   4.598  16.134  0.00  0.00    +0.000 A 
ATOM     23  F   UNL     1       4.666   4.195  15.183  0.00  0.00    +0.000 F 
ENDBRANCH   7  17
TORSDOF 1
ENDMDL
MODEL 3
REMARK VINA RESULT:      -8.7      1.362      1.740
REMARK  Name = 
REMARK  1 active torsions:
REMARK  status: ('A' for Active; 'I' for Inactive)
REMARK    1  A    between atoms: N_7  and  C_8
REMARK                            x       y       z     vdW  Elec       q    Type
REMARK                         _______ _______ _______ _____ _____    ______ ____
ROOT
ATOM      1  O   UNL     1       1.080   2.504  21.509  0.00  0.00    +0.000 OA
ATOM      2  C   UNL     1       1.348   3.351  20.651  0.00  0.00    +0.000 C 
ATOM      3  C   UNL     1       1.369   2.990  19.181  0.00  0.00    +0.000 C 
ATOM      4  C   UNL     1       2.660   3.341  18.562  0.00  0.00    +0.000 A 
ATOM      5  C   UNL     1       3.530   2.557  17.794  0.00  0.00    +0.000 A 
ATOM      6  N   UNL     1       4.573   3.253  17.345  0.00  0.00    +0.000 NA
ATOM      7  N   UNL     1       4.469   4.463  17.967  0.00  0.00    +0.000 N 
ATOM      8  C   UNL     1       3.225   4.601  18.583  0.00  0.00    +0.000 A 
ATOM      9  C   UNL     1       2.594   5.818  19.107  0.00  0.00    +0.000 A 
ATOM     10  C   UNL     1       2.767   7.039  18.426  0.00  0.00    +0.000 A 
ATOM     11  C   UNL     1       2.273   8.233  18.945  0.00  0.00    +0.000 A 
ATOM     12  C   UNL     1       1.575   8.227  20.144  0.00  0.00    +0.000 A 
ATOM     13  C   UNL     1       1.359   7.023  20.815  0.00  0.00    +0.000 A 
ATOM     14  C   UNL     1       1.826   5.807  20.292  0.00  0.00    +0.000 A 
ATOM     15  N   UNL     1       1.493   4.657  21.041  0.00  0.00    +0.000 N 
ATOM     16  H   UNL     1       1.239   4.793  22.012  0.00  0.00    +0.000 HD
ENDROOT
BRANCH   7  17
ATOM     17  C   UNL     1       5.549   5.377  17.883  0.00  0.00    +0.000 A 
ATOM     18  C   UNL     1       6.493   5.412  18.922  0.00  0.00    +0.000 A 
ATOM     19  C   UNL     1       7.615   6.239  18.812  0.00  0.00    +0.000 A 
ATOM     20  C   UNL     1       7.781   7.054  17.693  0.00  0.00    +0.000 A 
ATOM     21  C   UNL     1       6.817   7.059  16.686  0.00  0.00    +0.000 A 
ATOM     22  C   UNL     1       5.702   6.229  16.792  0.00  0.00    +0.000 A 
ATOM     23  F   UNL     1       4.766   6.327  15.838  0.00  0.00    +0.000 F 
ENDBRANCH   7  17
TORSDOF 1
ENDMDL
MODEL 4
REMARK VINA RESULT:      -7.6      1.793      2.406
REMARK  Name = 
REMARK  1 active torsions:
REMARK  status: ('A' for Active; 'I' for Inactive)
REMARK    1  A    between atoms: N_7  and  C_8
REMARK                            x       y       z     vdW  Elec       q    Type
REMARK                         _______ _______ _______ _____ _____    ______ ____
ROOT
ATOM      1  O   UNL     1       1.861   1.259  19.451  0.00  0.00    +0.000 OA
ATOM      2  C   UNL     1       2.080   2.394  19.013  0.00  0.00    +0.000 C 
ATOM      3  C   UNL     1       2.258   2.635  17.529  0.00  0.00    +0.000 C 
ATOM      4  C   UNL     1       3.535   3.315  17.247  0.00  0.00    +0.000 A 
ATOM      5  C   UNL     1       4.555   2.973  16.350  0.00  0.00    +0.000 A 
ATOM      6  N   UNL     1       5.529   3.881  16.325  0.00  0.00    +0.000 NA
ATOM      7  N   UNL     1       5.222   4.740  17.339  0.00  0.00    +0.000 N 
ATOM      8  C   UNL     1       3.927   4.514  17.808  0.00  0.00    +0.000 A 
ATOM      9  C   UNL     1       3.105   5.368  18.672  0.00  0.00    +0.000 A 
ATOM     10  C   UNL     1       3.169   6.768  18.528  0.00  0.00    +0.000 A 
ATOM     11  C   UNL     1       2.485   7.617  19.395  0.00  0.00    +0.000 A 
ATOM     12  C   UNL     1       1.706   7.082  20.411  0.00  0.00    +0.000 A 
ATOM     13  C   UNL     1       1.599   5.698  20.548  0.00  0.00    +0.000 A 
ATOM     14  C   UNL     1       2.259   4.829  19.665  0.00  0.00    +0.000 A 
ATOM     15  N   UNL     1       2.023   3.453  19.880  0.00  0.00    +0.000 N 
ATOM     16  H   UNL     1       1.681   3.178  20.794  0.00  0.00    +0.000 HD
ENDROOT
BRANCH   7  17
ATOM     17  C   UNL     1       6.176   5.710  17.736  0.00  0.00    +0.000 A 
ATOM     18  C   UNL     1       7.050   5.412  18.794  0.00  0.00    +0.000 A 
ATOM     19  C   UNL     1       8.059   6.318  19.136  0.00  0.00    +0.000 A 
ATOM     20  C   UNL     1       8.178   7.528  18.455  0.00  0.00    +0.000 A 
ATOM     21  C   UNL     1       7.278   7.847  17.440  0.00  0.00    +0.000 A 
ATOM     22  C   UNL     1       6.276   6.942  17.093  0.00  0.00    +0.000 A 
ATOM     23  F   UNL     1       5.388   7.327  16.166  0.00  0.00    +0.000 F 
ENDBRANCH   7  17
TORSDOF 1
ENDMDL
MODEL 5
REMARK VINA RESULT:      -7.4      1.424      1.691
REMARK  Name = 
REMARK  1 active torsions:
REMARK  status: ('A' for Active; 'I' for Inactive)
REMARK    1  A    between atoms: N_7  and  C_8
REMARK                            x       y       z     vdW  Elec       q    Type
REMARK                         _______ _______ _______ _____ _____    ______ ____
ROOT
ATOM      1  O   UNL     1       1.861   3.369  22.220  0.00  0.00    +0.000 OA
ATOM      2  C   UNL     1       2.089   3.984  21.172  0.00  0.00    +0.000 C 
ATOM      3  C   UNL     1       2.278   3.248  19.863  0.00  0.00    +0.000 C 
ATOM      4  C   UNL     1       3.560   3.605  19.229  0.00  0.00    +0.000 A 
ATOM      5  C   UNL     1       4.584   2.779  18.749  0.00  0.00    +0.000 A 
ATOM      6  N   UNL     1       5.563   3.474  18.171  0.00  0.00    +0.000 NA
ATOM      7  N   UNL     1       5.253   4.777  18.428  0.00  0.00    +0.000 N 
ATOM      8  C   UNL     1       3.954   4.892  18.924  0.00  0.00    +0.000 A 
ATOM      9  C   UNL     1       3.131   6.099  19.061  0.00  0.00    +0.000 A 
ATOM     10  C   UNL     1       3.202   7.104  18.076  0.00  0.00    +0.000 A 
ATOM     11  C   UNL     1       2.517   8.309  18.220  0.00  0.00    +0.000 A 
ATOM     12  C   UNL     1       1.729   8.522  19.342  0.00  0.00    +0.000 A 
ATOM     13  C   UNL     1       1.614   7.525  20.311  0.00  0.00    +0.000 A 
ATOM     14  C   UNL     1       2.275   6.296  20.167  0.00  0.00    +0.000 A 
ATOM     15  N   UNL     1       2.031   5.353  21.190  0.00  0.00    +0.000 N 
ATOM     16  H   UNL     1       1.682   5.707  22.074  0.00  0.00    +0.000 HD
ENDROOT
BRANCH   7  17
ATOM     17  C   UNL     1       6.209   5.783  18.141  0.00  0.00    +0.000 A 
ATOM     18  C   UNL     1       6.064   6.548  16.972  0.00  0.00    +0.000 A 
ATOM     19  C   UNL     1       6.942   7.606  16.721  0.00  0.00    +0.000 A 
ATOM     20  C   UNL     1       7.981   7.882  17.608  0.00  0.00    +0.000 A 
ATOM     21  C   UNL     1       8.158   7.091  18.742  0.00  0.00    +0.000 A 
ATOM     22  C   UNL     1       7.279   6.040  18.996  0.00  0.00    +0.000 A 
ATOM     23  F   UNL     1       7.536   5.261  20.055  0.00  0.00    +0.000 F 
ENDBRANCH   7  17
TORSDOF 1
ENDMDL
MODEL 6
REMARK VINA RESULT:      -7.3      2.890      5.603
REMARK  Name = 
REMARK  1 active torsions:
REMARK  status: ('A' for Active; 'I' for Inactive)
REMARK    1  A    between atoms: N_7  and  C_8
REMARK                            x       y       z     vdW  Elec       q    Type
REMARK                         _______ _______ _______ _____ _____    ______ ____
ROOT
ATOM      1  O   UNL     1       7.101   4.226  18.417  0.00  0.00    +0.000 OA
ATOM      2  C   UNL     1       5.874   4.361  18.353  0.00  0.00    +0.000 C 
ATOM      3  C   UNL     1       5.213   4.881  17.095  0.00  0.00    +0.000 C 
ATOM      4  C   UNL     1       4.369   6.055  17.380  0.00  0.00    +0.000 A 
ATOM      5  C   UNL     1       4.353   7.318  16.774  0.00  0.00    +0.000 A 
ATOM      6  N   UNL     1       3.391   8.099  17.260  0.00  0.00    +0.000 NA
ATOM      7  N   UNL     1       2.881   7.396  18.313  0.00  0.00    +0.000 N 
ATOM      8  C   UNL     1       3.345   6.081  18.304  0.00  0.00    +0.000 A 
ATOM      9  C   UNL     1       2.843   4.929  19.064  0.00  0.00    +0.000 A 
ATOM     10  C   UNL     1       1.459   4.795  19.288  0.00  0.00    +0.000 A 
ATOM     11  C   UNL     1       0.951   3.775  20.090  0.00  0.00    +0.000 A 
ATOM     12  C   UNL     1       1.817   2.857  20.666  0.00  0.00    +0.000 A 
ATOM     13  C   UNL     1       3.188   2.949  20.426  0.00  0.00    +0.000 A 
ATOM     14  C   UNL     1       3.712   3.953  19.598  0.00  0.00    +0.000 A 
ATOM     15  N   UNL     1       5.109   3.902  19.393  0.00  0.00    +0.000 N 
ATOM     16  H   UNL     1       5.658   3.382  20.068  0.00  0.00    +0.000 HD
ENDROOT
BRANCH   7  17
ATOM     17  C   UNL     1       1.979   8.037  19.198  0.00  0.00    +0.000 A 
ATOM     18  C   UNL     1       1.943   7.634  20.543  0.00  0.00    +0.000 A 
ATOM     19  C   UNL     1       1.128   8.317  21.451  0.00  0.00    +0.000 A 
ATOM     20  C   UNL     1       0.327   9.373  21.019  0.00  0.00    +0.000 A 
ATOM     21  C   UNL     1       0.323   9.740  19.675  0.00  0.00    +0.000 A 
ATOM     22  C   UNL     1       1.140   9.063  18.770  0.00  0.00    +0.000 A 
ATOM     23  F   UNL     1       1.042   9.400  17.477  0.00  0.00    +0.000 F 
ENDBRANCH   7  17
TORSDOF 1
ENDMDL
MODEL 7
REMARK VINA RESULT:      -7.2      1.277      1.524
REMARK  Name = 
REMARK  1 active torsions:
REMARK  status: ('A' for Active; 'I' for Inactive)
REMARK    1  A    between atoms: N_7  and  C_8
REMARK                            x       y       z     vdW  Elec       q    Type
REMARK                         _______ _______ _______ _____ _____    ______ ____
ROOT
ATOM      1  O   UNL     1       1.286   1.983  20.507  0.00  0.00    +0.000 OA
ATOM      2  C   UNL     1       1.554   2.981  19.829  0.00  0.00    +0.000 C 
ATOM      3  C   UNL     1       1.623   2.901  18.319  0.00  0.00    +0.000 C 
ATOM      4  C   UNL     1       2.920   3.388  17.816  0.00  0.00    +0.000 A 
ATOM      5  C   UNL     1       3.830   2.779  16.943  0.00  0.00    +0.000 A 
ATOM      6  N   UNL     1       4.866   3.568  16.663  0.00  0.00    +0.000 NA
ATOM      7  N   UNL     1       4.714   4.638  17.495  0.00  0.00    +0.000 N 
ATOM      8  C   UNL     1       3.451   4.633  18.087  0.00  0.00    +0.000 A 
ATOM      9  C   UNL     1       2.775   5.717  18.809  0.00  0.00    +0.000 A 
ATOM     10  C   UNL     1       2.934   7.047  18.372  0.00  0.00    +0.000 A 
ATOM     11  C   UNL     1       2.395   8.114  19.089  0.00  0.00    +0.000 A 
ATOM     12  C   UNL     1       1.667   7.869  20.244  0.00  0.00    +0.000 A 
ATOM     13  C   UNL     1       1.464   6.557  20.673  0.00  0.00    +0.000 A 
ATOM     14  C   UNL     1       1.977   5.471  19.947  0.00  0.00    +0.000 A 
ATOM     15  N   UNL     1       1.654   4.195  20.459  0.00  0.00    +0.000 N 
ATOM     16  H   UNL     1       1.372   4.142  21.431  0.00  0.00    +0.000 HD
ENDROOT
BRANCH   7  17
ATOM     17  C   UNL     1       5.771   5.575  17.616  0.00  0.00    +0.000 A 
ATOM     18  C   UNL     1       5.833   6.651  16.716  0.00  0.00    +0.000 A 
ATOM     19  C   UNL     1       6.812   7.636  16.877  0.00  0.00    +0.000 A 
ATOM     20  C   UNL     1       7.747   7.534  17.906  0.00  0.00    +0.000 A 
ATOM     21  C   UNL     1       7.719   6.439  18.767  0.00  0.00    +0.000 A 
ATOM     22  C   UNL     1       6.739   5.460  18.611  0.00  0.00    +0.000 A 
ATOM     23  F   UNL     1       6.801   4.389  19.413  0.00  0.00    +0.000 F 
ENDBRANCH   7  17
TORSDOF 1
ENDMDL
MODEL 8
REMARK VINA RESULT:      -7.0      2.762      5.197
REMARK  Name = 
REMARK  1 active torsions:
REMARK  status: ('A' for Active; 'I' for Inactive)
REMARK    1  A    between atoms: N_7  and  C_8
REMARK                            x       y       z     vdW  Elec       q    Type
REMARK                         _______ _______ _______ _____ _____    ______ ____
ROOT
ATOM      1  O   UNL     1       5.506   6.965  14.990  0.00  0.00    +0.000 OA
ATOM      2  C   UNL     1       5.126   6.954  16.166  0.00  0.00    +0.000 C 
ATOM      3  C   UNL     1       6.070   6.568  17.284  0.00  0.00    +0.000 C 
ATOM      4  C   UNL     1       5.518   5.468  18.095  0.00  0.00    +0.000 A 
ATOM      5  C   UNL     1       6.097   4.247  18.464  0.00  0.00    +0.000 A 
ATOM      6  N   UNL     1       5.309   3.538  19.270  0.00  0.00    +0.000 NA
ATOM      7  N   UNL     1       4.133   4.229  19.290  0.00  0.00    +0.000 N 
ATOM      8  C   UNL     1       4.287   5.492  18.719  0.00  0.00    +0.000 A 
ATOM      9  C   UNL     1       3.381   6.644  18.788  0.00  0.00    +0.000 A 
ATOM     10  C   UNL     1       2.672   6.900  19.978  0.00  0.00    +0.000 A 
ATOM     11  C   UNL     1       1.725   7.920  20.051  0.00  0.00    +0.000 A 
ATOM     12  C   UNL     1       1.486   8.718  18.942  0.00  0.00    +0.000 A 
ATOM     13  C   UNL     1       2.204   8.506  17.766  0.00  0.00    +0.000 A 
ATOM     14  C   UNL     1       3.181   7.501  17.684  0.00  0.00    +0.000 A 
ATOM     15  N   UNL     1       3.873   7.428  16.455  0.00  0.00    +0.000 N 
ATOM     16  H   UNL     1       3.433   7.855  15.648  0.00  0.00    +0.000 HD
ENDROOT
BRANCH   7  17
ATOM     17  C   UNL     1       2.992   3.632  19.883  0.00  0.00    +0.000 A 
ATOM     18  C   UNL     1       3.060   3.214  21.222  0.00  0.00    +0.000 A 
ATOM     19  C   UNL     1       1.918   2.711  21.851  0.00  0.00    +0.000 A 
ATOM     20  C   UNL     1       0.722   2.590  21.145  0.00  0.00    +0.000 A 
ATOM     21  C   UNL     1       0.667   2.955  19.801  0.00  0.00    +0.000 A 
ATOM     22  C   UNL     1       1.804   3.464  19.175  0.00  0.00    +0.000 A 
ATOM     23  F   UNL     1       1.722   3.727  17.864  0.00  0.00    +0.000 F 
ENDBRANCH   7  17
TORSDOF 1
ENDMDL
MODEL 9
REMARK VINA RESULT:      -7.0      2.076      4.783
REMARK  Name = 
REMARK  1 active torsions:
REMARK  status: ('A' for Active; 'I' for Inactive)
REMARK    1  A    between atoms: N_7  and  C_8
REMARK                            x       y       z     vdW  Elec       q    Type
REMARK                         _______ _______ _______ _____ _____    ______ ____
ROOT
ATOM      1  O   UNL     1       3.475   0.996  18.188  0.00  0.00    +0.000 OA
ATOM      2  C   UNL     1       3.900   2.119  18.484  0.00  0.00    +0.000 C 
ATOM      3  C   UNL     1       3.995   2.559  19.929  0.00  0.00    +0.000 C 
ATOM      4  C   UNL     1       3.269   3.822  20.153  0.00  0.00    +0.000 A 
ATOM      5  C   UNL     1       2.297   4.142  21.109  0.00  0.00    +0.000 A 
ATOM      6  N   UNL     1       1.925   5.419  21.043  0.00  0.00    +0.000 NA
ATOM      7  N   UNL     1       2.538   5.894  19.921  0.00  0.00    +0.000 N 
ATOM      8  C   UNL     1       3.494   4.991  19.455  0.00  0.00    +0.000 A 
ATOM      9  C   UNL     1       4.559   5.214  18.471  0.00  0.00    +0.000 A 
ATOM     10  C   UNL     1       5.228   6.454  18.439  0.00  0.00    +0.000 A 
ATOM     11  C   UNL     1       6.172   6.742  17.456  0.00  0.00    +0.000 A 
ATOM     12  C   UNL     1       6.482   5.788  16.498  0.00  0.00    +0.000 A 
ATOM     13  C   UNL     1       5.860   4.540  16.534  0.00  0.00    +0.000 A 
ATOM     14  C   UNL     1       4.928   4.224  17.534  0.00  0.00    +0.000 A 
ATOM     15  N   UNL     1       4.413   2.909  17.489  0.00  0.00    +0.000 N 
ATOM     16  H   UNL     1       4.489   2.410  16.610  0.00  0.00    +0.000 HD
ENDROOT
BRANCH   7  17
ATOM     17  C   UNL     1       2.179   7.173  19.428  0.00  0.00    +0.000 A 
ATOM     18  C   UNL     1       2.365   7.454  18.064  0.00  0.00    +0.000 A 
ATOM     19  C   UNL     1       1.930   8.675  17.541  0.00  0.00    +0.000 A 
ATOM     20  C   UNL     1       1.343   9.628  18.374  0.00  0.00    +0.000 A 
ATOM     21  C   UNL     1       1.206   9.370  19.737  0.00  0.00    +0.000 A 
ATOM     22  C   UNL     1       1.634   8.150  20.258  0.00  0.00    +0.000 A 
ATOM     23  F   UNL     1       1.552   7.982  21.584  0.00  0.00    +0.000 F 
ENDBRANCH   7  17
TORSDOF 1
ENDMDL
