MODEL 1
REMARK VINA RESULT:      -8.7      0.000      0.000
REMARK  Name = 
REMARK  11 active torsions:
REMARK  status: ('A' for Active; 'I' for Inactive)
REMARK    1  A    between atoms: C_1  and  C_2
REMARK    2  A    between atoms: C_2  and  O_3
REMARK    3  A    between atoms: O_3  and  C_4
REMARK    4  A    between atoms: C_7  and  N_8
REMARK    5  A    between atoms: C_9  and  C_11
REMARK    6  A    between atoms: C_11  and  C_12
REMARK    7  A    between atoms: C_11  and  O_13
REMARK    8  A    between atoms: O_13  and  C_14
REMARK    9  A    between atoms: C_19  and  C_20
REMARK   10  A    between atoms: N_22  and  C_23
REMARK   11  A    between atoms: C_26  and  C_27
REMARK                            x       y       z     vdW  Elec       q    Type
REMARK                         _______ _______ _______ _____ _____    ______ ____
ROOT
ATOM      1  C   UNL     1       2.588   4.946  19.907  0.00  0.00    +0.000 A 
ATOM      2  C   UNL     1       1.511   4.608  20.752  0.00  0.00    +0.000 A 
ATOM      3  C   UNL     1       1.150   3.279  20.985  0.00  0.00    +0.000 A 
ATOM      4  C   UNL     1       1.844   2.257  20.363  0.00  0.00    +0.000 A 
ATOM      5  C   UNL     1       2.889   2.572  19.501  0.00  0.00    +0.000 A 
ATOM      6  C   UNL     1       3.281   3.909  19.254  0.00  0.00    +0.000 A 
ENDROOT
BRANCH   6   7
ATOM      7  C   UNL     1       4.447   4.056  18.317  0.00  0.00    +0.000 C 
ATOM      8  O   UNL     1       5.565   4.080  18.830  0.00  0.00    +0.000 OA
ATOM      9  N   UNL     1       4.217   4.143  16.953  0.00  0.00    +0.000 N 
ATOM     10  H   UNL     1       3.271   3.965  16.631  0.00  0.00    +0.000 HD
BRANCH   9  11
ATOM     11  C   UNL     1       5.205   4.412  15.966  0.00  0.00    +0.000 A 
ATOM     12  C   UNL     1       6.270   5.292  16.174  0.00  0.00    +0.000 A 
ATOM     13  C   UNL     1       7.227   5.535  15.182  0.00  0.00    +0.000 A 
ATOM     14  C   UNL     1       7.137   4.906  13.939  0.00  0.00    +0.000 A 
ATOM     15  C   UNL     1       8.202   5.176  12.912  0.00  0.00    +0.000 C 
ATOM     16  C   UNL     1       6.060   4.039  13.715  0.00  0.00    +0.000 A 
ATOM     17 CL   UNL     1       5.869   3.237  12.195  0.00  0.00    +0.000 Cl
ATOM     18  C   UNL     1       5.101   3.795  14.716  0.00  0.00    +0.000 A 
ENDBRANCH   9  11
ENDBRANCH   6   7
BRANCH   1  19
ATOM     19  O   UNL     1       3.006   6.238  19.700  0.00  0.00    +0.000 OA
BRANCH  19  20
ATOM     20  C   UNL     1       2.522   6.939  18.546  0.00  0.00    +0.000 C 
ATOM     21  C   UNL     1       3.693   7.384  17.668  0.00  0.00    +0.000 C 
BRANCH  20  23
ATOM     22  N   UNL     1       1.636   8.246  20.408  0.00  0.00    +0.000 N 
ATOM     23  C   UNL     1       1.733   8.167  19.022  0.00  0.00    +0.000 C 
ATOM     24  O   UNL     1       1.222   8.941  18.218  0.00  0.00    +0.000 OA
ATOM     25  H   UNL     1       2.108   7.529  20.949  0.00  0.00    +0.000 HD
BRANCH  22  29
ATOM     26  C   UNL     1      -0.577  11.086  22.624  0.00  0.00    +0.000 A 
ATOM     27  C   UNL     1       0.158  11.494  21.517  0.00  0.00    +0.000 A 
ATOM     28  C   UNL     1       0.893  10.572  20.775  0.00  0.00    +0.000 A 
ATOM     29  C   UNL     1       0.923   9.224  21.136  0.00  0.00    +0.000 A 
ATOM     30  C   UNL     1       0.213   8.821  22.272  0.00  0.00    +0.000 A 
ATOM     31  C   UNL     1      -0.532   9.751  23.020  0.00  0.00    +0.000 A 
BRANCH  26  32
ATOM     32  O   UNL     1      -1.270  12.085  23.243  0.00  0.00    +0.000 OA
BRANCH  32  34
ATOM     33  C   UNL     1      -3.261  13.182  23.924  0.00  0.00    +0.000 C 
ATOM     34  C   UNL     1      -2.677  12.109  23.021  0.00  0.00    +0.000 C 
ENDBRANCH  32  34
ENDBRANCH  26  32
ENDBRANCH  22  29
ENDBRANCH  20  23
ENDBRANCH  19  20
ENDBRANCH   1  19
TORSDOF 8
ENDMDL
MODEL 2
REMARK VINA RESULT:      -8.5      2.087      2.317
REMARK  Name = 
REMARK  11 active torsions:
REMARK  status: ('A' for Active; 'I' for Inactive)
REMARK    1  A    between atoms: C_1  and  C_2
REMARK    2  A    between atoms: C_2  and  O_3
REMARK    3  A    between atoms: O_3  and  C_4
REMARK    4  A    between atoms: C_7  and  N_8
REMARK    5  A    between atoms: C_9  and  C_11
REMARK    6  A    between atoms: C_11  and  C_12
REMARK    7  A    between atoms: C_11  and  O_13
REMARK    8  A    between atoms: O_13  and  C_14
REMARK    9  A    between atoms: C_19  and  C_20
REMARK   10  A    between atoms: N_22  and  C_23
REMARK   11  A    between atoms: C_26  and  C_27
REMARK                            x       y       z     vdW  Elec       q    Type
REMARK                         _______ _______ _______ _____ _____    ______ ____
ROOT
ATOM      1  C   UNL     1       2.684   4.950  19.935  0.00  0.00    +0.000 A 
ATOM      2  C   UNL     1       1.621   4.627  20.804  0.00  0.00    +0.000 A 
ATOM      3  C   UNL     1       1.256   3.302  21.055  0.00  0.00    +0.000 A 
ATOM      4  C   UNL     1       1.929   2.270  20.429  0.00  0.00    +0.000 A 
ATOM      5  C   UNL     1       2.960   2.570  19.543  0.00  0.00    +0.000 A 
ATOM      6  C   UNL     1       3.356   3.902  19.277  0.00  0.00    +0.000 A 
ENDROOT
BRANCH   6   7
ATOM      7  C   UNL     1       4.504   4.033  18.316  0.00  0.00    +0.000 C 
ATOM      8  O   UNL     1       5.634   3.996  18.801  0.00  0.00    +0.000 OA
ATOM      9  N   UNL     1       4.245   4.172  16.961  0.00  0.00    +0.000 N 
ATOM     10  H   UNL     1       3.285   4.042  16.658  0.00  0.00    +0.000 HD
BRANCH   9  11
ATOM     11  C   UNL     1       5.219   4.434  15.958  0.00  0.00    +0.000 A 
ATOM     12  C   UNL     1       6.266   5.343  16.131  0.00  0.00    +0.000 A 
ATOM     13  C   UNL     1       7.209   5.576  15.124  0.00  0.00    +0.000 A 
ATOM     14  C   UNL     1       7.124   4.909  13.902  0.00  0.00    +0.000 A 
ATOM     15  C   UNL     1       8.174   5.172  12.858  0.00  0.00    +0.000 C 
ATOM     16  C   UNL     1       6.064   4.012  13.712  0.00  0.00    +0.000 A 
ATOM     17 CL   UNL     1       5.878   3.162  12.218  0.00  0.00    +0.000 Cl
ATOM     18  C   UNL     1       5.118   3.777  14.728  0.00  0.00    +0.000 A 
ENDBRANCH   9  11
ENDBRANCH   6   7
BRANCH   1  19
ATOM     19  O   UNL     1       3.107   6.237  19.708  0.00  0.00    +0.000 OA
BRANCH  19  20
ATOM     20  C   UNL     1       2.472   6.995  18.669  0.00  0.00    +0.000 C 
ATOM     21  C   UNL     1       3.512   7.481  17.658  0.00  0.00    +0.000 C 
BRANCH  20  23
ATOM     22  N   UNL     1       1.467   9.203  18.394  0.00  0.00    +0.000 N 
ATOM     23  C   UNL     1       1.768   8.200  19.310  0.00  0.00    +0.000 C 
ATOM     24  O   UNL     1       1.561   8.241  20.518  0.00  0.00    +0.000 OA
ATOM     25  H   UNL     1       1.702   9.031  17.422  0.00  0.00    +0.000 HD
BRANCH  22  29
ATOM     26  C   UNL     1      -0.396  12.905  19.225  0.00  0.00    +0.000 A 
ATOM     27  C   UNL     1       0.991  12.823  19.187  0.00  0.00    +0.000 A 
ATOM     28  C   UNL     1       1.622  11.611  18.914  0.00  0.00    +0.000 A 
ATOM     29  C   UNL     1       0.878  10.452  18.693  0.00  0.00    +0.000 A 
ATOM     30  C   UNL     1      -0.517  10.528  18.768  0.00  0.00    +0.000 A 
ATOM     31  C   UNL     1      -1.155  11.752  19.040  0.00  0.00    +0.000 A 
BRANCH  26  32
ATOM     32  O   UNL     1      -0.882  14.155  19.475  0.00  0.00    +0.000 OA
BRANCH  32  34
ATOM     33  C   UNL     1      -0.070  16.360  19.815  0.00  0.00    +0.000 C 
ATOM     34  C   UNL     1      -0.230  15.233  18.809  0.00  0.00    +0.000 C 
ENDBRANCH  32  34
ENDBRANCH  26  32
ENDBRANCH  22  29
ENDBRANCH  20  23
ENDBRANCH  19  20
ENDBRANCH   1  19
TORSDOF 8
ENDMDL
MODEL 3
REMARK VINA RESULT:      -8.1      5.638      8.334
REMARK  Name = 
REMARK  11 active torsions:
REMARK  status: ('A' for Active; 'I' for Inactive)
REMARK    1  A    between atoms: C_1  and  C_2
REMARK    2  A    between atoms: C_2  and  O_3
REMARK    3  A    between atoms: O_3  and  C_4
REMARK    4  A    between atoms: C_7  and  N_8
REMARK    5  A    between atoms: C_9  and  C_11
REMARK    6  A    between atoms: C_11  and  C_12
REMARK    7  A    between atoms: C_11  and  O_13
REMARK    8  A    between atoms: O_13  and  C_14
REMARK    9  A    between atoms: C_19  and  C_20
REMARK   10  A    between atoms: N_22  and  C_23
REMARK   11  A    between atoms: C_26  and  C_27
REMARK                            x       y       z     vdW  Elec       q    Type
REMARK                         _______ _______ _______ _____ _____    ______ ____
ROOT
ATOM      1  C   UNL     1       6.240   6.168  16.521  0.00  0.00    +0.000 A 
ATOM      2  C   UNL     1       6.901   5.436  15.514  0.00  0.00    +0.000 A 
ATOM      3  C   UNL     1       6.412   4.210  15.057  0.00  0.00    +0.000 A 
ATOM      4  C   UNL     1       5.263   3.676  15.611  0.00  0.00    +0.000 A 
ATOM      5  C   UNL     1       4.615   4.369  16.629  0.00  0.00    +0.000 A 
ATOM      6  C   UNL     1       5.084   5.616  17.103  0.00  0.00    +0.000 A 
ENDROOT
BRANCH   6   7
ATOM      7  C   UNL     1       4.240   6.229  18.186  0.00  0.00    +0.000 C 
ATOM      8  O   UNL     1       4.349   5.741  19.310  0.00  0.00    +0.000 OA
ATOM      9  N   UNL     1       3.410   7.296  17.879  0.00  0.00    +0.000 N 
ATOM     10  H   UNL     1       3.509   7.709  16.958  0.00  0.00    +0.000 HD
BRANCH   9  11
ATOM     11  C   UNL     1       2.467   7.888  18.765  0.00  0.00    +0.000 A 
ATOM     12  C   UNL     1       2.179   7.369  20.029  0.00  0.00    +0.000 A 
ATOM     13  C   UNL     1       1.246   7.976  20.877  0.00  0.00    +0.000 A 
ATOM     14  C   UNL     1       0.562   9.124  20.475  0.00  0.00    +0.000 A 
ATOM     15  C   UNL     1      -0.413   9.758  21.430  0.00  0.00    +0.000 C 
ATOM     16  C   UNL     1       0.829   9.639  19.200  0.00  0.00    +0.000 A 
ATOM     17 CL   UNL     1       0.008  11.047  18.622  0.00  0.00    +0.000 Cl
ATOM     18  C   UNL     1       1.771   9.027  18.350  0.00  0.00    +0.000 A 
ENDBRANCH   9  11
ENDBRANCH   6   7
BRANCH   1  19
ATOM     19  O   UNL     1       6.661   7.402  16.955  0.00  0.00    +0.000 OA
BRANCH  19  20
ATOM     20  C   UNL     1       7.935   7.504  17.604  0.00  0.00    +0.000 C 
ATOM     21  C   UNL     1       7.951   6.655  18.875  0.00  0.00    +0.000 C 
BRANCH  20  23
ATOM     22  N   UNL     1       9.129   9.143  18.964  0.00  0.00    +0.000 N 
ATOM     23  C   UNL     1       8.180   8.978  17.960  0.00  0.00    +0.000 C 
ATOM     24  O   UNL     1       7.541   9.873  17.417  0.00  0.00    +0.000 OA
ATOM     25  H   UNL     1       9.575   8.306  19.325  0.00  0.00    +0.000 HD
BRANCH  22  29
ATOM     26  C   UNL     1      10.188  12.819  20.763  0.00  0.00    +0.000 A 
ATOM     27  C   UNL     1      10.728  12.473  19.529  0.00  0.00    +0.000 A 
ATOM     28  C   UNL     1      10.389  11.265  18.922  0.00  0.00    +0.000 A 
ATOM     29  C   UNL     1       9.519  10.370  19.545  0.00  0.00    +0.000 A 
ATOM     30  C   UNL     1       9.006  10.703  20.803  0.00  0.00    +0.000 A 
ATOM     31  C   UNL     1       9.344  11.924  21.415  0.00  0.00    +0.000 A 
BRANCH  26  32
ATOM     32  O   UNL     1      10.582  14.039  21.230  0.00  0.00    +0.000 OA
BRANCH  32  34
ATOM     33  C   UNL     1       9.510  15.962  20.345  0.00  0.00    +0.000 C 
ATOM     34  C   UNL     1       9.546  14.978  21.501  0.00  0.00    +0.000 C 
ENDBRANCH  32  34
ENDBRANCH  26  32
ENDBRANCH  22  29
ENDBRANCH  20  23
ENDBRANCH  19  20
ENDBRANCH   1  19
TORSDOF 8
ENDMDL
MODEL 4
REMARK VINA RESULT:      -8.0      5.731      8.664
REMARK  Name = 
REMARK  11 active torsions:
REMARK  status: ('A' for Active; 'I' for Inactive)
REMARK    1  A    between atoms: C_1  and  C_2
REMARK    2  A    between atoms: C_2  and  O_3
REMARK    3  A    between atoms: O_3  and  C_4
REMARK    4  A    between atoms: C_7  and  N_8
REMARK    5  A    between atoms: C_9  and  C_11
REMARK    6  A    between atoms: C_11  and  C_12
REMARK    7  A    between atoms: C_11  and  O_13
REMARK    8  A    between atoms: O_13  and  C_14
REMARK    9  A    between atoms: C_19  and  C_20
REMARK   10  A    between atoms: N_22  and  C_23
REMARK   11  A    between atoms: C_26  and  C_27
REMARK                            x       y       z     vdW  Elec       q    Type
REMARK                         _______ _______ _______ _____ _____    ______ ____
ROOT
ATOM      1  C   UNL     1       5.742   5.944  17.031  0.00  0.00    +0.000 A 
ATOM      2  C   UNL     1       6.391   5.130  16.081  0.00  0.00    +0.000 A 
ATOM      3  C   UNL     1       5.825   3.935  15.629  0.00  0.00    +0.000 A 
ATOM      4  C   UNL     1       4.608   3.515  16.132  0.00  0.00    +0.000 A 
ATOM      5  C   UNL     1       3.967   4.289  17.095  0.00  0.00    +0.000 A 
ATOM      6  C   UNL     1       4.514   5.507  17.563  0.00  0.00    +0.000 A 
ENDROOT
BRANCH   6   7
ATOM      7  C   UNL     1       3.670   6.220  18.582  0.00  0.00    +0.000 C 
ATOM      8  O   UNL     1       3.592   5.699  19.694  0.00  0.00    +0.000 OA
ATOM      9  N   UNL     1       3.043   7.408  18.235  0.00  0.00    +0.000 N 
ATOM     10  H   UNL     1       3.294   7.819  17.343  0.00  0.00    +0.000 HD
BRANCH   9  11
ATOM     11  C   UNL     1       2.117   8.118  19.048  0.00  0.00    +0.000 A 
ATOM     12  C   UNL     1       1.793   7.732  20.351  0.00  0.00    +0.000 A 
ATOM     13  C   UNL     1       0.878   8.455  21.125  0.00  0.00    +0.000 A 
ATOM     14  C   UNL     1       0.249   9.588  20.608  0.00  0.00    +0.000 A 
ATOM     15  C   UNL     1      -0.708  10.349  21.484  0.00  0.00    +0.000 C 
ATOM     16  C   UNL     1       0.552   9.969  19.294  0.00  0.00    +0.000 A 
ATOM     17 CL   UNL     1      -0.202  11.350  18.575  0.00  0.00    +0.000 Cl
ATOM     18  C   UNL     1       1.475   9.242  18.519  0.00  0.00    +0.000 A 
ENDBRANCH   9  11
ENDBRANCH   6   7
BRANCH   1  19
ATOM     19  O   UNL     1       6.242   7.151  17.456  0.00  0.00    +0.000 OA
BRANCH  19  20
ATOM     20  C   UNL     1       7.653   7.268  17.683  0.00  0.00    +0.000 C 
ATOM     21  C   UNL     1       8.054   6.489  18.936  0.00  0.00    +0.000 C 
BRANCH  20  23
ATOM     22  N   UNL     1       8.938   8.978  18.860  0.00  0.00    +0.000 N 
ATOM     23  C   UNL     1       7.991   8.755  17.866  0.00  0.00    +0.000 C 
ATOM     24  O   UNL     1       7.419   9.619  17.208  0.00  0.00    +0.000 OA
ATOM     25  H   UNL     1       9.324   8.164  19.326  0.00  0.00    +0.000 HD
BRANCH  22  29
ATOM     26  C   UNL     1      10.417  12.746  20.082  0.00  0.00    +0.000 A 
ATOM     27  C   UNL     1       9.749  11.937  20.994  0.00  0.00    +0.000 A 
ATOM     28  C   UNL     1       9.255  10.692  20.609  0.00  0.00    +0.000 A 
ATOM     29  C   UNL     1       9.402  10.239  19.298  0.00  0.00    +0.000 A 
ATOM     30  C   UNL     1      10.042  11.069  18.371  0.00  0.00    +0.000 A 
ATOM     31  C   UNL     1      10.544  12.325  18.760  0.00  0.00    +0.000 A 
BRANCH  26  32
ATOM     32  O   UNL     1      10.871  13.924  20.598  0.00  0.00    +0.000 OA
BRANCH  32  34
ATOM     33  C   UNL     1      11.443  15.997  19.593  0.00  0.00    +0.000 C 
ATOM     34  C   UNL     1      11.906  14.577  19.868  0.00  0.00    +0.000 C 
ENDBRANCH  32  34
ENDBRANCH  26  32
ENDBRANCH  22  29
ENDBRANCH  20  23
ENDBRANCH  19  20
ENDBRANCH   1  19
TORSDOF 8
ENDMDL
MODEL 5
REMARK VINA RESULT:      -7.7      5.144      8.304
REMARK  Name = 
REMARK  11 active torsions:
REMARK  status: ('A' for Active; 'I' for Inactive)
REMARK    1  A    between atoms: C_1  and  C_2
REMARK    2  A    between atoms: C_2  and  O_3
REMARK    3  A    between atoms: O_3  and  C_4
REMARK    4  A    between atoms: C_7  and  N_8
REMARK    5  A    between atoms: C_9  and  C_11
REMARK    6  A    between atoms: C_11  and  C_12
REMARK    7  A    between atoms: C_11  and  O_13
REMARK    8  A    between atoms: O_13  and  C_14
REMARK    9  A    between atoms: C_19  and  C_20
REMARK   10  A    between atoms: N_22  and  C_23
REMARK   11  A    between atoms: C_26  and  C_27
REMARK                            x       y       z     vdW  Elec       q    Type
REMARK                         _______ _______ _______ _____ _____    ______ ____
ROOT
ATOM      1  C   UNL     1       6.142   5.041  17.011  0.00  0.00    +0.000 A 
ATOM      2  C   UNL     1       7.063   4.486  16.098  0.00  0.00    +0.000 A 
ATOM      3  C   UNL     1       6.652   3.958  14.872  0.00  0.00    +0.000 A 
ATOM      4  C   UNL     1       5.311   3.954  14.537  0.00  0.00    +0.000 A 
ATOM      5  C   UNL     1       4.384   4.468  15.439  0.00  0.00    +0.000 A 
ATOM      6  C   UNL     1       4.773   5.016  16.683  0.00  0.00    +0.000 A 
ENDROOT
BRANCH   6   7
ATOM      7  C   UNL     1       3.639   5.548  17.514  0.00  0.00    +0.000 C 
ATOM      8  O   UNL     1       2.617   4.864  17.552  0.00  0.00    +0.000 OA
ATOM      9  N   UNL     1       3.796   6.748  18.191  0.00  0.00    +0.000 N 
ATOM     10  H   UNL     1       4.727   7.152  18.206  0.00  0.00    +0.000 HD
BRANCH   9  11
ATOM     11  C   UNL     1       2.773   7.433  18.903  0.00  0.00    +0.000 A 
ATOM     12  C   UNL     1       2.265   6.984  20.126  0.00  0.00    +0.000 A 
ATOM     13  C   UNL     1       1.258   7.682  20.802  0.00  0.00    +0.000 A 
ATOM     14  C   UNL     1       0.720   8.852  20.265  0.00  0.00    +0.000 A 
ATOM     15  C   UNL     1      -0.341   9.584  21.039  0.00  0.00    +0.000 C 
ATOM     16  C   UNL     1       1.209   9.297  19.029  0.00  0.00    +0.000 A 
ATOM     17 CL   UNL     1       0.580  10.727  18.289  0.00  0.00    +0.000 Cl
ATOM     18  C   UNL     1       2.224   8.594  18.352  0.00  0.00    +0.000 A 
ENDBRANCH   9  11
ENDBRANCH   6   7
BRANCH   1  19
ATOM     19  O   UNL     1       6.516   5.619  18.200  0.00  0.00    +0.000 OA
BRANCH  19  20
ATOM     20  C   UNL     1       7.879   6.031  18.365  0.00  0.00    +0.000 C 
ATOM     21  C   UNL     1       8.318   5.840  19.817  0.00  0.00    +0.000 C 
BRANCH  20  23
ATOM     22  N   UNL     1       8.686   8.269  18.917  0.00  0.00    +0.000 N 
ATOM     23  C   UNL     1       7.985   7.515  17.981  0.00  0.00    +0.000 C 
ATOM     24  O   UNL     1       7.445   7.946  16.967  0.00  0.00    +0.000 OA
ATOM     25  H   UNL     1       9.075   7.776  19.714  0.00  0.00    +0.000 HD
BRANCH  22  29
ATOM     26  C   UNL     1       9.307  12.450  18.905  0.00  0.00    +0.000 A 
ATOM     27  C   UNL     1       8.695  11.840  17.816  0.00  0.00    +0.000 A 
ATOM     28  C   UNL     1       8.482  10.463  17.804  0.00  0.00    +0.000 A 
ATOM     29  C   UNL     1       8.895   9.665  18.872  0.00  0.00    +0.000 A 
ATOM     30  C   UNL     1       9.544  10.276  19.950  0.00  0.00    +0.000 A 
ATOM     31  C   UNL     1       9.755  11.667  19.965  0.00  0.00    +0.000 A 
BRANCH  26  32
ATOM     32  O   UNL     1       9.428  13.805  18.799  0.00  0.00    +0.000 OA
BRANCH  32  34
ATOM     33  C   UNL     1      11.449  15.035  18.609  0.00  0.00    +0.000 C 
ATOM     34  C   UNL     1      10.457  14.411  19.575  0.00  0.00    +0.000 C 
ENDBRANCH  32  34
ENDBRANCH  26  32
ENDBRANCH  22  29
ENDBRANCH  20  23
ENDBRANCH  19  20
ENDBRANCH   1  19
TORSDOF 8
ENDMDL
MODEL 6
REMARK VINA RESULT:      -7.7      0.879      1.148
REMARK  Name = 
REMARK  11 active torsions:
REMARK  status: ('A' for Active; 'I' for Inactive)
REMARK    1  A    between atoms: C_1  and  C_2
REMARK    2  A    between atoms: C_2  and  O_3
REMARK    3  A    between atoms: O_3  and  C_4
REMARK    4  A    between atoms: C_7  and  N_8
REMARK    5  A    between atoms: C_9  and  C_11
REMARK    6  A    between atoms: C_11  and  C_12
REMARK    7  A    between atoms: C_11  and  O_13
REMARK    8  A    between atoms: O_13  and  C_14
REMARK    9  A    between atoms: C_19  and  C_20
REMARK   10  A    between atoms: N_22  and  C_23
REMARK   11  A    between atoms: C_26  and  C_27
REMARK                            x       y       z     vdW  Elec       q    Type
REMARK                         _______ _______ _______ _____ _____    ______ ____
ROOT
ATOM      1  C   UNL     1       2.738   5.277  19.952  0.00  0.00    +0.000 A 
ATOM      2  C   UNL     1       1.709   4.913  20.844  0.00  0.00    +0.000 A 
ATOM      3  C   UNL     1       1.453   3.578  21.166  0.00  0.00    +0.000 A 
ATOM      4  C   UNL     1       2.206   2.573  20.587  0.00  0.00    +0.000 A 
ATOM      5  C   UNL     1       3.205   2.910  19.678  0.00  0.00    +0.000 A 
ATOM      6  C   UNL     1       3.490   4.254  19.342  0.00  0.00    +0.000 A 
ENDROOT
BRANCH   6   7
ATOM      7  C   UNL     1       4.619   4.428  18.366  0.00  0.00    +0.000 C 
ATOM      8  O   UNL     1       5.699   4.789  18.832  0.00  0.00    +0.000 OA
ATOM      9  N   UNL     1       4.402   4.169  17.021  0.00  0.00    +0.000 N 
ATOM     10  H   UNL     1       3.519   3.737  16.770  0.00  0.00    +0.000 HD
BRANCH   9  11
ATOM     11  C   UNL     1       5.334   4.413  15.974  0.00  0.00    +0.000 A 
ATOM     12  C   UNL     1       6.429   5.269  16.112  0.00  0.00    +0.000 A 
ATOM     13  C   UNL     1       7.328   5.486  15.062  0.00  0.00    +0.000 A 
ATOM     14  C   UNL     1       7.148   4.856  13.830  0.00  0.00    +0.000 A 
ATOM     15  C   UNL     1       8.154   5.099  12.738  0.00  0.00    +0.000 C 
ATOM     16  C   UNL     1       6.039   4.013  13.676  0.00  0.00    +0.000 A 
ATOM     17 CL   UNL     1       5.737   3.211  12.174  0.00  0.00    +0.000 Cl
ATOM     18  C   UNL     1       5.139   3.794  14.736  0.00  0.00    +0.000 A 
ENDBRANCH   9  11
ENDBRANCH   6   7
BRANCH   1  19
ATOM     19  O   UNL     1       3.053   6.580  19.656  0.00  0.00    +0.000 OA
BRANCH  19  20
ATOM     20  C   UNL     1       2.524   7.159  18.455  0.00  0.00    +0.000 C 
ATOM     21  C   UNL     1       3.644   7.379  17.437  0.00  0.00    +0.000 C 
BRANCH  20  23
ATOM     22  N   UNL     1       1.103   8.444  19.969  0.00  0.00    +0.000 N 
ATOM     23  C   UNL     1       1.875   8.505  18.813  0.00  0.00    +0.000 C 
ATOM     24  O   UNL     1       2.018   9.486  18.091  0.00  0.00    +0.000 OA
ATOM     25  H   UNL     1       1.074   7.559  20.463  0.00  0.00    +0.000 HD
BRANCH  22  29
ATOM     26  C   UNL     1      -1.171  11.668  21.490  0.00  0.00    +0.000 A 
ATOM     27  C   UNL     1      -0.501  10.821  22.366  0.00  0.00    +0.000 A 
ATOM     28  C   UNL     1       0.253   9.754  21.882  0.00  0.00    +0.000 A 
ATOM     29  C   UNL     1       0.337   9.500  20.512  0.00  0.00    +0.000 A 
ATOM     30  C   UNL     1      -0.367  10.331  19.634  0.00  0.00    +0.000 A 
ATOM     31  C   UNL     1      -1.126  11.411  20.122  0.00  0.00    +0.000 A 
BRANCH  26  32
ATOM     32  O   UNL     1      -1.848  12.685  22.095  0.00  0.00    +0.000 OA
BRANCH  32  34
ATOM     33  C   UNL     1      -1.250  14.511  23.489  0.00  0.00    +0.000 C 
ATOM     34  C   UNL     1      -1.451  13.007  23.425  0.00  0.00    +0.000 C 
ENDBRANCH  32  34
ENDBRANCH  26  32
ENDBRANCH  22  29
ENDBRANCH  20  23
ENDBRANCH  19  20
ENDBRANCH   1  19
TORSDOF 8
ENDMDL
MODEL 7
REMARK VINA RESULT:      -7.6      3.195      6.140
REMARK  Name = 
REMARK  11 active torsions:
REMARK  status: ('A' for Active; 'I' for Inactive)
REMARK    1  A    between atoms: C_1  and  C_2
REMARK    2  A    between atoms: C_2  and  O_3
REMARK    3  A    between atoms: O_3  and  C_4
REMARK    4  A    between atoms: C_7  and  N_8
REMARK    5  A    between atoms: C_9  and  C_11
REMARK    6  A    between atoms: C_11  and  C_12
REMARK    7  A    between atoms: C_11  and  O_13
REMARK    8  A    between atoms: O_13  and  C_14
REMARK    9  A    between atoms: C_19  and  C_20
REMARK   10  A    between atoms: N_22  and  C_23
REMARK   11  A    between atoms: C_26  and  C_27
REMARK                            x       y       z     vdW  Elec       q    Type
REMARK                         _______ _______ _______ _____ _____    ______ ____
ROOT
ATOM      1  C   UNL     1       0.700  11.109  19.480  0.00  0.00    +0.000 A 
ATOM      2  C   UNL     1       0.768  12.492  19.747  0.00  0.00    +0.000 A 
ATOM      3  C   UNL     1       1.646  13.330  19.056  0.00  0.00    +0.000 A 
ATOM      4  C   UNL     1       2.492  12.803  18.097  0.00  0.00    +0.000 A 
ATOM      5  C   UNL     1       2.463  11.436  17.843  0.00  0.00    +0.000 A 
ATOM      6  C   UNL     1       1.578  10.566  18.522  0.00  0.00    +0.000 A 
ENDROOT
BRANCH   6   7
ATOM      7  C   UNL     1       1.667   9.127  18.098  0.00  0.00    +0.000 C 
ATOM      8  O   UNL     1       0.772   8.713  17.363  0.00  0.00    +0.000 OA
ATOM      9  N   UNL     1       2.734   8.354  18.533  0.00  0.00    +0.000 N 
ATOM     10  H   UNL     1       3.487   8.835  19.012  0.00  0.00    +0.000 HD
BRANCH   9  11
ATOM     11  C   UNL     1       2.879   6.956  18.319  0.00  0.00    +0.000 A 
ATOM     12  C   UNL     1       3.824   6.412  17.444  0.00  0.00    +0.000 A 
ATOM     13  C   UNL     1       3.942   5.030  17.258  0.00  0.00    +0.000 A 
ATOM     14  C   UNL     1       3.104   4.147  17.939  0.00  0.00    +0.000 A 
ATOM     15  C   UNL     1       3.284   2.668  17.728  0.00  0.00    +0.000 C 
ATOM     16  C   UNL     1       2.139   4.685  18.802  0.00  0.00    +0.000 A 
ATOM     17 CL   UNL     1       1.051   3.656  19.667  0.00  0.00    +0.000 Cl
ATOM     18  C   UNL     1       2.025   6.075  18.990  0.00  0.00    +0.000 A 
ENDBRANCH   9  11
ENDBRANCH   6   7
BRANCH   1  19
ATOM     19  O   UNL     1      -0.189  10.265  20.100  0.00  0.00    +0.000 OA
BRANCH  19  20
ATOM     20  C   UNL     1       0.197   9.647  21.335  0.00  0.00    +0.000 C 
ATOM     21  C   UNL     1      -0.340   8.217  21.402  0.00  0.00    +0.000 C 
BRANCH  20  23
ATOM     22  N   UNL     1      -1.189  11.522  22.058  0.00  0.00    +0.000 N 
ATOM     23  C   UNL     1      -0.383  10.474  22.492  0.00  0.00    +0.000 C 
ATOM     24  O   UNL     1      -0.092  10.222  23.657  0.00  0.00    +0.000 OA
ATOM     25  H   UNL     1      -1.338  11.612  21.059  0.00  0.00    +0.000 HD
BRANCH  22  29
ATOM     26  C   UNL     1      -2.934  14.449  24.561  0.00  0.00    +0.000 A 
ATOM     27  C   UNL     1      -3.654  13.308  24.226  0.00  0.00    +0.000 A 
ATOM     28  C   UNL     1      -3.095  12.333  23.402  0.00  0.00    +0.000 A 
ATOM     29  C   UNL     1      -1.810  12.488  22.881  0.00  0.00    +0.000 A 
ATOM     30  C   UNL     1      -1.100  13.654  23.189  0.00  0.00    +0.000 A 
ATOM     31  C   UNL     1      -1.663  14.637  24.024  0.00  0.00    +0.000 A 
BRANCH  26  32
ATOM     32  O   UNL     1      -3.589  15.307  25.394  0.00  0.00    +0.000 OA
BRANCH  32  34
ATOM     33  C   UNL     1      -4.993  17.174  24.972  0.00  0.00    +0.000 C 
ATOM     34  C   UNL     1      -3.556  16.686  25.036  0.00  0.00    +0.000 C 
ENDBRANCH  32  34
ENDBRANCH  26  32
ENDBRANCH  22  29
ENDBRANCH  20  23
ENDBRANCH  19  20
ENDBRANCH   1  19
TORSDOF 8
ENDMDL
MODEL 8
REMARK VINA RESULT:      -7.6      4.625     10.023
REMARK  Name = 
REMARK  11 active torsions:
REMARK  status: ('A' for Active; 'I' for Inactive)
REMARK    1  A    between atoms: C_1  and  C_2
REMARK    2  A    between atoms: C_2  and  O_3
REMARK    3  A    between atoms: O_3  and  C_4
REMARK    4  A    between atoms: C_7  and  N_8
REMARK    5  A    between atoms: C_9  and  C_11
REMARK    6  A    between atoms: C_11  and  C_12
REMARK    7  A    between atoms: C_11  and  O_13
REMARK    8  A    between atoms: O_13  and  C_14
REMARK    9  A    between atoms: C_19  and  C_20
REMARK   10  A    between atoms: N_22  and  C_23
REMARK   11  A    between atoms: C_26  and  C_27
REMARK                            x       y       z     vdW  Elec       q    Type
REMARK                         _______ _______ _______ _____ _____    ______ ____
ROOT
ATOM      1  C   UNL     1      -0.234  10.398  20.719  0.00  0.00    +0.000 A 
ATOM      2  C   UNL     1      -0.320   9.416  21.726  0.00  0.00    +0.000 A 
ATOM      3  C   UNL     1      -0.834   9.706  22.993  0.00  0.00    +0.000 A 
ATOM      4  C   UNL     1      -1.253  10.990  23.289  0.00  0.00    +0.000 A 
ATOM      5  C   UNL     1      -1.146  11.981  22.318  0.00  0.00    +0.000 A 
ATOM      6  C   UNL     1      -0.638  11.712  21.025  0.00  0.00    +0.000 A 
ENDROOT
BRANCH   6   7
ATOM      7  C   UNL     1      -0.622  12.896  20.100  0.00  0.00    +0.000 C 
ATOM      8  O   UNL     1      -1.393  12.856  19.142  0.00  0.00    +0.000 OA
ATOM      9  N   UNL     1       0.228  13.958  20.369  0.00  0.00    +0.000 N 
ATOM     10  H   UNL     1       0.710  13.950  21.262  0.00  0.00    +0.000 HD
BRANCH   9  11
ATOM     11  C   UNL     1       0.443  15.078  19.519  0.00  0.00    +0.000 A 
ATOM     12  C   UNL     1       1.675  15.358  18.923  0.00  0.00    +0.000 A 
ATOM     13  C   UNL     1       1.853  16.468  18.090  0.00  0.00    +0.000 A 
ATOM     14  C   UNL     1       0.795  17.343  17.836  0.00  0.00    +0.000 A 
ATOM     15  C   UNL     1       1.024  18.509  16.914  0.00  0.00    +0.000 C 
ATOM     16  C   UNL     1      -0.439  17.081  18.448  0.00  0.00    +0.000 A 
ATOM     17 CL   UNL     1      -1.792  18.129  18.198  0.00  0.00    +0.000 Cl
ATOM     18  C   UNL     1      -0.615  15.962  19.283  0.00  0.00    +0.000 A 
ENDBRANCH   9  11
ENDBRANCH   6   7
BRANCH   1  19
ATOM     19  O   UNL     1       0.212  10.135  19.447  0.00  0.00    +0.000 OA
BRANCH  19  20
ATOM     20  C   UNL     1       1.617   9.937  19.239  0.00  0.00    +0.000 C 
ATOM     21  C   UNL     1       2.115  10.828  18.100  0.00  0.00    +0.000 C 
BRANCH  20  23
ATOM     22  N   UNL     1       2.108   7.668  19.998  0.00  0.00    +0.000 N 
ATOM     23  C   UNL     1       1.850   8.461  18.884  0.00  0.00    +0.000 C 
ATOM     24  O   UNL     1       1.846   8.084  17.716  0.00  0.00    +0.000 OA
ATOM     25  H   UNL     1       2.083   8.120  20.906  0.00  0.00    +0.000 HD
BRANCH  22  29
ATOM     26  C   UNL     1       3.112   3.564  19.853  0.00  0.00    +0.000 A 
ATOM     27  C   UNL     1       1.911   3.962  20.431  0.00  0.00    +0.000 A 
ATOM     28  C   UNL     1       1.564   5.310  20.487  0.00  0.00    +0.000 A 
ATOM     29  C   UNL     1       2.420   6.291  19.983  0.00  0.00    +0.000 A 
ATOM     30  C   UNL     1       3.644   5.892  19.435  0.00  0.00    +0.000 A 
ATOM     31  C   UNL     1       3.993   4.531  19.375  0.00  0.00    +0.000 A 
BRANCH  26  32
ATOM     32  O   UNL     1       3.313   2.215  19.840  0.00  0.00    +0.000 OA
BRANCH  32  34
ATOM     33  C   UNL     1       2.473   2.104  17.623  0.00  0.00    +0.000 C 
ATOM     34  C   UNL     1       3.561   1.625  18.567  0.00  0.00    +0.000 C 
ENDBRANCH  32  34
ENDBRANCH  26  32
ENDBRANCH  22  29
ENDBRANCH  20  23
ENDBRANCH  19  20
ENDBRANCH   1  19
TORSDOF 8
ENDMDL
MODEL 9
REMARK VINA RESULT:      -7.5      4.202     10.283
REMARK  Name = 
REMARK  11 active torsions:
REMARK  status: ('A' for Active; 'I' for Inactive)
REMARK    1  A    between atoms: C_1  and  C_2
REMARK    2  A    between atoms: C_2  and  O_3
REMARK    3  A    between atoms: O_3  and  C_4
REMARK    4  A    between atoms: C_7  and  N_8
REMARK    5  A    between atoms: C_9  and  C_11
REMARK    6  A    between atoms: C_11  and  C_12
REMARK    7  A    between atoms: C_11  and  O_13
REMARK    8  A    between atoms: O_13  and  C_14
REMARK    9  A    between atoms: C_19  and  C_20
REMARK   10  A    between atoms: N_22  and  C_23
REMARK   11  A    between atoms: C_26  and  C_27
REMARK                            x       y       z     vdW  Elec       q    Type
REMARK                         _______ _______ _______ _____ _____    ______ ____
ROOT
ATOM      1  C   UNL     1      -0.201  10.201  20.673  0.00  0.00    +0.000 A 
ATOM      2  C   UNL     1      -0.189   9.166  21.631  0.00  0.00    +0.000 A 
ATOM      3  C   UNL     1      -0.652   9.367  22.934  0.00  0.00    +0.000 A 
ATOM      4  C   UNL     1      -1.117  10.612  23.317  0.00  0.00    +0.000 A 
ATOM      5  C   UNL     1      -1.106  11.654  22.394  0.00  0.00    +0.000 A 
ATOM      6  C   UNL     1      -0.652  11.475  21.067  0.00  0.00    +0.000 A 
ENDROOT
BRANCH   6   7
ATOM      7  C   UNL     1      -0.740  12.704  20.206  0.00  0.00    +0.000 C 
ATOM      8  O   UNL     1      -1.524  12.657  19.259  0.00  0.00    +0.000 OA
ATOM      9  N   UNL     1       0.037  13.810  20.516  0.00  0.00    +0.000 N 
ATOM     10  H   UNL     1       0.536  13.791  21.400  0.00  0.00    +0.000 HD
BRANCH   9  11
ATOM     11  C   UNL     1       0.154  14.984  19.723  0.00  0.00    +0.000 A 
ATOM     12  C   UNL     1      -0.888  15.902  19.561  0.00  0.00    +0.000 A 
ATOM     13  C   UNL     1      -0.741  17.049  18.774  0.00  0.00    +0.000 A 
ATOM     14  C   UNL     1       0.461  17.308  18.112  0.00  0.00    +0.000 A 
ATOM     15  C   UNL     1       0.584  18.566  17.298  0.00  0.00    +0.000 C 
ATOM     16  C   UNL     1       1.504  16.382  18.252  0.00  0.00    +0.000 A 
ATOM     17 CL   UNL     1       3.016  16.622  17.449  0.00  0.00    +0.000 Cl
ATOM     18  C   UNL     1       1.353  15.230  19.048  0.00  0.00    +0.000 A 
ENDBRANCH   9  11
ENDBRANCH   6   7
BRANCH   1  19
ATOM     19  O   UNL     1       0.193  10.025  19.369  0.00  0.00    +0.000 OA
BRANCH  19  20
ATOM     20  C   UNL     1       1.588  10.128  19.053  0.00  0.00    +0.000 C 
ATOM     21  C   UNL     1       1.881  11.473  18.387  0.00  0.00    +0.000 C 
BRANCH  20  23
ATOM     22  N   UNL     1       2.825   8.059  18.665  0.00  0.00    +0.000 N 
ATOM     23  C   UNL     1       1.953   8.984  18.097  0.00  0.00    +0.000 C 
ATOM     24  O   UNL     1       1.530   8.963  16.946  0.00  0.00    +0.000 OA
ATOM     25  H   UNL     1       3.096   8.208  19.631  0.00  0.00    +0.000 HD
BRANCH  22  29
ATOM     26  C   UNL     1       4.542   4.777  16.628  0.00  0.00    +0.000 A 
ATOM     27  C   UNL     1       3.444   4.577  17.458  0.00  0.00    +0.000 A 
ATOM     28  C   UNL     1       2.866   5.648  18.137  0.00  0.00    +0.000 A 
ATOM     29  C   UNL     1       3.385   6.937  18.014  0.00  0.00    +0.000 A 
ATOM     30  C   UNL     1       4.512   7.130  17.208  0.00  0.00    +0.000 A 
ATOM     31  C   UNL     1       5.095   6.050  16.520  0.00  0.00    +0.000 A 
BRANCH  26  32
ATOM     32  O   UNL     1       4.992   3.650  16.005  0.00  0.00    +0.000 OA
BRANCH  32  34
ATOM     33  C   UNL     1       6.062   3.828  13.894  0.00  0.00    +0.000 C 
ATOM     34  C   UNL     1       6.276   3.734  15.395  0.00  0.00    +0.000 C 
ENDBRANCH  32  34
ENDBRANCH  26  32
ENDBRANCH  22  29
ENDBRANCH  20  23
ENDBRANCH  19  20
ENDBRANCH   1  19
TORSDOF 8
ENDMDL
