MODEL 1
REMARK VINA RESULT:      -8.1      0.000      0.000
REMARK  Name = 
REMARK  14 active torsions:
REMARK  status: ('A' for Active; 'I' for Inactive)
REMARK    1  A    between atoms: C_2  and  C_3
REMARK    2  A    between atoms: C_2  and  C_19
REMARK    3  A    between atoms: C_3  and  O_5
REMARK    4  A    between atoms: O_5  and  C_6
REMARK    5  A    between atoms: C_6  and  C_7
REMARK    6  A    between atoms: C_7  and  C_8
REMARK    7  A    between atoms: C_8  and  C_9
REMARK    8  A    between atoms: C_9  and  C_10
REMARK    9  A    between atoms: C_10  and  C_11
REMARK   10  A    between atoms: C_11  and  C_12
REMARK   11  A    between atoms: C_12  and  C_13
REMARK   12  A    between atoms: C_13  and  N_14
REMARK   13  A    between atoms: C_22  and  C_23
REMARK   14  A    between atoms: C_28  and  C_29
REMARK                            x       y       z     vdW  Elec       q    Type
REMARK                         _______ _______ _______ _____ _____    ______ ____
ROOT
ATOM      1  C   UNL     1       7.555   4.956  17.617  0.00  0.00    +0.000 C 
ATOM      2  O   UNL     1       8.410   4.094  17.821  0.00  0.00    +0.000 OA
ENDROOT
BRANCH   1   4
ATOM      3  C   UNL     1       5.838   4.468  19.195  0.00  0.00    +0.000 C 
ATOM      4  C   UNL     1       6.107   4.744  17.884  0.00  0.00    +0.000 C 
BRANCH   4   5
ATOM      5  C   UNL     1       5.050   4.993  16.807  0.00  0.00    +0.000 C 
ATOM      6  C   UNL     1       4.847   6.501  16.520  0.00  0.00    +0.000 C 
ATOM      7  C   UNL     1       4.176   7.287  17.656  0.00  0.00    +0.000 C 
ATOM      8  C   UNL     1       2.662   7.083  17.659  0.00  0.00    +0.000 C 
ATOM      9  C   UNL     1       1.945   8.359  18.104  0.00  0.00    +0.000 C 
ATOM     10  C   UNL     1       2.204   5.849  18.453  0.00  0.00    +0.000 C 
ATOM     11  C   UNL     1       2.212   5.953  19.976  0.00  0.00    +0.000 C 
ATOM     12  C   UNL     1       2.260   4.498  20.353  0.00  0.00    +0.000 C 
ATOM     13  O   UNL     1       2.066   4.064  21.476  0.00  0.00    +0.000 OA
ATOM     14  C   UNL     1       2.705   3.661  19.213  0.00  0.00    +0.000 C 
ATOM     15  C   UNL     1       2.934   2.201  19.338  0.00  0.00    +0.000 C 
ATOM     16  C   UNL     1       2.922   4.535  18.212  0.00  0.00    +0.000 C 
ATOM     17  C   UNL     1       3.665   4.271  16.936  0.00  0.00    +0.000 C 
ENDBRANCH   4   5
ENDBRANCH   1   4
BRANCH   1  18
ATOM     18  O   UNL     1       7.801   6.228  17.212  0.00  0.00    +0.000 OA
BRANCH  18  19
ATOM     19  C   UNL     1       8.125   7.161  18.262  0.00  0.00    +0.000 C 
BRANCH  19  20
ATOM     20  C   UNL     1       8.018   8.614  17.803  0.00  0.00    +0.000 C 
BRANCH  20  21
ATOM     21  C   UNL     1       8.682   9.548  18.825  0.00  0.00    +0.000 C 
BRANCH  21  22
ATOM     22  C   UNL     1       9.431  10.688  18.137  0.00  0.00    +0.000 C 
BRANCH  22  23
ATOM     23  C   UNL     1      10.634  11.178  18.947  0.00  0.00    +0.000 C 
BRANCH  23  24
ATOM     24  C   UNL     1      11.476  12.153  18.119  0.00  0.00    +0.000 C 
BRANCH  24  25
ATOM     25  C   UNL     1      10.606  13.064  17.257  0.00  0.00    +0.000 C 
BRANCH  25  26
ATOM     26  C   UNL     1      10.606  14.496  17.790  0.00  0.00    +0.000 C 
BRANCH  26  27
ATOM     27  N   UNL     1       9.271  14.940  18.121  0.00  0.00    +0.000 N 
ATOM     28  C   UNL     1       8.316  14.261  18.811  0.00  0.00    +0.000 A 
ATOM     29  N   UNL     1       7.250  15.018  18.939  0.00  0.00    +0.000 NA
ATOM     30  C   UNL     1       7.613  16.169  18.297  0.00  0.00    +0.000 A 
ATOM     31  N   UNL     1       8.843  16.167  17.776  0.00  0.00    +0.000 NA
ENDBRANCH  26  27
ENDBRANCH  25  26
ENDBRANCH  24  25
ENDBRANCH  23  24
ENDBRANCH  22  23
ENDBRANCH  21  22
ENDBRANCH  20  21
ENDBRANCH  19  20
ENDBRANCH  18  19
ENDBRANCH   1  18
TORSDOF 12
ENDMDL
MODEL 2
REMARK VINA RESULT:      -7.8      1.287      1.642
REMARK  Name = 
REMARK  14 active torsions:
REMARK  status: ('A' for Active; 'I' for Inactive)
REMARK    1  A    between atoms: C_2  and  C_3
REMARK    2  A    between atoms: C_2  and  C_19
REMARK    3  A    between atoms: C_3  and  O_5
REMARK    4  A    between atoms: O_5  and  C_6
REMARK    5  A    between atoms: C_6  and  C_7
REMARK    6  A    between atoms: C_7  and  C_8
REMARK    7  A    between atoms: C_8  and  C_9
REMARK    8  A    between atoms: C_9  and  C_10
REMARK    9  A    between atoms: C_10  and  C_11
REMARK   10  A    between atoms: C_11  and  C_12
REMARK   11  A    between atoms: C_12  and  C_13
REMARK   12  A    between atoms: C_13  and  N_14
REMARK   13  A    between atoms: C_22  and  C_23
REMARK   14  A    between atoms: C_28  and  C_29
REMARK                            x       y       z     vdW  Elec       q    Type
REMARK                         _______ _______ _______ _____ _____    ______ ____
ROOT
ATOM      1  C   UNL     1       7.286   4.734  17.691  0.00  0.00    +0.000 C 
ATOM      2  O   UNL     1       7.895   4.529  16.641  0.00  0.00    +0.000 OA
ENDROOT
BRANCH   1   4
ATOM      3  C   UNL     1       5.551   3.952  19.124  0.00  0.00    +0.000 C 
ATOM      4  C   UNL     1       5.844   4.412  17.872  0.00  0.00    +0.000 C 
BRANCH   4   5
ATOM      5  C   UNL     1       4.810   4.745  16.796  0.00  0.00    +0.000 C 
ATOM      6  C   UNL     1       4.718   6.265  16.518  0.00  0.00    +0.000 C 
ATOM      7  C   UNL     1       4.107   7.092  17.659  0.00  0.00    +0.000 C 
ATOM      8  C   UNL     1       2.582   6.999  17.661  0.00  0.00    +0.000 C 
ATOM      9  C   UNL     1       1.960   8.322  18.113  0.00  0.00    +0.000 C 
ATOM     10  C   UNL     1       2.033   5.798  18.447  0.00  0.00    +0.000 C 
ATOM     11  C   UNL     1       2.048   5.892  19.971  0.00  0.00    +0.000 C 
ATOM     12  C   UNL     1       1.989   4.436  20.339  0.00  0.00    +0.000 C 
ATOM     13  O   UNL     1       1.764   4.011  21.460  0.00  0.00    +0.000 OA
ATOM     14  C   UNL     1       2.372   3.575  19.195  0.00  0.00    +0.000 C 
ATOM     15  C   UNL     1       2.493   2.101  19.311  0.00  0.00    +0.000 C 
ATOM     16  C   UNL     1       2.653   4.436  18.199  0.00  0.00    +0.000 C 
ATOM     17  C   UNL     1       3.375   4.125  16.921  0.00  0.00    +0.000 C 
ENDBRANCH   4   5
ENDBRANCH   1   4
BRANCH   1  18
ATOM     18  O   UNL     1       7.837   5.191  18.844  0.00  0.00    +0.000 OA
BRANCH  18  19
ATOM     19  C   UNL     1       8.251   6.572  18.829  0.00  0.00    +0.000 C 
BRANCH  19  20
ATOM     20  C   UNL     1       7.630   7.354  17.673  0.00  0.00    +0.000 C 
BRANCH  20  21
ATOM     21  C   UNL     1       8.028   8.835  17.755  0.00  0.00    +0.000 C 
BRANCH  21  22
ATOM     22  C   UNL     1       8.942   9.102  18.949  0.00  0.00    +0.000 C 
BRANCH  22  23
ATOM     23  C   UNL     1       9.171  10.596  19.193  0.00  0.00    +0.000 C 
BRANCH  23  24
ATOM     24  C   UNL     1       9.920  11.224  18.014  0.00  0.00    +0.000 C 
BRANCH  24  25
ATOM     25  C   UNL     1       9.292  12.547  17.582  0.00  0.00    +0.000 C 
BRANCH  25  26
ATOM     26  C   UNL     1      10.363  13.595  17.281  0.00  0.00    +0.000 C 
BRANCH  26  27
ATOM     27  N   UNL     1      10.796  14.272  18.482  0.00  0.00    +0.000 N 
ATOM     28  C   UNL     1      10.022  14.763  19.486  0.00  0.00    +0.000 A 
ATOM     29  N   UNL     1      10.790  15.272  20.421  0.00  0.00    +0.000 NA
ATOM     30  C   UNL     1      12.048  15.062  19.930  0.00  0.00    +0.000 A 
ATOM     31  N   UNL     1      12.103  14.455  18.741  0.00  0.00    +0.000 NA
ENDBRANCH  26  27
ENDBRANCH  25  26
ENDBRANCH  24  25
ENDBRANCH  23  24
ENDBRANCH  22  23
ENDBRANCH  21  22
ENDBRANCH  20  21
ENDBRANCH  19  20
ENDBRANCH  18  19
ENDBRANCH   1  18
TORSDOF 12
ENDMDL
MODEL 3
REMARK VINA RESULT:      -7.3      1.085      1.455
REMARK  Name = 
REMARK  14 active torsions:
REMARK  status: ('A' for Active; 'I' for Inactive)
REMARK    1  A    between atoms: C_2  and  C_3
REMARK    2  A    between atoms: C_2  and  C_19
REMARK    3  A    between atoms: C_3  and  O_5
REMARK    4  A    between atoms: O_5  and  C_6
REMARK    5  A    between atoms: C_6  and  C_7
REMARK    6  A    between atoms: C_7  and  C_8
REMARK    7  A    between atoms: C_8  and  C_9
REMARK    8  A    between atoms: C_9  and  C_10
REMARK    9  A    between atoms: C_10  and  C_11
REMARK   10  A    between atoms: C_11  and  C_12
REMARK   11  A    between atoms: C_12  and  C_13
REMARK   12  A    between atoms: C_13  and  N_14
REMARK   13  A    between atoms: C_22  and  C_23
REMARK   14  A    between atoms: C_28  and  C_29
REMARK                            x       y       z     vdW  Elec       q    Type
REMARK                         _______ _______ _______ _____ _____    ______ ____
ROOT
ATOM      1  C   UNL     1       7.090   5.544  18.937  0.00  0.00    +0.000 C 
ATOM      2  O   UNL     1       7.501   5.490  20.096  0.00  0.00    +0.000 OA
ENDROOT
BRANCH   1   4
ATOM      3  C   UNL     1       5.562   3.755  19.309  0.00  0.00    +0.000 C 
ATOM      4  C   UNL     1       5.933   4.748  18.446  0.00  0.00    +0.000 C 
BRANCH   4   5
ATOM      5  C   UNL     1       5.162   5.148  17.188  0.00  0.00    +0.000 C 
ATOM      6  C   UNL     1       5.040   6.685  17.036  0.00  0.00    +0.000 C 
ATOM      7  C   UNL     1       4.125   7.363  18.067  0.00  0.00    +0.000 C 
ATOM      8  C   UNL     1       2.652   7.208  17.692  0.00  0.00    +0.000 C 
ATOM      9  C   UNL     1       1.858   8.450  18.100  0.00  0.00    +0.000 C 
ATOM     10  C   UNL     1       2.012   5.910  18.210  0.00  0.00    +0.000 C 
ATOM     11  C   UNL     1       1.662   5.846  19.695  0.00  0.00    +0.000 C 
ATOM     12  C   UNL     1       1.611   4.358  19.904  0.00  0.00    +0.000 C 
ATOM     13  O   UNL     1       1.155   3.810  20.894  0.00  0.00    +0.000 OA
ATOM     14  C   UNL     1       2.308   3.638  18.812  0.00  0.00    +0.000 C 
ATOM     15  C   UNL     1       2.492   2.166  18.819  0.00  0.00    +0.000 C 
ATOM     16  C   UNL     1       2.760   4.608  17.995  0.00  0.00    +0.000 C 
ATOM     17  C   UNL     1       3.781   4.461  16.907  0.00  0.00    +0.000 C 
ENDBRANCH   4   5
ENDBRANCH   1   4
BRANCH   1  18
ATOM     18  O   UNL     1       7.557   6.380  17.975  0.00  0.00    +0.000 OA
BRANCH  18  19
ATOM     19  C   UNL     1       8.281   7.531  18.451  0.00  0.00    +0.000 C 
BRANCH  19  20
ATOM     20  C   UNL     1       7.832   8.824  17.772  0.00  0.00    +0.000 C 
BRANCH  20  21
ATOM     21  C   UNL     1       8.875   9.931  17.987  0.00  0.00    +0.000 C 
BRANCH  21  22
ATOM     22  C   UNL     1       9.191  10.120  19.470  0.00  0.00    +0.000 C 
BRANCH  22  23
ATOM     23  C   UNL     1       9.843  11.473  19.766  0.00  0.00    +0.000 C 
BRANCH  23  24
ATOM     24  C   UNL     1      11.289  11.492  19.261  0.00  0.00    +0.000 C 
BRANCH  24  25
ATOM     25  C   UNL     1      11.703  12.880  18.778  0.00  0.00    +0.000 C 
BRANCH  25  26
ATOM     26  C   UNL     1      11.031  13.227  17.450  0.00  0.00    +0.000 C 
BRANCH  26  27
ATOM     27  N   UNL     1      10.561  14.594  17.434  0.00  0.00    +0.000 N 
ATOM     28  C   UNL     1      11.178  15.679  16.896  0.00  0.00    +0.000 A 
ATOM     29  N   UNL     1      10.414  16.736  17.050  0.00  0.00    +0.000 NA
ATOM     30  C   UNL     1       9.323  16.232  17.701  0.00  0.00    +0.000 A 
ATOM     31  N   UNL     1       9.369  14.923  17.962  0.00  0.00    +0.000 NA
ENDBRANCH  26  27
ENDBRANCH  25  26
ENDBRANCH  24  25
ENDBRANCH  23  24
ENDBRANCH  22  23
ENDBRANCH  21  22
ENDBRANCH  20  21
ENDBRANCH  19  20
ENDBRANCH  18  19
ENDBRANCH   1  18
TORSDOF 12
ENDMDL
MODEL 4
REMARK VINA RESULT:      -7.0      2.073      2.676
REMARK  Name = 
REMARK  14 active torsions:
REMARK  status: ('A' for Active; 'I' for Inactive)
REMARK    1  A    between atoms: C_2  and  C_3
REMARK    2  A    between atoms: C_2  and  C_19
REMARK    3  A    between atoms: C_3  and  O_5
REMARK    4  A    between atoms: O_5  and  C_6
REMARK    5  A    between atoms: C_6  and  C_7
REMARK    6  A    between atoms: C_7  and  C_8
REMARK    7  A    between atoms: C_8  and  C_9
REMARK    8  A    between atoms: C_9  and  C_10
REMARK    9  A    between atoms: C_10  and  C_11
REMARK   10  A    between atoms: C_11  and  C_12
REMARK   11  A    between atoms: C_12  and  C_13
REMARK   12  A    between atoms: C_13  and  N_14
REMARK   13  A    between atoms: C_22  and  C_23
REMARK   14  A    between atoms: C_28  and  C_29
REMARK                            x       y       z     vdW  Elec       q    Type
REMARK                         _______ _______ _______ _____ _____    ______ ____
ROOT
ATOM      1  C   UNL     1       6.108   5.950  17.076  0.00  0.00    +0.000 C 
ATOM      2  O   UNL     1       5.992   6.551  16.007  0.00  0.00    +0.000 OA
ENDROOT
BRANCH   1   4
ATOM      3  C   UNL     1       5.330   4.612  18.886  0.00  0.00    +0.000 C 
ATOM      4  C   UNL     1       4.954   5.352  17.801  0.00  0.00    +0.000 C 
BRANCH   4   5
ATOM      5  C   UNL     1       3.512   5.703  17.436  0.00  0.00    +0.000 C 
ATOM      6  C   UNL     1       3.085   7.086  17.987  0.00  0.00    +0.000 C 
ATOM      7  C   UNL     1       2.937   7.152  19.515  0.00  0.00    +0.000 C 
ATOM      8  C   UNL     1       1.606   6.558  19.973  0.00  0.00    +0.000 C 
ATOM      9  C   UNL     1       1.068   7.312  21.190  0.00  0.00    +0.000 C 
ATOM     10  C   UNL     1       1.649   5.039  20.199  0.00  0.00    +0.000 C 
ATOM     11  C   UNL     1       2.332   4.539  21.471  0.00  0.00    +0.000 C 
ATOM     12  C   UNL     1       2.656   3.126  21.074  0.00  0.00    +0.000 C 
ATOM     13  O   UNL     1       3.021   2.254  21.845  0.00  0.00    +0.000 OA
ATOM     14  C   UNL     1       2.606   2.955  19.602  0.00  0.00    +0.000 C 
ATOM     15  C   UNL     1       2.979   1.684  18.935  0.00  0.00    +0.000 C 
ATOM     16  C   UNL     1       2.283   4.172  19.128  0.00  0.00    +0.000 C 
ATOM     17  C   UNL     1       2.392   4.639  17.707  0.00  0.00    +0.000 C 
ENDBRANCH   4   5
ENDBRANCH   1   4
BRANCH   1  18
ATOM     18  O   UNL     1       7.281   5.670  17.698  0.00  0.00    +0.000 OA
BRANCH  18  19
ATOM     19  C   UNL     1       7.824   6.734  18.506  0.00  0.00    +0.000 C 
BRANCH  19  20
ATOM     20  C   UNL     1       7.984   8.036  17.723  0.00  0.00    +0.000 C 
BRANCH  20  21
ATOM     21  C   UNL     1       8.584   9.128  18.621  0.00  0.00    +0.000 C 
BRANCH  21  22
ATOM     22  C   UNL     1       8.949  10.374  17.816  0.00  0.00    +0.000 C 
BRANCH  22  23
ATOM     23  C   UNL     1       9.202  11.596  18.703  0.00  0.00    +0.000 C 
BRANCH  23  24
ATOM     24  C   UNL     1      10.638  11.583  19.236  0.00  0.00    +0.000 C 
BRANCH  24  25
ATOM     25  C   UNL     1      10.693  11.909  20.727  0.00  0.00    +0.000 C 
BRANCH  25  26
ATOM     26  C   UNL     1       9.915  13.185  21.044  0.00  0.00    +0.000 C 
BRANCH  26  27
ATOM     27  N   UNL     1       8.708  12.900  21.786  0.00  0.00    +0.000 N 
ATOM     28  C   UNL     1       8.398  11.765  22.466  0.00  0.00    +0.000 A 
ATOM     29  N   UNL     1       7.226  11.907  23.043  0.00  0.00    +0.000 NA
ATOM     30  C   UNL     1       6.857  13.171  22.676  0.00  0.00    +0.000 A 
ATOM     31  N   UNL     1       7.732  13.818  21.901  0.00  0.00    +0.000 NA
ENDBRANCH  26  27
ENDBRANCH  25  26
ENDBRANCH  24  25
ENDBRANCH  23  24
ENDBRANCH  22  23
ENDBRANCH  21  22
ENDBRANCH  20  21
ENDBRANCH  19  20
ENDBRANCH  18  19
ENDBRANCH   1  18
TORSDOF 12
ENDMDL
MODEL 5
REMARK VINA RESULT:      -7.0      1.728      2.558
REMARK  Name = 
REMARK  14 active torsions:
REMARK  status: ('A' for Active; 'I' for Inactive)
REMARK    1  A    between atoms: C_2  and  C_3
REMARK    2  A    between atoms: C_2  and  C_19
REMARK    3  A    between atoms: C_3  and  O_5
REMARK    4  A    between atoms: O_5  and  C_6
REMARK    5  A    between atoms: C_6  and  C_7
REMARK    6  A    between atoms: C_7  and  C_8
REMARK    7  A    between atoms: C_8  and  C_9
REMARK    8  A    between atoms: C_9  and  C_10
REMARK    9  A    between atoms: C_10  and  C_11
REMARK   10  A    between atoms: C_11  and  C_12
REMARK   11  A    between atoms: C_12  and  C_13
REMARK   12  A    between atoms: C_13  and  N_14
REMARK   13  A    between atoms: C_22  and  C_23
REMARK   14  A    between atoms: C_28  and  C_29
REMARK                            x       y       z     vdW  Elec       q    Type
REMARK                         _______ _______ _______ _____ _____    ______ ____
ROOT
ATOM      1  C   UNL     1       5.552   3.738  16.821  0.00  0.00    +0.000 C 
ATOM      2  O   UNL     1       5.659   3.269  15.687  0.00  0.00    +0.000 OA
ENDROOT
BRANCH   1   4
ATOM      3  C   UNL     1       4.362   2.939  18.723  0.00  0.00    +0.000 C 
ATOM      4  C   UNL     1       4.283   3.708  17.596  0.00  0.00    +0.000 C 
BRANCH   4   5
ATOM      5  C   UNL     1       3.099   4.602  17.227  0.00  0.00    +0.000 C 
ATOM      6  C   UNL     1       3.363   6.093  17.550  0.00  0.00    +0.000 C 
ATOM      7  C   UNL     1       3.418   6.427  19.048  0.00  0.00    +0.000 C 
ATOM      8  C   UNL     1       2.017   6.546  19.645  0.00  0.00    +0.000 C 
ATOM      9  C   UNL     1       1.982   7.618  20.735  0.00  0.00    +0.000 C 
ATOM     10  C   UNL     1       1.430   5.208  20.124  0.00  0.00    +0.000 C 
ATOM     11  C   UNL     1       1.962   4.640  21.438  0.00  0.00    +0.000 C 
ATOM     12  C   UNL     1       1.609   3.188  21.275  0.00  0.00    +0.000 C 
ATOM     13  O   UNL     1       1.645   2.359  22.170  0.00  0.00    +0.000 OA
ATOM     14  C   UNL     1       1.338   2.855  19.856  0.00  0.00    +0.000 C 
ATOM     15  C   UNL     1       1.060   1.471  19.401  0.00  0.00    +0.000 C 
ATOM     16  C   UNL     1       1.517   4.013  19.193  0.00  0.00    +0.000 C 
ATOM     17  C   UNL     1       1.667   4.185  17.711  0.00  0.00    +0.000 C 
ENDBRANCH   4   5
ENDBRANCH   1   4
BRANCH   1  18
ATOM     18  O   UNL     1       6.566   4.261  17.555  0.00  0.00    +0.000 OA
BRANCH  18  19
ATOM     19  C   UNL     1       7.609   4.910  16.799  0.00  0.00    +0.000 C 
BRANCH  19  20
ATOM     20  C   UNL     1       7.230   6.330  16.387  0.00  0.00    +0.000 C 
BRANCH  20  21
ATOM     21  C   UNL     1       6.849   7.162  17.621  0.00  0.00    +0.000 C 
BRANCH  21  22
ATOM     22  C   UNL     1       8.086   7.721  18.321  0.00  0.00    +0.000 C 
BRANCH  22  23
ATOM     23  C   UNL     1       8.380   9.172  17.931  0.00  0.00    +0.000 C 
BRANCH  23  24
ATOM     24  C   UNL     1       9.169   9.876  19.038  0.00  0.00    +0.000 C 
BRANCH  24  25
ATOM     25  C   UNL     1       9.306  11.374  18.774  0.00  0.00    +0.000 C 
BRANCH  25  26
ATOM     26  C   UNL     1      10.417  11.986  19.625  0.00  0.00    +0.000 C 
BRANCH  26  27
ATOM     27  N   UNL     1      10.068  13.314  20.078  0.00  0.00    +0.000 N 
ATOM     28  C   UNL     1      10.076  13.787  21.352  0.00  0.00    +0.000 A 
ATOM     29  N   UNL     1       9.733  15.055  21.349  0.00  0.00    +0.000 NA
ATOM     30  C   UNL     1       9.522  15.311  20.023  0.00  0.00    +0.000 A 
ATOM     31  N   UNL     1       9.711  14.272  19.205  0.00  0.00    +0.000 NA
ENDBRANCH  26  27
ENDBRANCH  25  26
ENDBRANCH  24  25
ENDBRANCH  23  24
ENDBRANCH  22  23
ENDBRANCH  21  22
ENDBRANCH  20  21
ENDBRANCH  19  20
ENDBRANCH  18  19
ENDBRANCH   1  18
TORSDOF 12
ENDMDL
MODEL 6
REMARK VINA RESULT:      -7.0      1.219      1.775
REMARK  Name = 
REMARK  14 active torsions:
REMARK  status: ('A' for Active; 'I' for Inactive)
REMARK    1  A    between atoms: C_2  and  C_3
REMARK    2  A    between atoms: C_2  and  C_19
REMARK    3  A    between atoms: C_3  and  O_5
REMARK    4  A    between atoms: O_5  and  C_6
REMARK    5  A    between atoms: C_6  and  C_7
REMARK    6  A    between atoms: C_7  and  C_8
REMARK    7  A    between atoms: C_8  and  C_9
REMARK    8  A    between atoms: C_9  and  C_10
REMARK    9  A    between atoms: C_10  and  C_11
REMARK   10  A    between atoms: C_11  and  C_12
REMARK   11  A    between atoms: C_12  and  C_13
REMARK   12  A    between atoms: C_13  and  N_14
REMARK   13  A    between atoms: C_22  and  C_23
REMARK   14  A    between atoms: C_28  and  C_29
REMARK                            x       y       z     vdW  Elec       q    Type
REMARK                         _______ _______ _______ _____ _____    ______ ____
ROOT
ATOM      1  C   UNL     1       6.913   5.034  17.194  0.00  0.00    +0.000 C 
ATOM      2  O   UNL     1       7.933   4.427  17.521  0.00  0.00    +0.000 OA
ENDROOT
BRANCH   1   4
ATOM      3  C   UNL     1       5.846   4.702  19.297  0.00  0.00    +0.000 C 
ATOM      4  C   UNL     1       5.647   4.979  17.974  0.00  0.00    +0.000 C 
BRANCH   4   5
ATOM      5  C   UNL     1       4.307   5.372  17.353  0.00  0.00    +0.000 C 
ATOM      6  C   UNL     1       3.878   6.810  17.739  0.00  0.00    +0.000 C 
ATOM      7  C   UNL     1       3.487   6.990  19.214  0.00  0.00    +0.000 C 
ATOM      8  C   UNL     1       2.066   6.495  19.479  0.00  0.00    +0.000 C 
ATOM      9  C   UNL     1       1.382   7.357  20.541  0.00  0.00    +0.000 C 
ATOM     10  C   UNL     1       1.982   4.995  19.802  0.00  0.00    +0.000 C 
ATOM     11  C   UNL     1       2.417   4.553  21.198  0.00  0.00    +0.000 C 
ATOM     12  C   UNL     1       2.717   3.101  20.948  0.00  0.00    +0.000 C 
ATOM     13  O   UNL     1       2.899   2.269  21.821  0.00  0.00    +0.000 OA
ATOM     14  C   UNL     1       2.898   2.830  19.502  0.00  0.00    +0.000 C 
ATOM     15  C   UNL     1       3.299   1.499  18.985  0.00  0.00    +0.000 C 
ATOM     16  C   UNL     1       2.729   4.025  18.906  0.00  0.00    +0.000 C 
ATOM     17  C   UNL     1       3.097   4.386  17.498  0.00  0.00    +0.000 C 
ENDBRANCH   4   5
ENDBRANCH   1   4
BRANCH   1  18
ATOM     18  O   UNL     1       6.810   5.894  16.149  0.00  0.00    +0.000 OA
BRANCH  18  19
ATOM     19  C   UNL     1       7.558   7.120  16.279  0.00  0.00    +0.000 C 
BRANCH  19  20
ATOM     20  C   UNL     1       7.477   7.705  17.687  0.00  0.00    +0.000 C 
BRANCH  20  21
ATOM     21  C   UNL     1       8.016   9.143  17.700  0.00  0.00    +0.000 C 
BRANCH  21  22
ATOM     22  C   UNL     1       8.869   9.409  18.939  0.00  0.00    +0.000 C 
BRANCH  22  23
ATOM     23  C   UNL     1       9.841  10.576  18.747  0.00  0.00    +0.000 C 
BRANCH  23  24
ATOM     24  C   UNL     1       9.133  11.760  18.083  0.00  0.00    +0.000 C 
BRANCH  24  25
ATOM     25  C   UNL     1       9.425  13.074  18.805  0.00  0.00    +0.000 C 
BRANCH  25  26
ATOM     26  C   UNL     1      10.672  13.751  18.238  0.00  0.00    +0.000 C 
BRANCH  26  27
ATOM     27  N   UNL     1      10.421  15.138  17.913  0.00  0.00    +0.000 N 
ATOM     28  C   UNL     1      11.173  15.957  17.131  0.00  0.00    +0.000 A 
ATOM     29  N   UNL     1      10.592  17.132  17.047  0.00  0.00    +0.000 NA
ATOM     30  C   UNL     1       9.469  16.974  17.809  0.00  0.00    +0.000 A 
ATOM     31  N   UNL     1       9.323  15.767  18.364  0.00  0.00    +0.000 NA
ENDBRANCH  26  27
ENDBRANCH  25  26
ENDBRANCH  24  25
ENDBRANCH  23  24
ENDBRANCH  22  23
ENDBRANCH  21  22
ENDBRANCH  20  21
ENDBRANCH  19  20
ENDBRANCH  18  19
ENDBRANCH   1  18
TORSDOF 12
ENDMDL
MODEL 7
REMARK VINA RESULT:      -6.9      2.640      3.216
REMARK  Name = 
REMARK  14 active torsions:
REMARK  status: ('A' for Active; 'I' for Inactive)
REMARK    1  A    between atoms: C_2  and  C_3
REMARK    2  A    between atoms: C_2  and  C_19
REMARK    3  A    between atoms: C_3  and  O_5
REMARK    4  A    between atoms: O_5  and  C_6
REMARK    5  A    between atoms: C_6  and  C_7
REMARK    6  A    between atoms: C_7  and  C_8
REMARK    7  A    between atoms: C_8  and  C_9
REMARK    8  A    between atoms: C_9  and  C_10
REMARK    9  A    between atoms: C_10  and  C_11
REMARK   10  A    between atoms: C_11  and  C_12
REMARK   11  A    between atoms: C_12  and  C_13
REMARK   12  A    between atoms: C_13  and  N_14
REMARK   13  A    between atoms: C_22  and  C_23
REMARK   14  A    between atoms: C_28  and  C_29
REMARK                            x       y       z     vdW  Elec       q    Type
REMARK                         _______ _______ _______ _____ _____    ______ ____
ROOT
ATOM      1  C   UNL     1       5.669   5.746  18.321  0.00  0.00    +0.000 C 
ATOM      2  O   UNL     1       5.961   5.572  19.504  0.00  0.00    +0.000 OA
ENDROOT
BRANCH   1   4
ATOM      3  C   UNL     1       5.012   3.656  17.385  0.00  0.00    +0.000 C 
ATOM      4  C   UNL     1       4.631   4.948  17.614  0.00  0.00    +0.000 C 
BRANCH   4   5
ATOM      5  C   UNL     1       3.233   5.509  17.352  0.00  0.00    +0.000 C 
ATOM      6  C   UNL     1       3.078   6.965  17.857  0.00  0.00    +0.000 C 
ATOM      7  C   UNL     1       3.082   7.119  19.385  0.00  0.00    +0.000 C 
ATOM      8  C   UNL     1       1.723   6.766  19.986  0.00  0.00    +0.000 C 
ATOM      9  C   UNL     1       1.422   7.648  21.199  0.00  0.00    +0.000 C 
ATOM     10  C   UNL     1       1.551   5.270  20.295  0.00  0.00    +0.000 C 
ATOM     11  C   UNL     1       2.261   4.724  21.531  0.00  0.00    +0.000 C 
ATOM     12  C   UNL     1       2.324   3.261  21.190  0.00  0.00    +0.000 C 
ATOM     13  O   UNL     1       2.619   2.376  21.976  0.00  0.00    +0.000 OA
ATOM     14  C   UNL     1       2.114   3.037  19.740  0.00  0.00    +0.000 C 
ATOM     15  C   UNL     1       2.222   1.695  19.117  0.00  0.00    +0.000 C 
ATOM     16  C   UNL     1       1.941   4.268  19.225  0.00  0.00    +0.000 C 
ATOM     17  C   UNL     1       1.991   4.650  17.776  0.00  0.00    +0.000 C 
ENDBRANCH   4   5
ENDBRANCH   1   4
BRANCH   1  18
ATOM     18  O   UNL     1       6.170   6.721  17.522  0.00  0.00    +0.000 OA
BRANCH  18  19
ATOM     19  C   UNL     1       7.543   7.085  17.772  0.00  0.00    +0.000 C 
BRANCH  19  20
ATOM     20  C   UNL     1       7.797   8.576  17.565  0.00  0.00    +0.000 C 
BRANCH  20  21
ATOM     21  C   UNL     1       8.777   9.103  18.624  0.00  0.00    +0.000 C 
BRANCH  21  22
ATOM     22  C   UNL     1       8.817  10.630  18.637  0.00  0.00    +0.000 C 
BRANCH  22  23
ATOM     23  C   UNL     1      10.243  11.183  18.715  0.00  0.00    +0.000 C 
BRANCH  23  24
ATOM     24  C   UNL     1      10.589  11.570  20.155  0.00  0.00    +0.000 C 
BRANCH  24  25
ATOM     25  C   UNL     1       9.340  11.710  21.022  0.00  0.00    +0.000 C 
BRANCH  25  26
ATOM     26  C   UNL     1       9.470  12.880  21.995  0.00  0.00    +0.000 C 
BRANCH  26  27
ATOM     27  N   UNL     1       8.487  12.802  23.053  0.00  0.00    +0.000 N 
ATOM     28  C   UNL     1       7.317  13.486  23.153  0.00  0.00    +0.000 A 
ATOM     29  N   UNL     1       6.683  13.110  24.240  0.00  0.00    +0.000 NA
ATOM     30  C   UNL     1       7.526  12.178  24.778  0.00  0.00    +0.000 A 
ATOM     31  N   UNL     1       8.648  11.958  24.086  0.00  0.00    +0.000 NA
ENDBRANCH  26  27
ENDBRANCH  25  26
ENDBRANCH  24  25
ENDBRANCH  23  24
ENDBRANCH  22  23
ENDBRANCH  21  22
ENDBRANCH  20  21
ENDBRANCH  19  20
ENDBRANCH  18  19
ENDBRANCH   1  18
TORSDOF 12
ENDMDL
MODEL 8
REMARK VINA RESULT:      -6.9      1.100      1.465
REMARK  Name = 
REMARK  14 active torsions:
REMARK  status: ('A' for Active; 'I' for Inactive)
REMARK    1  A    between atoms: C_2  and  C_3
REMARK    2  A    between atoms: C_2  and  C_19
REMARK    3  A    between atoms: C_3  and  O_5
REMARK    4  A    between atoms: O_5  and  C_6
REMARK    5  A    between atoms: C_6  and  C_7
REMARK    6  A    between atoms: C_7  and  C_8
REMARK    7  A    between atoms: C_8  and  C_9
REMARK    8  A    between atoms: C_9  and  C_10
REMARK    9  A    between atoms: C_10  and  C_11
REMARK   10  A    between atoms: C_11  and  C_12
REMARK   11  A    between atoms: C_12  and  C_13
REMARK   12  A    between atoms: C_13  and  N_14
REMARK   13  A    between atoms: C_22  and  C_23
REMARK   14  A    between atoms: C_28  and  C_29
REMARK                            x       y       z     vdW  Elec       q    Type
REMARK                         _______ _______ _______ _____ _____    ______ ____
ROOT
ATOM      1  C   UNL     1       6.442   5.719  16.848  0.00  0.00    +0.000 C 
ATOM      2  O   UNL     1       6.546   5.413  15.660  0.00  0.00    +0.000 OA
ENDROOT
BRANCH   1   4
ATOM      3  C   UNL     1       5.646   4.819  18.904  0.00  0.00    +0.000 C 
ATOM      4  C   UNL     1       5.280   5.326  17.690  0.00  0.00    +0.000 C 
BRANCH   4   5
ATOM      5  C   UNL     1       3.844   5.641  17.268  0.00  0.00    +0.000 C 
ATOM      6  C   UNL     1       3.359   7.010  17.807  0.00  0.00    +0.000 C 
ATOM      7  C   UNL     1       3.148   7.065  19.327  0.00  0.00    +0.000 C 
ATOM      8  C   UNL     1       1.815   6.434  19.729  0.00  0.00    +0.000 C 
ATOM      9  C   UNL     1       1.209   7.168  20.926  0.00  0.00    +0.000 C 
ATOM     10  C   UNL     1       1.889   4.915  19.951  0.00  0.00    +0.000 C 
ATOM     11  C   UNL     1       2.532   4.427  21.247  0.00  0.00    +0.000 C 
ATOM     12  C   UNL     1       2.909   3.025  20.858  0.00  0.00    +0.000 C 
ATOM     13  O   UNL     1       3.266   2.159  21.640  0.00  0.00    +0.000 OA
ATOM     14  C   UNL     1       2.924   2.860  19.385  0.00  0.00    +0.000 C 
ATOM     15  C   UNL     1       3.356   1.603  18.728  0.00  0.00    +0.000 C 
ATOM     16  C   UNL     1       2.588   4.071  18.902  0.00  0.00    +0.000 C 
ATOM     17  C   UNL     1       2.742   4.548  17.489  0.00  0.00    +0.000 C 
ENDBRANCH   4   5
ENDBRANCH   1   4
BRANCH   1  18
ATOM     18  O   UNL     1       7.383   6.369  17.578  0.00  0.00    +0.000 OA
BRANCH  18  19
ATOM     19  C   UNL     1       7.139   7.772  17.798  0.00  0.00    +0.000 C 
BRANCH  19  20
ATOM     20  C   UNL     1       8.374   8.628  17.527  0.00  0.00    +0.000 C 
BRANCH  20  21
ATOM     21  C   UNL     1       8.674   9.532  18.732  0.00  0.00    +0.000 C 
BRANCH  21  22
ATOM     22  C   UNL     1       9.168  10.907  18.289  0.00  0.00    +0.000 C 
BRANCH  22  23
ATOM     23  C   UNL     1      10.577  11.221  18.799  0.00  0.00    +0.000 C 
BRANCH  23  24
ATOM     24  C   UNL     1      11.331  12.091  17.790  0.00  0.00    +0.000 C 
BRANCH  24  25
ATOM     25  C   UNL     1      11.454  13.537  18.266  0.00  0.00    +0.000 C 
BRANCH  25  26
ATOM     26  C   UNL     1      10.891  14.509  17.231  0.00  0.00    +0.000 C 
BRANCH  26  27
ATOM     27  N   UNL     1       9.744  15.225  17.744  0.00  0.00    +0.000 N 
ATOM     28  C   UNL     1       8.663  14.711  18.388  0.00  0.00    +0.000 A 
ATOM     29  N   UNL     1       7.855  15.688  18.732  0.00  0.00    +0.000 NA
ATOM     30  C   UNL     1       8.502  16.798  18.265  0.00  0.00    +0.000 A 
ATOM     31  N   UNL     1       9.663  16.564  17.649  0.00  0.00    +0.000 NA
ENDBRANCH  26  27
ENDBRANCH  25  26
ENDBRANCH  24  25
ENDBRANCH  23  24
ENDBRANCH  22  23
ENDBRANCH  21  22
ENDBRANCH  20  21
ENDBRANCH  19  20
ENDBRANCH  18  19
ENDBRANCH   1  18
TORSDOF 12
ENDMDL
MODEL 9
REMARK VINA RESULT:      -6.9      5.629      9.394
REMARK  Name = 
REMARK  14 active torsions:
REMARK  status: ('A' for Active; 'I' for Inactive)
REMARK    1  A    between atoms: C_2  and  C_3
REMARK    2  A    between atoms: C_2  and  C_19
REMARK    3  A    between atoms: C_3  and  O_5
REMARK    4  A    between atoms: O_5  and  C_6
REMARK    5  A    between atoms: C_6  and  C_7
REMARK    6  A    between atoms: C_7  and  C_8
REMARK    7  A    between atoms: C_8  and  C_9
REMARK    8  A    between atoms: C_9  and  C_10
REMARK    9  A    between atoms: C_10  and  C_11
REMARK   10  A    between atoms: C_11  and  C_12
REMARK   11  A    between atoms: C_12  and  C_13
REMARK   12  A    between atoms: C_13  and  N_14
REMARK   13  A    between atoms: C_22  and  C_23
REMARK   14  A    between atoms: C_28  and  C_29
REMARK                            x       y       z     vdW  Elec       q    Type
REMARK                         _______ _______ _______ _____ _____    ______ ____
ROOT
ATOM      1  C   UNL     1       1.599   7.463  20.585  0.00  0.00    +0.000 C 
ATOM      2  O   UNL     1       2.111   7.736  19.499  0.00  0.00    +0.000 OA
ENDROOT
BRANCH   1   4
ATOM      3  C   UNL     1      -0.669   7.992  21.080  0.00  0.00    +0.000 C 
ATOM      4  C   UNL     1       0.632   8.357  21.276  0.00  0.00    +0.000 C 
BRANCH   4   5
ATOM      5  C   UNL     1       1.100   9.450  22.237  0.00  0.00    +0.000 C 
ATOM      6  C   UNL     1       0.120   9.654  23.419  0.00  0.00    +0.000 C 
ATOM      7  C   UNL     1      -1.230  10.277  23.035  0.00  0.00    +0.000 C 
ATOM      8  C   UNL     1      -1.118  11.791  22.866  0.00  0.00    +0.000 C 
ATOM      9  C   UNL     1      -2.402  12.483  23.326  0.00  0.00    +0.000 C 
ATOM     10  C   UNL     1      -0.692  12.229  21.456  0.00  0.00    +0.000 C 
ATOM     11  C   UNL     1      -1.747  12.165  20.354  0.00  0.00    +0.000 C 
ATOM     12  C   UNL     1      -0.870  12.114  19.134  0.00  0.00    +0.000 C 
ATOM     13  O   UNL     1      -1.262  12.269  17.989  0.00  0.00    +0.000 OA
ATOM     14  C   UNL     1       0.515  11.716  19.482  0.00  0.00    +0.000 C 
ATOM     15  C   UNL     1       1.562  11.492  18.456  0.00  0.00    +0.000 C 
ATOM     16  C   UNL     1       0.491  11.529  20.815  0.00  0.00    +0.000 C 
ATOM     17  C   UNL     1       1.532  10.835  21.642  0.00  0.00    +0.000 C 
ENDBRANCH   4   5
ENDBRANCH   1   4
BRANCH   1  18
ATOM     18  O   UNL     1       1.764   6.298  21.261  0.00  0.00    +0.000 OA
BRANCH  18  19
ATOM     19  C   UNL     1       2.188   5.173  20.465  0.00  0.00    +0.000 C 
BRANCH  19  20
ATOM     20  C   UNL     1       1.278   3.959  20.640  0.00  0.00    +0.000 C 
BRANCH  20  21
ATOM     21  C   UNL     1       0.889   3.381  19.271  0.00  0.00    +0.000 C 
BRANCH  21  22
ATOM     22  C   UNL     1       1.607   2.060  19.000  0.00  0.00    +0.000 C 
BRANCH  22  23
ATOM     23  C   UNL     1       2.765   2.210  18.009  0.00  0.00    +0.000 C 
BRANCH  23  24
ATOM     24  C   UNL     1       2.592   3.480  17.172  0.00  0.00    +0.000 C 
BRANCH  24  25
ATOM     25  C   UNL     1       3.809   4.397  17.272  0.00  0.00    +0.000 C 
BRANCH  25  26
ATOM     26  C   UNL     1       5.106   3.619  17.061  0.00  0.00    +0.000 C 
BRANCH  26  27
ATOM     27  N   UNL     1       5.959   4.263  16.087  0.00  0.00    +0.000 N 
ATOM     28  C   UNL     1       6.875   5.244  16.302  0.00  0.00    +0.000 A 
ATOM     29  N   UNL     1       7.474   5.536  15.171  0.00  0.00    +0.000 NA
ATOM     30  C   UNL     1       6.876   4.690  14.280  0.00  0.00    +0.000 A 
ATOM     31  N   UNL     1       5.937   3.892  14.795  0.00  0.00    +0.000 NA
ENDBRANCH  26  27
ENDBRANCH  25  26
ENDBRANCH  24  25
ENDBRANCH  23  24
ENDBRANCH  22  23
ENDBRANCH  21  22
ENDBRANCH  20  21
ENDBRANCH  19  20
ENDBRANCH  18  19
ENDBRANCH   1  18
TORSDOF 12
ENDMDL
