MODEL 1
REMARK VINA RESULT:      -8.5      0.000      0.000
REMARK  Name = 
REMARK  11 active torsions:
REMARK  status: ('A' for Active; 'I' for Inactive)
REMARK    1  A    between atoms: C_1  and  O_2
REMARK    2  A    between atoms: O_2  and  C_3
REMARK    3  A    between atoms: C_5  and  C_6
REMARK    4  A    between atoms: C_6  and  N_7
REMARK    5  A    between atoms: C_8  and  C_10
REMARK    6  A    between atoms: C_13  and  O_14
REMARK    7  A    between atoms: N_19  and  C_20
REMARK    8  A    between atoms: C_20  and  C_21
REMARK    9  A    between atoms: C_25  and  C_26
REMARK   10  A    between atoms: C_31  and  O_32
REMARK   11  A    between atoms: O_32  and  C_33
REMARK                            x       y       z     vdW  Elec       q    Type
REMARK                         _______ _______ _______ _____ _____    ______ ____
ROOT
ATOM      1  C   UNL     1       3.311   7.032  17.883  0.00  0.00    +0.000 A 
ATOM      2  C   UNL     1       4.623   7.416  17.648  0.00  0.00    +0.000 A 
ATOM      3  C   UNL     1       5.329   6.345  17.068  0.00  0.00    +0.000 A 
ATOM      4  C   UNL     1       6.675   6.144  16.708  0.00  0.00    +0.000 A 
ATOM      5  C   UNL     1       7.049   5.028  15.976  0.00  0.00    +0.000 A 
ATOM      6  C   UNL     1       6.087   4.091  15.613  0.00  0.00    +0.000 A 
ATOM      7  C   UNL     1       4.752   4.214  16.040  0.00  0.00    +0.000 A 
ATOM      8  C   UNL     1       4.391   5.347  16.798  0.00  0.00    +0.000 A 
ATOM      9  N   UNL     1       3.206   5.715  17.447  0.00  0.00    +0.000 N 
ENDROOT
BRANCH   1  11
ATOM     10  N   UNL     1       1.819   8.903  17.589  0.00  0.00    +0.000 N 
ATOM     11  C   UNL     1       2.333   7.951  18.431  0.00  0.00    +0.000 C 
ATOM     12  O   UNL     1       1.922   7.828  19.583  0.00  0.00    +0.000 OA
ATOM     13  H   UNL     1       2.018   8.862  16.604  0.00  0.00    +0.000 HD
BRANCH  10  14
ATOM     14  C   UNL     1       0.726   9.743  18.019  0.00  0.00    +0.000 C 
BRANCH  14  17
ATOM     15  C   UNL     1       2.549  12.969  18.963  0.00  0.00    +0.000 A 
ATOM     16  C   UNL     1       2.179  11.801  18.285  0.00  0.00    +0.000 A 
ATOM     17  C   UNL     1       1.193  10.946  18.801  0.00  0.00    +0.000 A 
ATOM     18  C   UNL     1       0.623  11.256  20.040  0.00  0.00    +0.000 A 
ATOM     19  C   UNL     1       0.979  12.424  20.725  0.00  0.00    +0.000 A 
ATOM     20  C   UNL     1       1.942  13.279  20.181  0.00  0.00    +0.000 A 
BRANCH  15  22
ATOM     21  C   UNL     1       3.086  15.005  17.848  0.00  0.00    +0.000 C 
ATOM     22  O   UNL     1       3.494  13.729  18.326  0.00  0.00    +0.000 OA
ENDBRANCH  15  22
BRANCH  19  23
ATOM     23  O   UNL     1       0.302  12.624  21.898  0.00  0.00    +0.000 OA
ATOM     24  C   UNL     1      -0.533  11.564  22.349  0.00  0.00    +0.000 C 
ENDBRANCH  19  23
ENDBRANCH  14  17
ENDBRANCH  10  14
ENDBRANCH   1  11
BRANCH   4  25
ATOM     25  O   UNL     1       7.667   7.019  17.094  0.00  0.00    +0.000 OA
ATOM     26  H   UNL     1       7.586   7.124  18.060  0.00  0.00    +0.000 HD
ENDBRANCH   4  25
BRANCH   9  27
ATOM     27  C   UNL     1       2.186   4.730  17.837  0.00  0.00    +0.000 C 
BRANCH  27  28
ATOM     28  C   UNL     1       2.406   3.899  19.079  0.00  0.00    +0.000 A 
ATOM     29  C   UNL     1       1.562   4.142  20.186  0.00  0.00    +0.000 A 
ATOM     30  C   UNL     1       1.751   3.489  21.403  0.00  0.00    +0.000 A 
ATOM     31  C   UNL     1       2.796   2.577  21.549  0.00  0.00    +0.000 A 
ATOM     32  C   UNL     1       3.650   2.331  20.467  0.00  0.00    +0.000 A 
ATOM     33  C   UNL     1       3.456   2.988  19.240  0.00  0.00    +0.000 A 
BRANCH  32  34
ATOM     34  C   UNL     1       4.775   1.366  20.607  0.00  0.00    +0.000 C 
ATOM     35  N   UNL     1       5.559   1.340  21.640  0.00  0.00    +0.000 NA
ATOM     36  N   UNL     1       5.022   0.451  19.632  0.00  0.00    +0.000 N 
ATOM     37  H   UNL     1       5.337   2.093  22.298  0.00  0.00    +0.000 HD
ATOM     38  H   UNL     1       4.215   0.074  19.143  0.00  0.00    +0.000 HD
ATOM     39  H   UNL     1       5.664  -0.271  19.946  0.00  0.00    +0.000 HD
ENDBRANCH  32  34
ENDBRANCH  27  28
ENDBRANCH   9  27
TORSDOF 9
ENDMDL
MODEL 2
REMARK VINA RESULT:      -8.5      2.987      5.366
REMARK  Name = 
REMARK  11 active torsions:
REMARK  status: ('A' for Active; 'I' for Inactive)
REMARK    1  A    between atoms: C_1  and  O_2
REMARK    2  A    between atoms: O_2  and  C_3
REMARK    3  A    between atoms: C_5  and  C_6
REMARK    4  A    between atoms: C_6  and  N_7
REMARK    5  A    between atoms: C_8  and  C_10
REMARK    6  A    between atoms: C_13  and  O_14
REMARK    7  A    between atoms: N_19  and  C_20
REMARK    8  A    between atoms: C_20  and  C_21
REMARK    9  A    between atoms: C_25  and  C_26
REMARK   10  A    between atoms: C_31  and  O_32
REMARK   11  A    between atoms: O_32  and  C_33
REMARK                            x       y       z     vdW  Elec       q    Type
REMARK                         _______ _______ _______ _____ _____    ______ ____
ROOT
ATOM      1  C   UNL     1       2.043   6.419  19.624  0.00  0.00    +0.000 A 
ATOM      2  C   UNL     1       1.215   5.373  20.002  0.00  0.00    +0.000 A 
ATOM      3  C   UNL     1       1.687   4.172  19.439  0.00  0.00    +0.000 A 
ATOM      4  C   UNL     1       1.207   2.849  19.416  0.00  0.00    +0.000 A 
ATOM      5  C   UNL     1       1.995   1.821  18.923  0.00  0.00    +0.000 A 
ATOM      6  C   UNL     1       3.264   2.107  18.428  0.00  0.00    +0.000 A 
ATOM      7  C   UNL     1       3.734   3.431  18.348  0.00  0.00    +0.000 A 
ATOM      8  C   UNL     1       2.913   4.466  18.839  0.00  0.00    +0.000 A 
ATOM      9  N   UNL     1       3.032   5.862  18.820  0.00  0.00    +0.000 N 
ENDROOT
BRANCH   1  11
ATOM     10  N   UNL     1       1.542   8.730  19.160  0.00  0.00    +0.000 N 
ATOM     11  C   UNL     1       1.830   7.772  20.098  0.00  0.00    +0.000 C 
ATOM     12  O   UNL     1       1.826   8.032  21.299  0.00  0.00    +0.000 OA
ATOM     13  H   UNL     1       1.353   8.462  18.210  0.00  0.00    +0.000 HD
BRANCH  10  14
ATOM     14  C   UNL     1       1.157  10.060  19.572  0.00  0.00    +0.000 C 
BRANCH  14  17
ATOM     15  C   UNL     1      -2.240  11.793  19.293  0.00  0.00    +0.000 A 
ATOM     16  C   UNL     1      -1.004  11.363  19.792  0.00  0.00    +0.000 A 
ATOM     17  C   UNL     1      -0.217  10.444  19.082  0.00  0.00    +0.000 A 
ATOM     18  C   UNL     1      -0.719   9.920  17.885  0.00  0.00    +0.000 A 
ATOM     19  C   UNL     1      -1.950  10.345  17.373  0.00  0.00    +0.000 A 
ATOM     20  C   UNL     1      -2.707  11.284  18.079  0.00  0.00    +0.000 A 
BRANCH  15  22
ATOM     21  C   UNL     1      -2.640  12.674  21.471  0.00  0.00    +0.000 C 
ATOM     22  O   UNL     1      -2.883  12.720  20.070  0.00  0.00    +0.000 OA
ENDBRANCH  15  22
BRANCH  19  23
ATOM     23  O   UNL     1      -2.288   9.787  16.169  0.00  0.00    +0.000 OA
ATOM     24  C   UNL     1      -2.986  10.616  15.248  0.00  0.00    +0.000 C 
ENDBRANCH  19  23
ENDBRANCH  14  17
ENDBRANCH  10  14
ENDBRANCH   1  11
BRANCH   4  25
ATOM     25  O   UNL     1      -0.064   2.531  19.845  0.00  0.00    +0.000 OA
ATOM     26  H   UNL     1      -0.624   2.486  19.049  0.00  0.00    +0.000 HD
ENDBRANCH   4  25
BRANCH   9  27
ATOM     27  C   UNL     1       3.886   6.562  17.848  0.00  0.00    +0.000 C 
BRANCH  27  28
ATOM     28  C   UNL     1       5.169   5.907  17.394  0.00  0.00    +0.000 A 
ATOM     29  C   UNL     1       6.177   5.701  18.363  0.00  0.00    +0.000 A 
ATOM     30  C   UNL     1       7.426   5.189  18.017  0.00  0.00    +0.000 A 
ATOM     31  C   UNL     1       7.704   4.871  16.688  0.00  0.00    +0.000 A 
ATOM     32  C   UNL     1       6.722   5.077  15.711  0.00  0.00    +0.000 A 
ATOM     33  C   UNL     1       5.463   5.592  16.063  0.00  0.00    +0.000 A 
BRANCH  32  34
ATOM     34  C   UNL     1       7.005   4.751  14.287  0.00  0.00    +0.000 C 
ATOM     35  N   UNL     1       7.828   5.434  13.555  0.00  0.00    +0.000 NA
ATOM     36  N   UNL     1       6.394   3.692  13.690  0.00  0.00    +0.000 N 
ATOM     37  H   UNL     1       8.201   6.241  14.064  0.00  0.00    +0.000 HD
ATOM     38  H   UNL     1       6.217   2.878  14.272  0.00  0.00    +0.000 HD
ATOM     39  H   UNL     1       6.832   3.455  12.804  0.00  0.00    +0.000 HD
ENDBRANCH  32  34
ENDBRANCH  27  28
ENDBRANCH   9  27
TORSDOF 9
ENDMDL
MODEL 3
REMARK VINA RESULT:      -8.4      3.043      5.209
REMARK  Name = 
REMARK  11 active torsions:
REMARK  status: ('A' for Active; 'I' for Inactive)
REMARK    1  A    between atoms: C_1  and  O_2
REMARK    2  A    between atoms: O_2  and  C_3
REMARK    3  A    between atoms: C_5  and  C_6
REMARK    4  A    between atoms: C_6  and  N_7
REMARK    5  A    between atoms: C_8  and  C_10
REMARK    6  A    between atoms: C_13  and  O_14
REMARK    7  A    between atoms: N_19  and  C_20
REMARK    8  A    between atoms: C_20  and  C_21
REMARK    9  A    between atoms: C_25  and  C_26
REMARK   10  A    between atoms: C_31  and  O_32
REMARK   11  A    between atoms: O_32  and  C_33
REMARK                            x       y       z     vdW  Elec       q    Type
REMARK                         _______ _______ _______ _____ _____    ______ ____
ROOT
ATOM      1  C   UNL     1       2.015   6.411  19.759  0.00  0.00    +0.000 A 
ATOM      2  C   UNL     1       1.168   5.357  20.067  0.00  0.00    +0.000 A 
ATOM      3  C   UNL     1       1.672   4.169  19.504  0.00  0.00    +0.000 A 
ATOM      4  C   UNL     1       1.195   2.847  19.425  0.00  0.00    +0.000 A 
ATOM      5  C   UNL     1       2.011   1.831  18.952  0.00  0.00    +0.000 A 
ATOM      6  C   UNL     1       3.305   2.128  18.533  0.00  0.00    +0.000 A 
ATOM      7  C   UNL     1       3.776   3.454  18.508  0.00  0.00    +0.000 A 
ATOM      8  C   UNL     1       2.928   4.477  18.978  0.00  0.00    +0.000 A 
ATOM      9  N   UNL     1       3.046   5.873  18.996  0.00  0.00    +0.000 N 
ENDROOT
BRANCH   1  11
ATOM     10  N   UNL     1       1.348   8.690  19.344  0.00  0.00    +0.000 N 
ATOM     11  C   UNL     1       1.774   7.753  20.250  0.00  0.00    +0.000 C 
ATOM     12  O   UNL     1       1.869   8.019  21.446  0.00  0.00    +0.000 OA
ATOM     13  H   UNL     1       1.086   8.408  18.416  0.00  0.00    +0.000 HD
BRANCH  10  14
ATOM     14  C   UNL     1       0.933  10.000  19.790  0.00  0.00    +0.000 C 
BRANCH  14  17
ATOM     15  C   UNL     1      -1.947  10.329  17.296  0.00  0.00    +0.000 A 
ATOM     16  C   UNL     1      -0.716   9.983  17.867  0.00  0.00    +0.000 A 
ATOM     17  C   UNL     1      -0.348  10.455  19.136  0.00  0.00    +0.000 A 
ATOM     18  C   UNL     1      -1.217  11.328  19.801  0.00  0.00    +0.000 A 
ATOM     19  C   UNL     1      -2.453  11.677  19.245  0.00  0.00    +0.000 A 
ATOM     20  C   UNL     1      -2.815  11.173  17.992  0.00  0.00    +0.000 A 
BRANCH  15  22
ATOM     21  C   UNL     1      -3.258  10.314  15.307  0.00  0.00    +0.000 C 
ATOM     22  O   UNL     1      -2.192   9.766  16.072  0.00  0.00    +0.000 OA
ENDBRANCH  15  22
BRANCH  19  23
ATOM     23  O   UNL     1      -3.219  12.495  20.030  0.00  0.00    +0.000 OA
ATOM     24  C   UNL     1      -4.598  12.604  19.695  0.00  0.00    +0.000 C 
ENDBRANCH  19  23
ENDBRANCH  14  17
ENDBRANCH  10  14
ENDBRANCH   1  11
BRANCH   4  25
ATOM     25  O   UNL     1      -0.097   2.520  19.777  0.00  0.00    +0.000 OA
ATOM     26  H   UNL     1      -0.279   1.645  19.387  0.00  0.00    +0.000 HD
ENDBRANCH   4  25
BRANCH   9  27
ATOM     27  C   UNL     1       3.950   6.596  18.089  0.00  0.00    +0.000 C 
BRANCH  27  28
ATOM     28  C   UNL     1       5.215   5.915  17.620  0.00  0.00    +0.000 A 
ATOM     29  C   UNL     1       6.244   5.722  18.569  0.00  0.00    +0.000 A 
ATOM     30  C   UNL     1       7.479   5.187  18.205  0.00  0.00    +0.000 A 
ATOM     31  C   UNL     1       7.721   4.834  16.878  0.00  0.00    +0.000 A 
ATOM     32  C   UNL     1       6.717   5.028  15.921  0.00  0.00    +0.000 A 
ATOM     33  C   UNL     1       5.473   5.565  16.290  0.00  0.00    +0.000 A 
BRANCH  32  34
ATOM     34  C   UNL     1       6.962   4.664  14.498  0.00  0.00    +0.000 C 
ATOM     35  N   UNL     1       7.738   5.348  13.717  0.00  0.00    +0.000 NA
ATOM     36  N   UNL     1       6.365   3.568  13.957  0.00  0.00    +0.000 N 
ATOM     37  H   UNL     1       8.102   6.182  14.187  0.00  0.00    +0.000 HD
ATOM     38  H   UNL     1       6.234   2.768  14.570  0.00  0.00    +0.000 HD
ATOM     39  H   UNL     1       6.779   3.315  13.064  0.00  0.00    +0.000 HD
ENDBRANCH  32  34
ENDBRANCH  27  28
ENDBRANCH   9  27
TORSDOF 9
ENDMDL
MODEL 4
REMARK VINA RESULT:      -8.3      0.410      2.181
REMARK  Name = 
REMARK  11 active torsions:
REMARK  status: ('A' for Active; 'I' for Inactive)
REMARK    1  A    between atoms: C_1  and  O_2
REMARK    2  A    between atoms: O_2  and  C_3
REMARK    3  A    between atoms: C_5  and  C_6
REMARK    4  A    between atoms: C_6  and  N_7
REMARK    5  A    between atoms: C_8  and  C_10
REMARK    6  A    between atoms: C_13  and  O_14
REMARK    7  A    between atoms: N_19  and  C_20
REMARK    8  A    between atoms: C_20  and  C_21
REMARK    9  A    between atoms: C_25  and  C_26
REMARK   10  A    between atoms: C_31  and  O_32
REMARK   11  A    between atoms: O_32  and  C_33
REMARK                            x       y       z     vdW  Elec       q    Type
REMARK                         _______ _______ _______ _____ _____    ______ ____
ROOT
ATOM      1  C   UNL     1       3.213   7.098  17.984  0.00  0.00    +0.000 A 
ATOM      2  C   UNL     1       4.518   7.534  17.811  0.00  0.00    +0.000 A 
ATOM      3  C   UNL     1       5.292   6.495  17.260  0.00  0.00    +0.000 A 
ATOM      4  C   UNL     1       6.660   6.349  16.962  0.00  0.00    +0.000 A 
ATOM      5  C   UNL     1       7.111   5.252  16.244  0.00  0.00    +0.000 A 
ATOM      6  C   UNL     1       6.205   4.280  15.835  0.00  0.00    +0.000 A 
ATOM      7  C   UNL     1       4.848   4.348  16.201  0.00  0.00    +0.000 A 
ATOM      8  C   UNL     1       4.408   5.461  16.944  0.00  0.00    +0.000 A 
ATOM      9  N   UNL     1       3.180   5.780  17.540  0.00  0.00    +0.000 N 
ENDROOT
BRANCH   1  11
ATOM     10  N   UNL     1       1.652   8.899  17.623  0.00  0.00    +0.000 N 
ATOM     11  C   UNL     1       2.175   7.974  18.489  0.00  0.00    +0.000 C 
ATOM     12  O   UNL     1       1.726   7.838  19.625  0.00  0.00    +0.000 OA
ATOM     13  H   UNL     1       1.890   8.863  16.647  0.00  0.00    +0.000 HD
BRANCH  10  14
ATOM     14  C   UNL     1       0.507   9.692  18.006  0.00  0.00    +0.000 C 
BRANCH  14  17
ATOM     15  C   UNL     1       0.717  12.190  20.894  0.00  0.00    +0.000 A 
ATOM     16  C   UNL     1       0.300  11.126  20.084  0.00  0.00    +0.000 A 
ATOM     17  C   UNL     1       0.887  10.897  18.830  0.00  0.00    +0.000 A 
ATOM     18  C   UNL     1       1.865  11.790  18.378  0.00  0.00    +0.000 A 
ATOM     19  C   UNL     1       2.295  12.854  19.180  0.00  0.00    +0.000 A 
ATOM     20  C   UNL     1       1.719  13.049  20.438  0.00  0.00    +0.000 A 
BRANCH  15  22
ATOM     21  C   UNL     1      -0.567  11.100  22.579  0.00  0.00    +0.000 C 
ATOM     22  O   UNL     1       0.086  12.272  22.106  0.00  0.00    +0.000 OA
ENDBRANCH  15  22
BRANCH  19  23
ATOM     23  O   UNL     1       3.293  13.613  18.629  0.00  0.00    +0.000 OA
ATOM     24  C   UNL     1       3.893  14.594  19.467  0.00  0.00    +0.000 C 
ENDBRANCH  19  23
ENDBRANCH  14  17
ENDBRANCH  10  14
ENDBRANCH   1  11
BRANCH   4  25
ATOM     25  O   UNL     1       7.598   7.261  17.396  0.00  0.00    +0.000 OA
ATOM     26  H   UNL     1       7.104   8.001  17.795  0.00  0.00    +0.000 HD
ENDBRANCH   4  25
BRANCH   9  27
ATOM     27  C   UNL     1       2.184   4.753  17.879  0.00  0.00    +0.000 C 
BRANCH  27  28
ATOM     28  C   UNL     1       2.397   3.903  19.110  0.00  0.00    +0.000 A 
ATOM     29  C   UNL     1       1.545   4.125  20.214  0.00  0.00    +0.000 A 
ATOM     30  C   UNL     1       1.728   3.453  21.422  0.00  0.00    +0.000 A 
ATOM     31  C   UNL     1       2.773   2.541  21.559  0.00  0.00    +0.000 A 
ATOM     32  C   UNL     1       3.635   2.313  20.479  0.00  0.00    +0.000 A 
ATOM     33  C   UNL     1       3.448   2.990  19.262  0.00  0.00    +0.000 A 
BRANCH  32  34
ATOM     34  C   UNL     1       4.761   1.348  20.611  0.00  0.00    +0.000 C 
ATOM     35  N   UNL     1       5.554   1.324  21.637  0.00  0.00    +0.000 NA
ATOM     36  N   UNL     1       4.998   0.432  19.636  0.00  0.00    +0.000 N 
ATOM     37  H   UNL     1       5.338   2.078  22.296  0.00  0.00    +0.000 HD
ATOM     38  H   UNL     1       4.187   0.054  19.154  0.00  0.00    +0.000 HD
ATOM     39  H   UNL     1       5.643  -0.290  19.945  0.00  0.00    +0.000 HD
ENDBRANCH  32  34
ENDBRANCH  27  28
ENDBRANCH   9  27
TORSDOF 9
ENDMDL
MODEL 5
REMARK VINA RESULT:      -8.2      2.827      9.641
REMARK  Name = 
REMARK  11 active torsions:
REMARK  status: ('A' for Active; 'I' for Inactive)
REMARK    1  A    between atoms: C_1  and  O_2
REMARK    2  A    between atoms: O_2  and  C_3
REMARK    3  A    between atoms: C_5  and  C_6
REMARK    4  A    between atoms: C_6  and  N_7
REMARK    5  A    between atoms: C_8  and  C_10
REMARK    6  A    between atoms: C_13  and  O_14
REMARK    7  A    between atoms: N_19  and  C_20
REMARK    8  A    between atoms: C_20  and  C_21
REMARK    9  A    between atoms: C_25  and  C_26
REMARK   10  A    between atoms: C_31  and  O_32
REMARK   11  A    between atoms: O_32  and  C_33
REMARK                            x       y       z     vdW  Elec       q    Type
REMARK                         _______ _______ _______ _____ _____    ______ ____
ROOT
ATOM      1  C   UNL     1       0.915   9.946  19.471  0.00  0.00    +0.000 A 
ATOM      2  C   UNL     1       0.886   9.505  20.785  0.00  0.00    +0.000 A 
ATOM      3  C   UNL     1      -0.015  10.292  21.526  0.00  0.00    +0.000 A 
ATOM      4  C   UNL     1      -0.372  10.350  22.886  0.00  0.00    +0.000 A 
ATOM      5  C   UNL     1      -1.444  11.125  23.302  0.00  0.00    +0.000 A 
ATOM      6  C   UNL     1      -2.159  11.866  22.365  0.00  0.00    +0.000 A 
ATOM      7  C   UNL     1      -1.767  11.905  21.014  0.00  0.00    +0.000 A 
ATOM      8  C   UNL     1      -0.665  11.124  20.611  0.00  0.00    +0.000 A 
ATOM      9  N   UNL     1       0.028  11.015  19.399  0.00  0.00    +0.000 N 
ENDROOT
BRANCH   1  11
ATOM     10  N   UNL     1       2.081   7.985  18.692  0.00  0.00    +0.000 N 
ATOM     11  C   UNL     1       1.721   9.288  18.462  0.00  0.00    +0.000 C 
ATOM     12  O   UNL     1       2.003   9.851  17.406  0.00  0.00    +0.000 OA
ATOM     13  H   UNL     1       1.677   7.482  19.462  0.00  0.00    +0.000 HD
BRANCH  10  14
ATOM     14  C   UNL     1       2.742   7.218  17.661  0.00  0.00    +0.000 C 
BRANCH  14  17
ATOM     15  C   UNL     1       5.388   4.782  18.960  0.00  0.00    +0.000 A 
ATOM     16  C   UNL     1       4.787   5.903  18.374  0.00  0.00    +0.000 A 
ATOM     17  C   UNL     1       3.396   5.969  18.198  0.00  0.00    +0.000 A 
ATOM     18  C   UNL     1       2.623   4.864  18.570  0.00  0.00    +0.000 A 
ATOM     19  C   UNL     1       3.211   3.740  19.162  0.00  0.00    +0.000 A 
ATOM     20  C   UNL     1       4.594   3.704  19.357  0.00  0.00    +0.000 A 
BRANCH  15  22
ATOM     21  C   UNL     1       7.538   4.692  17.937  0.00  0.00    +0.000 C 
ATOM     22  O   UNL     1       6.747   4.869  19.106  0.00  0.00    +0.000 OA
ENDBRANCH  15  22
BRANCH  19  23
ATOM     23  O   UNL     1       2.326   2.758  19.522  0.00  0.00    +0.000 OA
ATOM     24  C   UNL     1       0.968   2.944  19.141  0.00  0.00    +0.000 C 
ENDBRANCH  19  23
ENDBRANCH  14  17
ENDBRANCH  10  14
ENDBRANCH   1  11
BRANCH   4  25
ATOM     25  O   UNL     1       0.343   9.675  23.853  0.00  0.00    +0.000 OA
ATOM     26  H   UNL     1      -0.276   9.497  24.584  0.00  0.00    +0.000 HD
ENDBRANCH   4  25
BRANCH   9  27
ATOM     27  C   UNL     1      -0.005  12.074  18.379  0.00  0.00    +0.000 C 
BRANCH  27  28
ATOM     28  C   UNL     1       0.757  13.355  18.626  0.00  0.00    +0.000 A 
ATOM     29  C   UNL     1       0.011  14.550  18.731  0.00  0.00    +0.000 A 
ATOM     30  C   UNL     1       0.636  15.789  18.868  0.00  0.00    +0.000 A 
ATOM     31  C   UNL     1       2.027  15.867  18.898  0.00  0.00    +0.000 A 
ATOM     32  C   UNL     1       2.785  14.694  18.785  0.00  0.00    +0.000 A 
ATOM     33  C   UNL     1       2.153  13.446  18.650  0.00  0.00    +0.000 A 
BRANCH  32  34
ATOM     34  C   UNL     1       4.272  14.761  18.807  0.00  0.00    +0.000 C 
ATOM     35  N   UNL     1       4.950  15.044  19.875  0.00  0.00    +0.000 NA
ATOM     36  N   UNL     1       4.988  14.515  17.678  0.00  0.00    +0.000 N 
ATOM     37  H   UNL     1       4.335  15.266  20.663  0.00  0.00    +0.000 HD
ATOM     38  H   UNL     1       4.616  13.813  17.043  0.00  0.00    +0.000 HD
ATOM     39  H   UNL     1       5.975  14.381  17.879  0.00  0.00    +0.000 HD
ENDBRANCH  32  34
ENDBRANCH  27  28
ENDBRANCH   9  27
TORSDOF 9
ENDMDL
MODEL 6
REMARK VINA RESULT:      -8.2      2.871      9.905
REMARK  Name = 
REMARK  11 active torsions:
REMARK  status: ('A' for Active; 'I' for Inactive)
REMARK    1  A    between atoms: C_1  and  O_2
REMARK    2  A    between atoms: O_2  and  C_3
REMARK    3  A    between atoms: C_5  and  C_6
REMARK    4  A    between atoms: C_6  and  N_7
REMARK    5  A    between atoms: C_8  and  C_10
REMARK    6  A    between atoms: C_13  and  O_14
REMARK    7  A    between atoms: N_19  and  C_20
REMARK    8  A    between atoms: C_20  and  C_21
REMARK    9  A    between atoms: C_25  and  C_26
REMARK   10  A    between atoms: C_31  and  O_32
REMARK   11  A    between atoms: O_32  and  C_33
REMARK                            x       y       z     vdW  Elec       q    Type
REMARK                         _______ _______ _______ _____ _____    ______ ____
ROOT
ATOM      1  C   UNL     1       0.936   9.901  19.583  0.00  0.00    +0.000 A 
ATOM      2  C   UNL     1       0.706   9.366  20.841  0.00  0.00    +0.000 A 
ATOM      3  C   UNL     1      -0.118  10.237  21.580  0.00  0.00    +0.000 A 
ATOM      4  C   UNL     1      -0.590  10.245  22.905  0.00  0.00    +0.000 A 
ATOM      5  C   UNL     1      -1.551  11.160  23.306  0.00  0.00    +0.000 A 
ATOM      6  C   UNL     1      -2.036  12.090  22.391  0.00  0.00    +0.000 A 
ATOM      7  C   UNL     1      -1.514  12.171  21.087  0.00  0.00    +0.000 A 
ATOM      8  C   UNL     1      -0.526  11.243  20.701  0.00  0.00    +0.000 A 
ATOM      9  N   UNL     1       0.254  11.113  19.544  0.00  0.00    +0.000 N 
ENDROOT
BRANCH   1  11
ATOM     10  N   UNL     1       2.180   7.949  18.911  0.00  0.00    +0.000 N 
ATOM     11  C   UNL     1       1.714   9.197  18.583  0.00  0.00    +0.000 C 
ATOM     12  O   UNL     1       1.879   9.665  17.459  0.00  0.00    +0.000 OA
ATOM     13  H   UNL     1       1.869   7.503  19.755  0.00  0.00    +0.000 HD
BRANCH  10  14
ATOM     14  C   UNL     1       2.820   7.125  17.911  0.00  0.00    +0.000 C 
BRANCH  14  17
ATOM     15  C   UNL     1       3.133   3.607  19.376  0.00  0.00    +0.000 A 
ATOM     16  C   UNL     1       2.587   4.815  18.924  0.00  0.00    +0.000 A 
ATOM     17  C   UNL     1       3.412   5.865  18.493  0.00  0.00    +0.000 A 
ATOM     18  C   UNL     1       4.799   5.702  18.577  0.00  0.00    +0.000 A 
ATOM     19  C   UNL     1       5.357   4.499  19.022  0.00  0.00    +0.000 A 
ATOM     20  C   UNL     1       4.520   3.452  19.419  0.00  0.00    +0.000 A 
BRANCH  15  22
ATOM     21  C   UNL     1       0.861   2.889  19.351  0.00  0.00    +0.000 C 
ATOM     22  O   UNL     1       2.213   2.656  19.728  0.00  0.00    +0.000 OA
ENDBRANCH  15  22
BRANCH  19  23
ATOM     23  O   UNL     1       6.726   4.465  19.002  0.00  0.00    +0.000 OA
ATOM     24  C   UNL     1       7.359   4.732  17.756  0.00  0.00    +0.000 C 
ENDBRANCH  19  23
ENDBRANCH  14  17
ENDBRANCH  10  14
ENDBRANCH   1  11
BRANCH   4  25
ATOM     25  O   UNL     1      -0.096   9.378  23.856  0.00  0.00    +0.000 OA
ATOM     26  H   UNL     1      -0.470   9.659  24.711  0.00  0.00    +0.000 HD
ENDBRANCH   4  25
BRANCH   9  27
ATOM     27  C   UNL     1       0.498  12.241  18.633  0.00  0.00    +0.000 C 
BRANCH  27  28
ATOM     28  C   UNL     1       1.622  13.203  18.942  0.00  0.00    +0.000 A 
ATOM     29  C   UNL     1       2.660  13.323  17.992  0.00  0.00    +0.000 A 
ATOM     30  C   UNL     1       3.781  14.115  18.235  0.00  0.00    +0.000 A 
ATOM     31  C   UNL     1       3.897  14.807  19.439  0.00  0.00    +0.000 A 
ATOM     32  C   UNL     1       2.883  14.693  20.399  0.00  0.00    +0.000 A 
ATOM     33  C   UNL     1       1.753  13.896  20.151  0.00  0.00    +0.000 A 
BRANCH  32  34
ATOM     34  C   UNL     1       2.994  15.419  21.693  0.00  0.00    +0.000 C 
ATOM     35  N   UNL     1       3.454  14.870  22.774  0.00  0.00    +0.000 NA
ATOM     36  N   UNL     1       2.610  16.720  21.787  0.00  0.00    +0.000 N 
ATOM     37  H   UNL     1       3.669  13.879  22.629  0.00  0.00    +0.000 HD
ATOM     38  H   UNL     1       2.771  17.305  20.971  0.00  0.00    +0.000 HD
ATOM     39  H   UNL     1       2.935  17.148  22.648  0.00  0.00    +0.000 HD
ENDBRANCH  32  34
ENDBRANCH  27  28
ENDBRANCH   9  27
TORSDOF 9
ENDMDL
MODEL 7
REMARK VINA RESULT:      -8.1      2.933     10.190
REMARK  Name = 
REMARK  11 active torsions:
REMARK  status: ('A' for Active; 'I' for Inactive)
REMARK    1  A    between atoms: C_1  and  O_2
REMARK    2  A    between atoms: O_2  and  C_3
REMARK    3  A    between atoms: C_5  and  C_6
REMARK    4  A    between atoms: C_6  and  N_7
REMARK    5  A    between atoms: C_8  and  C_10
REMARK    6  A    between atoms: C_13  and  O_14
REMARK    7  A    between atoms: N_19  and  C_20
REMARK    8  A    between atoms: C_20  and  C_21
REMARK    9  A    between atoms: C_25  and  C_26
REMARK   10  A    between atoms: C_31  and  O_32
REMARK   11  A    between atoms: O_32  and  C_33
REMARK                            x       y       z     vdW  Elec       q    Type
REMARK                         _______ _______ _______ _____ _____    ______ ____
ROOT
ATOM      1  C   UNL     1       0.917   9.942  19.442  0.00  0.00    +0.000 A 
ATOM      2  C   UNL     1       0.825   9.516  20.759  0.00  0.00    +0.000 A 
ATOM      3  C   UNL     1      -0.047  10.365  21.467  0.00  0.00    +0.000 A 
ATOM      4  C   UNL     1      -0.436  10.458  22.816  0.00  0.00    +0.000 A 
ATOM      5  C   UNL     1      -1.470  11.302  23.195  0.00  0.00    +0.000 A 
ATOM      6  C   UNL     1      -2.110  12.076  22.233  0.00  0.00    +0.000 A 
ATOM      7  C   UNL     1      -1.680  12.078  20.893  0.00  0.00    +0.000 A 
ATOM      8  C   UNL     1      -0.618  11.227  20.528  0.00  0.00    +0.000 A 
ATOM      9  N   UNL     1       0.101  11.063  19.337  0.00  0.00    +0.000 N 
ENDROOT
BRANCH   1  11
ATOM     10  N   UNL     1       2.209   8.003  18.826  0.00  0.00    +0.000 N 
ATOM     11  C   UNL     1       1.709   9.226  18.462  0.00  0.00    +0.000 C 
ATOM     12  O   UNL     1       1.856   9.662  17.322  0.00  0.00    +0.000 OA
ATOM     13  H   UNL     1       1.914   7.575  19.686  0.00  0.00    +0.000 HD
BRANCH  10  14
ATOM     14  C   UNL     1       2.866   7.163  17.851  0.00  0.00    +0.000 C 
BRANCH  14  17
ATOM     15  C   UNL     1       3.183   3.737  19.518  0.00  0.00    +0.000 A 
ATOM     16  C   UNL     1       2.642   4.934  19.032  0.00  0.00    +0.000 A 
ATOM     17  C   UNL     1       3.462   5.921  18.464  0.00  0.00    +0.000 A 
ATOM     18  C   UNL     1       4.845   5.708  18.441  0.00  0.00    +0.000 A 
ATOM     19  C   UNL     1       5.398   4.514  18.918  0.00  0.00    +0.000 A 
ATOM     20  C   UNL     1       4.562   3.529  19.454  0.00  0.00    +0.000 A 
BRANCH  15  22
ATOM     21  C   UNL     1       0.891   3.148  19.793  0.00  0.00    +0.000 C 
ATOM     22  O   UNL     1       2.265   2.848  20.009  0.00  0.00    +0.000 OA
ENDBRANCH  15  22
BRANCH  19  23
ATOM     23  O   UNL     1       6.758   4.423  18.784  0.00  0.00    +0.000 OA
ATOM     24  C   UNL     1       7.292   4.627  17.481  0.00  0.00    +0.000 C 
ENDBRANCH  19  23
ENDBRANCH  14  17
ENDBRANCH  10  14
ENDBRANCH   1  11
BRANCH   4  25
ATOM     25  O   UNL     1       0.208   9.750  23.808  0.00  0.00    +0.000 OA
ATOM     26  H   UNL     1      -0.429   9.090  24.138  0.00  0.00    +0.000 HD
ENDBRANCH   4  25
BRANCH   9  27
ATOM     27  C   UNL     1       0.162  12.112  18.307  0.00  0.00    +0.000 C 
BRANCH  27  28
ATOM     28  C   UNL     1       1.160  13.236  18.464  0.00  0.00    +0.000 A 
ATOM     29  C   UNL     1       2.523  12.934  18.246  0.00  0.00    +0.000 A 
ATOM     30  C   UNL     1       3.521  13.884  18.457  0.00  0.00    +0.000 A 
ATOM     31  C   UNL     1       3.184  15.162  18.898  0.00  0.00    +0.000 A 
ATOM     32  C   UNL     1       1.839  15.478  19.129  0.00  0.00    +0.000 A 
ATOM     33  C   UNL     1       0.834  14.520  18.914  0.00  0.00    +0.000 A 
BRANCH  32  34
ATOM     34  C   UNL     1       1.461  16.836  19.607  0.00  0.00    +0.000 C 
ATOM     35  N   UNL     1       1.777  17.922  18.972  0.00  0.00    +0.000 NA
ATOM     36  N   UNL     1       0.749  16.987  20.756  0.00  0.00    +0.000 N 
ATOM     37  H   UNL     1       2.355  17.721  18.151  0.00  0.00    +0.000 HD
ATOM     38  H   UNL     1       0.059  16.271  20.965  0.00  0.00    +0.000 HD
ATOM     39  H   UNL     1       0.379  17.929  20.848  0.00  0.00    +0.000 HD
ENDBRANCH  32  34
ENDBRANCH  27  28
ENDBRANCH   9  27
TORSDOF 9
ENDMDL
MODEL 8
REMARK VINA RESULT:      -8.1      4.771      8.595
REMARK  Name = 
REMARK  11 active torsions:
REMARK  status: ('A' for Active; 'I' for Inactive)
REMARK    1  A    between atoms: C_1  and  O_2
REMARK    2  A    between atoms: O_2  and  C_3
REMARK    3  A    between atoms: C_5  and  C_6
REMARK    4  A    between atoms: C_6  and  N_7
REMARK    5  A    between atoms: C_8  and  C_10
REMARK    6  A    between atoms: C_13  and  O_14
REMARK    7  A    between atoms: N_19  and  C_20
REMARK    8  A    between atoms: C_20  and  C_21
REMARK    9  A    between atoms: C_25  and  C_26
REMARK   10  A    between atoms: C_31  and  O_32
REMARK   11  A    between atoms: O_32  and  C_33
REMARK                            x       y       z     vdW  Elec       q    Type
REMARK                         _______ _______ _______ _____ _____    ______ ____
ROOT
ATOM      1  C   UNL     1       0.170  10.367  21.278  0.00  0.00    +0.000 A 
ATOM      2  C   UNL     1       0.758   9.129  21.492  0.00  0.00    +0.000 A 
ATOM      3  C   UNL     1       1.311   8.656  20.286  0.00  0.00    +0.000 A 
ATOM      4  C   UNL     1       1.936   7.455  19.904  0.00  0.00    +0.000 A 
ATOM      5  C   UNL     1       2.550   7.343  18.666  0.00  0.00    +0.000 A 
ATOM      6  C   UNL     1       2.529   8.423  17.789  0.00  0.00    +0.000 A 
ATOM      7  C   UNL     1       1.829   9.603  18.103  0.00  0.00    +0.000 A 
ATOM      8  C   UNL     1       1.196   9.694  19.359  0.00  0.00    +0.000 A 
ATOM      9  N   UNL     1       0.357  10.659  19.930  0.00  0.00    +0.000 N 
ENDROOT
BRANCH   1  11
ATOM     10  N   UNL     1      -0.622  12.465  22.161  0.00  0.00    +0.000 N 
ATOM     11  C   UNL     1      -0.438  11.120  22.356  0.00  0.00    +0.000 C 
ATOM     12  O   UNL     1      -0.847  10.560  23.371  0.00  0.00    +0.000 OA
ATOM     13  H   UNL     1      -0.465  12.867  21.253  0.00  0.00    +0.000 HD
BRANCH  10  14
ATOM     14  C   UNL     1      -1.367  13.246  23.121  0.00  0.00    +0.000 C 
BRANCH  14  17
ATOM     15  C   UNL     1      -5.023  13.017  22.025  0.00  0.00    +0.000 A 
ATOM     16  C   UNL     1      -3.724  12.656  22.402  0.00  0.00    +0.000 A 
ATOM     17  C   UNL     1      -2.736  13.630  22.617  0.00  0.00    +0.000 A 
ATOM     18  C   UNL     1      -3.062  14.972  22.392  0.00  0.00    +0.000 A 
ATOM     19  C   UNL     1      -4.358  15.346  22.021  0.00  0.00    +0.000 A 
ATOM     20  C   UNL     1      -5.337  14.365  21.840  0.00  0.00    +0.000 A 
BRANCH  15  22
ATOM     21  C   UNL     1      -7.213  12.274  21.452  0.00  0.00    +0.000 C 
ATOM     22  O   UNL     1      -5.894  11.969  21.888  0.00  0.00    +0.000 OA
ENDBRANCH  15  22
BRANCH  19  23
ATOM     23  O   UNL     1      -4.544  16.697  21.887  0.00  0.00    +0.000 OA
ATOM     24  C   UNL     1      -4.677  17.450  23.087  0.00  0.00    +0.000 C 
ENDBRANCH  19  23
ENDBRANCH  14  17
ENDBRANCH  10  14
ENDBRANCH   1  11
BRANCH   4  25
ATOM     25  O   UNL     1       1.932   6.344  20.720  0.00  0.00    +0.000 OA
ATOM     26  H   UNL     1       2.390   5.636  20.230  0.00  0.00    +0.000 HD
ENDBRANCH   4  25
BRANCH   9  27
ATOM     27  C   UNL     1      -0.408  11.615  19.115  0.00  0.00    +0.000 C 
BRANCH  27  28
ATOM     28  C   UNL     1      -1.674  11.150  18.435  0.00  0.00    +0.000 A 
ATOM     29  C   UNL     1      -1.562  10.112  17.483  0.00  0.00    +0.000 A 
ATOM     30  C   UNL     1      -2.661   9.682  16.741  0.00  0.00    +0.000 A 
ATOM     31  C   UNL     1      -3.905  10.283  16.928  0.00  0.00    +0.000 A 
ATOM     32  C   UNL     1      -4.035  11.321  17.860  0.00  0.00    +0.000 A 
ATOM     33  C   UNL     1      -2.926  11.751  18.608  0.00  0.00    +0.000 A 
BRANCH  32  34
ATOM     34  C   UNL     1      -5.354  11.979  18.066  0.00  0.00    +0.000 C 
ATOM     35  N   UNL     1      -5.477  13.214  18.442  0.00  0.00    +0.000 NA
ATOM     36  N   UNL     1      -6.507  11.289  17.858  0.00  0.00    +0.000 N 
ATOM     37  H   UNL     1      -4.565  13.642  18.627  0.00  0.00    +0.000 HD
ATOM     38  H   UNL     1      -6.501  10.604  17.106  0.00  0.00    +0.000 HD
ATOM     39  H   UNL     1      -7.314  11.905  17.823  0.00  0.00    +0.000 HD
ENDBRANCH  32  34
ENDBRANCH  27  28
ENDBRANCH   9  27
TORSDOF 9
ENDMDL
MODEL 9
REMARK VINA RESULT:      -8.1      2.906      9.892
REMARK  Name = 
REMARK  11 active torsions:
REMARK  status: ('A' for Active; 'I' for Inactive)
REMARK    1  A    between atoms: C_1  and  O_2
REMARK    2  A    between atoms: O_2  and  C_3
REMARK    3  A    between atoms: C_5  and  C_6
REMARK    4  A    between atoms: C_6  and  N_7
REMARK    5  A    between atoms: C_8  and  C_10
REMARK    6  A    between atoms: C_13  and  O_14
REMARK    7  A    between atoms: N_19  and  C_20
REMARK    8  A    between atoms: C_20  and  C_21
REMARK    9  A    between atoms: C_25  and  C_26
REMARK   10  A    between atoms: C_31  and  O_32
REMARK   11  A    between atoms: O_32  and  C_33
REMARK                            x       y       z     vdW  Elec       q    Type
REMARK                         _______ _______ _______ _____ _____    ______ ____
ROOT
ATOM      1  C   UNL     1       0.421   9.993  19.502  0.00  0.00    +0.000 A 
ATOM      2  C   UNL     1       0.374   9.575  20.824  0.00  0.00    +0.000 A 
ATOM      3  C   UNL     1      -0.429  10.459  21.569  0.00  0.00    +0.000 A 
ATOM      4  C   UNL     1      -0.751  10.570  22.934  0.00  0.00    +0.000 A 
ATOM      5  C   UNL     1      -1.733  11.454  23.357  0.00  0.00    +0.000 A 
ATOM      6  C   UNL     1      -2.388  12.250  22.423  0.00  0.00    +0.000 A 
ATOM      7  C   UNL     1      -2.021  12.232  21.065  0.00  0.00    +0.000 A 
ATOM      8  C   UNL     1      -1.011  11.339  20.654  0.00  0.00    +0.000 A 
ATOM      9  N   UNL     1      -0.356  11.145  19.430  0.00  0.00    +0.000 N 
ENDROOT
BRANCH   1  11
ATOM     10  N   UNL     1       2.239   8.533  18.890  0.00  0.00    +0.000 N 
ATOM     11  C   UNL     1       1.137   9.245  18.489  0.00  0.00    +0.000 C 
ATOM     12  O   UNL     1       0.726   9.186  17.332  0.00  0.00    +0.000 OA
ATOM     13  H   UNL     1       2.442   8.434  19.869  0.00  0.00    +0.000 HD
BRANCH  10  14
ATOM     14  C   UNL     1       2.902   7.638  17.972  0.00  0.00    +0.000 C 
BRANCH  14  17
ATOM     15  C   UNL     1       2.499   4.242  19.682  0.00  0.00    +0.000 A 
ATOM     16  C   UNL     1       2.221   5.521  19.186  0.00  0.00    +0.000 A 
ATOM     17  C   UNL     1       3.226   6.303  18.596  0.00  0.00    +0.000 A 
ATOM     18  C   UNL     1       4.531   5.799  18.564  0.00  0.00    +0.000 A 
ATOM     19  C   UNL     1       4.821   4.520  19.052  0.00  0.00    +0.000 A 
ATOM     20  C   UNL     1       3.801   3.743  19.609  0.00  0.00    +0.000 A 
BRANCH  15  22
ATOM     21  C   UNL     1       1.636   2.771  21.347  0.00  0.00    +0.000 C 
ATOM     22  O   UNL     1       1.417   3.576  20.194  0.00  0.00    +0.000 OA
ENDBRANCH  15  22
BRANCH  19  23
ATOM     23  O   UNL     1       6.129   4.139  18.907  0.00  0.00    +0.000 OA
ATOM     24  C   UNL     1       6.838   4.677  17.797  0.00  0.00    +0.000 C 
ENDBRANCH  19  23
ENDBRANCH  14  17
ENDBRANCH  10  14
ENDBRANCH   1  11
BRANCH   4  25
ATOM     25  O   UNL     1      -0.089   9.840  23.897  0.00  0.00    +0.000 OA
ATOM     26  H   UNL     1      -0.710   9.730  24.641  0.00  0.00    +0.000 HD
ENDBRANCH   4  25
BRANCH   9  27
ATOM     27  C   UNL     1      -0.304  12.188  18.395  0.00  0.00    +0.000 C 
BRANCH  27  28
ATOM     28  C   UNL     1       0.510  13.435  18.651  0.00  0.00    +0.000 A 
ATOM     29  C   UNL     1      -0.187  14.657  18.778  0.00  0.00    +0.000 A 
ATOM     30  C   UNL     1       0.487  15.869  18.923  0.00  0.00    +0.000 A 
ATOM     31  C   UNL     1       1.880  15.892  18.942  0.00  0.00    +0.000 A 
ATOM     32  C   UNL     1       2.591  14.692  18.807  0.00  0.00    +0.000 A 
ATOM     33  C   UNL     1       1.910  13.472  18.663  0.00  0.00    +0.000 A 
BRANCH  32  34
ATOM     34  C   UNL     1       4.079  14.700  18.817  0.00  0.00    +0.000 C 
ATOM     35  N   UNL     1       4.778  14.896  19.892  0.00  0.00    +0.000 NA
ATOM     36  N   UNL     1       4.775  14.492  17.667  0.00  0.00    +0.000 N 
ATOM     37  H   UNL     1       4.179  15.096  20.698  0.00  0.00    +0.000 HD
ATOM     38  H   UNL     1       4.371  13.842  16.998  0.00  0.00    +0.000 HD
ATOM     39  H   UNL     1       5.758  14.308  17.849  0.00  0.00    +0.000 HD
ENDBRANCH  32  34
ENDBRANCH  27  28
ENDBRANCH   9  27
TORSDOF 9
ENDMDL
