MODEL 1
REMARK VINA RESULT:      -7.7      0.000      0.000
REMARK  Name = 
REMARK  6 active torsions:
REMARK  status: ('A' for Active; 'I' for Inactive)
REMARK    1  A    between atoms: C_1  and  C_2
REMARK    2  A    between atoms: C_2  and  C_3
REMARK    3  A    between atoms: C_4  and  C_5
REMARK    4  A    between atoms: C_8  and  O_9
REMARK    5  A    between atoms: C_11  and  C_12
REMARK    6  A    between atoms: C_16  and  C_18
REMARK                            x       y       z     vdW  Elec       q    Type
REMARK                         _______ _______ _______ _____ _____    ______ ____
ROOT
ATOM      1  C   UNL     1      -2.582  10.332  16.983  0.00  0.00    +0.000 A 
ATOM      2  C   UNL     1      -3.558  11.244  17.476  0.00  0.00    +0.000 A 
ATOM      3  C   UNL     1      -4.845  11.649  16.855  0.00  0.00    +0.000 C 
ATOM      4  N   UNL     1      -3.214  11.764  18.659  0.00  0.00    +0.000 NA
ATOM      5  N   UNL     1      -1.988  11.239  18.913  0.00  0.00    +0.000 N 
ATOM      6  C   UNL     1      -1.193  11.505  20.032  0.00  0.00    +0.000 A 
ATOM      7  C   UNL     1       0.012  10.935  20.137  0.00  0.00    +0.000 A 
ATOM      8  C   UNL     1       0.397   9.990  19.029  0.00  0.00    +0.000 A 
ATOM      9  N   UNL     1      -0.338   9.751  17.979  0.00  0.00    +0.000 NA
ATOM     10  C   UNL     1      -1.557  10.376  17.913  0.00  0.00    +0.000 A 
ENDROOT
BRANCH   8  11
ATOM     11  C   UNL     1       1.757   9.306  19.195  0.00  0.00    +0.000 C 
ATOM     12  C   UNL     1       2.234   8.662  17.891  0.00  0.00    +0.000 C 
ATOM     13  C   UNL     1       1.890   7.190  18.043  0.00  0.00    +0.000 C 
ATOM     14  N   UNL     1       2.006   6.950  19.467  0.00  0.00    +0.000 N 
ATOM     15  C   UNL     1       2.221   5.732  20.104  0.00  0.00    +0.000 C 
ATOM     16  O   UNL     1       2.401   5.662  21.320  0.00  0.00    +0.000 OA
ATOM     17  C   UNL     1       1.791   8.172  20.223  0.00  0.00    +0.000 C 
BRANCH  15  18
ATOM     18  C   UNL     1       2.266   4.468  19.294  0.00  0.00    +0.000 A 
ATOM     19  C   UNL     1       1.161   3.620  19.301  0.00  0.00    +0.000 A 
ATOM     20  C   UNL     1       1.201   2.470  18.515  0.00  0.00    +0.000 A 
ATOM     21  C   UNL     1       2.331   2.206  17.748  0.00  0.00    +0.000 A 
ATOM     22  C   UNL     1       3.384   3.102  17.801  0.00  0.00    +0.000 A 
ATOM     23  N   UNL     1       3.378   4.225  18.551  0.00  0.00    +0.000 NA
ENDBRANCH  15  18
ENDBRANCH   8  11
BRANCH   1  25
ATOM     24  C   UNL     1      -3.097  10.305  14.528  0.00  0.00    +0.000 C 
ATOM     25  C   UNL     1      -2.641   9.511  15.741  0.00  0.00    +0.000 C 
ENDBRANCH   1  25
BRANCH   6  26
ATOM     26  O   UNL     1      -1.674  12.358  21.013  0.00  0.00    +0.000 OA
ATOM     27  H   UNL     1      -2.268  11.804  21.565  0.00  0.00    +0.000 HD
ENDBRANCH   6  26
TORSDOF 4
ENDMDL
MODEL 2
REMARK VINA RESULT:      -7.6      3.317      5.810
REMARK  Name = 
REMARK  6 active torsions:
REMARK  status: ('A' for Active; 'I' for Inactive)
REMARK    1  A    between atoms: C_1  and  C_2
REMARK    2  A    between atoms: C_2  and  C_3
REMARK    3  A    between atoms: C_4  and  C_5
REMARK    4  A    between atoms: C_8  and  O_9
REMARK    5  A    between atoms: C_11  and  C_12
REMARK    6  A    between atoms: C_16  and  C_18
REMARK                            x       y       z     vdW  Elec       q    Type
REMARK                         _______ _______ _______ _____ _____    ______ ____
ROOT
ATOM      1  C   UNL     1      -5.148  12.978  22.145  0.00  0.00    +0.000 A 
ATOM      2  C   UNL     1      -6.494  12.630  22.451  0.00  0.00    +0.000 A 
ATOM      3  C   UNL     1      -7.253  12.880  23.703  0.00  0.00    +0.000 C 
ATOM      4  N   UNL     1      -7.100  12.004  21.437  0.00  0.00    +0.000 NA
ATOM      5  N   UNL     1      -6.135  11.890  20.489  0.00  0.00    +0.000 N 
ATOM      6  C   UNL     1      -6.274  11.277  19.240  0.00  0.00    +0.000 A 
ATOM      7  C   UNL     1      -5.224  11.213  18.414  0.00  0.00    +0.000 A 
ATOM      8  C   UNL     1      -3.959  11.872  18.899  0.00  0.00    +0.000 A 
ATOM      9  N   UNL     1      -3.825  12.433  20.068  0.00  0.00    +0.000 NA
ATOM     10  C   UNL     1      -4.927  12.454  20.883  0.00  0.00    +0.000 A 
ENDROOT
BRANCH   8  11
ATOM     11  C   UNL     1      -2.786  11.836  17.916  0.00  0.00    +0.000 C 
ATOM     12  C   UNL     1      -2.635  10.461  17.260  0.00  0.00    +0.000 C 
ATOM     13  C   UNL     1      -1.521   9.784  18.041  0.00  0.00    +0.000 C 
ATOM     14  N   UNL     1      -0.667  10.880  18.451  0.00  0.00    +0.000 N 
ATOM     15  C   UNL     1       0.676  10.817  18.806  0.00  0.00    +0.000 C 
ATOM     16  O   UNL     1       1.330  11.834  19.045  0.00  0.00    +0.000 OA
ATOM     17  C   UNL     1      -1.414  12.124  18.533  0.00  0.00    +0.000 C 
BRANCH  15  18
ATOM     18  C   UNL     1       1.365   9.485  18.874  0.00  0.00    +0.000 A 
ATOM     19  C   UNL     1       2.115   9.054  17.782  0.00  0.00    +0.000 A 
ATOM     20  C   UNL     1       2.781   7.834  17.872  0.00  0.00    +0.000 A 
ATOM     21  C   UNL     1       2.683   7.087  19.042  0.00  0.00    +0.000 A 
ATOM     22  C   UNL     1       1.915   7.590  20.078  0.00  0.00    +0.000 A 
ATOM     23  N   UNL     1       1.258   8.767  20.024  0.00  0.00    +0.000 NA
ENDBRANCH  15  18
ENDBRANCH   8  11
BRANCH   1  25
ATOM     24  C   UNL     1      -3.215  12.834  23.737  0.00  0.00    +0.000 C 
ATOM     25  C   UNL     1      -4.183  13.737  22.990  0.00  0.00    +0.000 C 
ENDBRANCH   1  25
BRANCH   6  26
ATOM     26  O   UNL     1      -7.504  10.745  18.884  0.00  0.00    +0.000 OA
ATOM     27  H   UNL     1      -7.445  10.592  17.915  0.00  0.00    +0.000 HD
ENDBRANCH   6  26
TORSDOF 4
ENDMDL
MODEL 3
REMARK VINA RESULT:      -7.6      0.822      1.168
REMARK  Name = 
REMARK  6 active torsions:
REMARK  status: ('A' for Active; 'I' for Inactive)
REMARK    1  A    between atoms: C_1  and  C_2
REMARK    2  A    between atoms: C_2  and  C_3
REMARK    3  A    between atoms: C_4  and  C_5
REMARK    4  A    between atoms: C_8  and  O_9
REMARK    5  A    between atoms: C_11  and  C_12
REMARK    6  A    between atoms: C_16  and  C_18
REMARK                            x       y       z     vdW  Elec       q    Type
REMARK                         _______ _______ _______ _____ _____    ______ ____
ROOT
ATOM      1  C   UNL     1      -2.956  10.498  17.171  0.00  0.00    +0.000 A 
ATOM      2  C   UNL     1      -3.980  11.371  17.636  0.00  0.00    +0.000 A 
ATOM      3  C   UNL     1      -5.304  11.653  17.024  0.00  0.00    +0.000 C 
ATOM      4  N   UNL     1      -3.647  11.983  18.778  0.00  0.00    +0.000 NA
ATOM      5  N   UNL     1      -2.384  11.556  19.031  0.00  0.00    +0.000 N 
ATOM      6  C   UNL     1      -1.585  11.939  20.112  0.00  0.00    +0.000 A 
ATOM      7  C   UNL     1      -0.342  11.457  20.220  0.00  0.00    +0.000 A 
ATOM      8  C   UNL     1       0.082  10.476  19.159  0.00  0.00    +0.000 A 
ATOM      9  N   UNL     1      -0.658  10.127  18.143  0.00  0.00    +0.000 NA
ATOM     10  C   UNL     1      -1.917  10.665  18.071  0.00  0.00    +0.000 A 
ENDROOT
BRANCH   8  11
ATOM     11  C   UNL     1       1.488   9.895  19.330  0.00  0.00    +0.000 C 
ATOM     12  C   UNL     1       2.098   9.474  17.990  0.00  0.00    +0.000 C 
ATOM     13  C   UNL     1       1.886   7.971  17.929  0.00  0.00    +0.000 C 
ATOM     14  N   UNL     1       1.942   7.553  19.315  0.00  0.00    +0.000 N 
ATOM     15  C   UNL     1       2.232   6.285  19.803  0.00  0.00    +0.000 C 
ATOM     16  O   UNL     1       2.348   6.068  21.011  0.00  0.00    +0.000 OA
ATOM     17  C   UNL     1       1.569   8.641  20.205  0.00  0.00    +0.000 C 
BRANCH  15  18
ATOM     18  C   UNL     1       2.442   5.149  18.844  0.00  0.00    +0.000 A 
ATOM     19  C   UNL     1       3.606   5.114  18.080  0.00  0.00    +0.000 A 
ATOM     20  C   UNL     1       3.807   4.035  17.222  0.00  0.00    +0.000 A 
ATOM     21  C   UNL     1       2.850   3.028  17.155  0.00  0.00    +0.000 A 
ATOM     22  C   UNL     1       1.721   3.143  17.949  0.00  0.00    +0.000 A 
ATOM     23  N   UNL     1       1.496   4.174  18.790  0.00  0.00    +0.000 NA
ENDBRANCH  15  18
ENDBRANCH   8  11
BRANCH   1  25
ATOM     24  C   UNL     1      -2.976  10.366  14.667  0.00  0.00    +0.000 C 
ATOM     25  C   UNL     1      -2.985   9.603  15.981  0.00  0.00    +0.000 C 
ENDBRANCH   1  25
BRANCH   6  26
ATOM     26  O   UNL     1      -2.102  12.816  21.054  0.00  0.00    +0.000 OA
ATOM     27  H   UNL     1      -2.655  13.445  20.540  0.00  0.00    +0.000 HD
ENDBRANCH   6  26
TORSDOF 4
ENDMDL
MODEL 4
REMARK VINA RESULT:      -7.4      1.965      2.984
REMARK  Name = 
REMARK  6 active torsions:
REMARK  status: ('A' for Active; 'I' for Inactive)
REMARK    1  A    between atoms: C_1  and  C_2
REMARK    2  A    between atoms: C_2  and  C_3
REMARK    3  A    between atoms: C_4  and  C_5
REMARK    4  A    between atoms: C_8  and  O_9
REMARK    5  A    between atoms: C_11  and  C_12
REMARK    6  A    between atoms: C_16  and  C_18
REMARK                            x       y       z     vdW  Elec       q    Type
REMARK                         _______ _______ _______ _____ _____    ______ ____
ROOT
ATOM      1  C   UNL     1      -3.518  12.428  19.638  0.00  0.00    +0.000 A 
ATOM      2  C   UNL     1      -4.612  12.224  18.751  0.00  0.00    +0.000 A 
ATOM      3  C   UNL     1      -5.984  12.789  18.829  0.00  0.00    +0.000 C 
ATOM      4  N   UNL     1      -4.299  11.413  17.735  0.00  0.00    +0.000 NA
ATOM      5  N   UNL     1      -3.019  11.040  17.986  0.00  0.00    +0.000 N 
ATOM      6  C   UNL     1      -2.248  10.166  17.214  0.00  0.00    +0.000 A 
ATOM      7  C   UNL     1      -1.003   9.864  17.600  0.00  0.00    +0.000 A 
ATOM      8  C   UNL     1      -0.511  10.554  18.846  0.00  0.00    +0.000 A 
ATOM      9  N   UNL     1      -1.233  11.359  19.574  0.00  0.00    +0.000 NA
ATOM     10  C   UNL     1      -2.508  11.619  19.143  0.00  0.00    +0.000 A 
ENDROOT
BRANCH   8  11
ATOM     11  C   UNL     1       0.934  10.237  19.241  0.00  0.00    +0.000 C 
ATOM     12  C   UNL     1       1.829  10.038  18.014  0.00  0.00    +0.000 C 
ATOM     13  C   UNL     1       1.932   8.530  17.857  0.00  0.00    +0.000 C 
ATOM     14  N   UNL     1       1.839   8.030  19.214  0.00  0.00    +0.000 N 
ATOM     15  C   UNL     1       2.290   6.807  19.695  0.00  0.00    +0.000 C 
ATOM     16  O   UNL     1       2.245   6.528  20.895  0.00  0.00    +0.000 OA
ATOM     17  C   UNL     1       1.116   8.960  20.066  0.00  0.00    +0.000 C 
BRANCH  15  18
ATOM     18  C   UNL     1       2.878   5.805  18.744  0.00  0.00    +0.000 A 
ATOM     19  C   UNL     1       2.057   4.811  18.217  0.00  0.00    +0.000 A 
ATOM     20  C   UNL     1       2.605   3.910  17.306  0.00  0.00    +0.000 A 
ATOM     21  C   UNL     1       3.944   4.031  16.946  0.00  0.00    +0.000 A 
ATOM     22  C   UNL     1       4.687   5.048  17.520  0.00  0.00    +0.000 A 
ATOM     23  N   UNL     1       4.188   5.936  18.405  0.00  0.00    +0.000 NA
ENDBRANCH  15  18
ENDBRANCH   8  11
BRANCH   1  25
ATOM     24  C   UNL     1      -3.267  12.538  22.131  0.00  0.00    +0.000 C 
ATOM     25  C   UNL     1      -3.461  13.310  20.837  0.00  0.00    +0.000 C 
ENDBRANCH   1  25
BRANCH   6  26
ATOM     26  O   UNL     1      -2.794   9.628  16.059  0.00  0.00    +0.000 OA
ATOM     27  H   UNL     1      -3.697  10.012  16.001  0.00  0.00    +0.000 HD
ENDBRANCH   6  26
TORSDOF 4
ENDMDL
MODEL 5
REMARK VINA RESULT:      -7.4      1.801      8.097
REMARK  Name = 
REMARK  6 active torsions:
REMARK  status: ('A' for Active; 'I' for Inactive)
REMARK    1  A    between atoms: C_1  and  C_2
REMARK    2  A    between atoms: C_2  and  C_3
REMARK    3  A    between atoms: C_4  and  C_5
REMARK    4  A    between atoms: C_8  and  O_9
REMARK    5  A    between atoms: C_11  and  C_12
REMARK    6  A    between atoms: C_16  and  C_18
REMARK                            x       y       z     vdW  Elec       q    Type
REMARK                         _______ _______ _______ _____ _____    ______ ____
ROOT
ATOM      1  C   UNL     1       1.917   3.995  19.486  0.00  0.00    +0.000 A 
ATOM      2  C   UNL     1       2.662   3.412  18.422  0.00  0.00    +0.000 A 
ATOM      3  C   UNL     1       2.847   1.974  18.100  0.00  0.00    +0.000 C 
ATOM      4  N   UNL     1       3.242   4.333  17.644  0.00  0.00    +0.000 NA
ATOM      5  N   UNL     1       2.925   5.515  18.231  0.00  0.00    +0.000 N 
ATOM      6  C   UNL     1       3.326   6.783  17.800  0.00  0.00    +0.000 A 
ATOM      7  C   UNL     1       2.961   7.865  18.497  0.00  0.00    +0.000 A 
ATOM      8  C   UNL     1       2.081   7.615  19.695  0.00  0.00    +0.000 A 
ATOM      9  N   UNL     1       1.717   6.432  20.104  0.00  0.00    +0.000 NA
ATOM     10  C   UNL     1       2.135   5.357  19.364  0.00  0.00    +0.000 A 
ENDROOT
BRANCH   8  11
ATOM     11  C   UNL     1       1.629   8.870  20.447  0.00  0.00    +0.000 C 
ATOM     12  C   UNL     1       0.280   8.664  21.139  0.00  0.00    +0.000 C 
ATOM     13  C   UNL     1      -0.731   9.309  20.206  0.00  0.00    +0.000 C 
ATOM     14  N   UNL     1       0.006  10.392  19.587  0.00  0.00    +0.000 N 
ATOM     15  C   UNL     1      -0.513  11.538  18.997  0.00  0.00    +0.000 C 
ATOM     16  O   UNL     1       0.218  12.442  18.587  0.00  0.00    +0.000 OA
ATOM     17  C   UNL     1       1.433  10.113  19.575  0.00  0.00    +0.000 C 
BRANCH  15  18
ATOM     18  C   UNL     1      -2.001  11.704  18.878  0.00  0.00    +0.000 A 
ATOM     19  C   UNL     1      -2.652  11.193  17.758  0.00  0.00    +0.000 A 
ATOM     20  C   UNL     1      -4.036  11.320  17.678  0.00  0.00    +0.000 A 
ATOM     21  C   UNL     1      -4.727  11.942  18.713  0.00  0.00    +0.000 A 
ATOM     22  C   UNL     1      -4.000  12.422  19.790  0.00  0.00    +0.000 A 
ATOM     23  N   UNL     1      -2.659  12.316  19.898  0.00  0.00    +0.000 NA
ENDBRANCH  15  18
ENDBRANCH   8  11
BRANCH   1  25
ATOM     24  C   UNL     1       1.908   2.762  21.670  0.00  0.00    +0.000 C 
ATOM     25  C   UNL     1       1.087   3.301  20.510  0.00  0.00    +0.000 C 
ENDBRANCH   1  25
BRANCH   6  26
ATOM     26  O   UNL     1       4.098   6.892  16.654  0.00  0.00    +0.000 OA
ATOM     27  H   UNL     1       4.468   7.802  16.680  0.00  0.00    +0.000 HD
ENDBRANCH   6  26
TORSDOF 4
ENDMDL
MODEL 6
REMARK VINA RESULT:      -7.3      3.374      5.771
REMARK  Name = 
REMARK  6 active torsions:
REMARK  status: ('A' for Active; 'I' for Inactive)
REMARK    1  A    between atoms: C_1  and  C_2
REMARK    2  A    between atoms: C_2  and  C_3
REMARK    3  A    between atoms: C_4  and  C_5
REMARK    4  A    between atoms: C_8  and  O_9
REMARK    5  A    between atoms: C_11  and  C_12
REMARK    6  A    between atoms: C_16  and  C_18
REMARK                            x       y       z     vdW  Elec       q    Type
REMARK                         _______ _______ _______ _____ _____    ______ ____
ROOT
ATOM      1  C   UNL     1      -5.056  12.984  22.124  0.00  0.00    +0.000 A 
ATOM      2  C   UNL     1      -6.384  12.607  22.472  0.00  0.00    +0.000 A 
ATOM      3  C   UNL     1      -7.115  12.860  23.741  0.00  0.00    +0.000 C 
ATOM      4  N   UNL     1      -7.001  11.948  21.485  0.00  0.00    +0.000 NA
ATOM      5  N   UNL     1      -6.060  11.842  20.514  0.00  0.00    +0.000 N 
ATOM      6  C   UNL     1      -6.217  11.204  19.280  0.00  0.00    +0.000 A 
ATOM      7  C   UNL     1      -5.188  11.152  18.426  0.00  0.00    +0.000 A 
ATOM      8  C   UNL     1      -3.928  11.850  18.865  0.00  0.00    +0.000 A 
ATOM      9  N   UNL     1      -3.776  12.435  20.020  0.00  0.00    +0.000 NA
ATOM     10  C   UNL     1      -4.856  12.443  20.865  0.00  0.00    +0.000 A 
ENDROOT
BRANCH   8  11
ATOM     11  C   UNL     1      -2.780  11.826  17.851  0.00  0.00    +0.000 C 
ATOM     12  C   UNL     1      -2.622  10.448  17.204  0.00  0.00    +0.000 C 
ATOM     13  C   UNL     1      -1.475   9.800  17.960  0.00  0.00    +0.000 C 
ATOM     14  N   UNL     1      -0.630  10.915  18.338  0.00  0.00    +0.000 N 
ATOM     15  C   UNL     1       0.722  10.880  18.656  0.00  0.00    +0.000 C 
ATOM     16  O   UNL     1       1.363  11.911  18.868  0.00  0.00    +0.000 OA
ATOM     17  C   UNL     1      -1.399  12.146  18.428  0.00  0.00    +0.000 C 
BRANCH  15  18
ATOM     18  C   UNL     1       1.437   9.561  18.718  0.00  0.00    +0.000 A 
ATOM     19  C   UNL     1       1.365   8.805  19.885  0.00  0.00    +0.000 A 
ATOM     20  C   UNL     1       2.001   7.566  19.915  0.00  0.00    +0.000 A 
ATOM     21  C   UNL     1       2.680   7.119  18.787  0.00  0.00    +0.000 A 
ATOM     22  C   UNL     1       2.703   7.935  17.669  0.00  0.00    +0.000 A 
ATOM     23  N   UNL     1       2.098   9.140  17.606  0.00  0.00    +0.000 NA
ENDBRANCH  15  18
ENDBRANCH   8  11
BRANCH   1  25
ATOM     24  C   UNL     1      -4.324  15.278  22.825  0.00  0.00    +0.000 C 
ATOM     25  C   UNL     1      -4.088  13.780  22.929  0.00  0.00    +0.000 C 
ENDBRANCH   1  25
BRANCH   6  26
ATOM     26  O   UNL     1      -7.442  10.636  18.967  0.00  0.00    +0.000 OA
ATOM     27  H   UNL     1      -7.432  10.531  17.989  0.00  0.00    +0.000 HD
ENDBRANCH   6  26
TORSDOF 4
ENDMDL
MODEL 7
REMARK VINA RESULT:      -7.3      1.878      7.973
REMARK  Name = 
REMARK  6 active torsions:
REMARK  status: ('A' for Active; 'I' for Inactive)
REMARK    1  A    between atoms: C_1  and  C_2
REMARK    2  A    between atoms: C_2  and  C_3
REMARK    3  A    between atoms: C_4  and  C_5
REMARK    4  A    between atoms: C_8  and  O_9
REMARK    5  A    between atoms: C_11  and  C_12
REMARK    6  A    between atoms: C_16  and  C_18
REMARK                            x       y       z     vdW  Elec       q    Type
REMARK                         _______ _______ _______ _____ _____    ______ ____
ROOT
ATOM      1  C   UNL     1       3.925   5.912  17.659  0.00  0.00    +0.000 A 
ATOM      2  C   UNL     1       3.871   4.490  17.686  0.00  0.00    +0.000 A 
ATOM      3  C   UNL     1       4.528   3.521  16.771  0.00  0.00    +0.000 C 
ATOM      4  N   UNL     1       3.119   4.029  18.692  0.00  0.00    +0.000 NA
ATOM      5  N   UNL     1       2.635   5.147  19.288  0.00  0.00    +0.000 N 
ATOM      6  C   UNL     1       1.768   5.188  20.384  0.00  0.00    +0.000 A 
ATOM      7  C   UNL     1       1.347   6.368  20.852  0.00  0.00    +0.000 A 
ATOM      8  C   UNL     1       1.901   7.588  20.163  0.00  0.00    +0.000 A 
ATOM      9  N   UNL     1       2.699   7.552  19.134  0.00  0.00    +0.000 NA
ATOM     10  C   UNL     1       3.084   6.316  18.683  0.00  0.00    +0.000 A 
ENDROOT
BRANCH   8  11
ATOM     11  C   UNL     1       1.450   8.930  20.748  0.00  0.00    +0.000 C 
ATOM     12  C   UNL     1       0.110   8.811  21.478  0.00  0.00    +0.000 C 
ATOM     13  C   UNL     1      -0.916   9.322  20.481  0.00  0.00    +0.000 C 
ATOM     14  N   UNL     1      -0.193  10.316  19.714  0.00  0.00    +0.000 N 
ATOM     15  C   UNL     1      -0.726  11.371  18.984  0.00  0.00    +0.000 C 
ATOM     16  O   UNL     1      -0.007  12.216  18.449  0.00  0.00    +0.000 OA
ATOM     17  C   UNL     1       1.236  10.045  19.722  0.00  0.00    +0.000 C 
BRANCH  15  18
ATOM     18  C   UNL     1      -2.217  11.513  18.863  0.00  0.00    +0.000 A 
ATOM     19  C   UNL     1      -2.889  10.779  17.888  0.00  0.00    +0.000 A 
ATOM     20  C   UNL     1      -4.275  10.890  17.811  0.00  0.00    +0.000 A 
ATOM     21  C   UNL     1      -4.946  11.719  18.705  0.00  0.00    +0.000 A 
ATOM     22  C   UNL     1      -4.198  12.413  19.642  0.00  0.00    +0.000 A 
ATOM     23  N   UNL     1      -2.855  12.328  19.744  0.00  0.00    +0.000 NA
ENDBRANCH  15  18
ENDBRANCH   8  11
BRANCH   1  25
ATOM     24  C   UNL     1       6.159   6.934  17.155  0.00  0.00    +0.000 C 
ATOM     25  C   UNL     1       4.707   6.782  16.736  0.00  0.00    +0.000 C 
ENDBRANCH   1  25
BRANCH   6  26
ATOM     26  O   UNL     1       1.362   3.997  20.965  0.00  0.00    +0.000 OA
ATOM     27  H   UNL     1       0.761   4.261  21.697  0.00  0.00    +0.000 HD
ENDBRANCH   6  26
TORSDOF 4
ENDMDL
MODEL 8
REMARK VINA RESULT:      -7.3      1.938      8.102
REMARK  Name = 
REMARK  6 active torsions:
REMARK  status: ('A' for Active; 'I' for Inactive)
REMARK    1  A    between atoms: C_1  and  C_2
REMARK    2  A    between atoms: C_2  and  C_3
REMARK    3  A    between atoms: C_4  and  C_5
REMARK    4  A    between atoms: C_8  and  O_9
REMARK    5  A    between atoms: C_11  and  C_12
REMARK    6  A    between atoms: C_16  and  C_18
REMARK                            x       y       z     vdW  Elec       q    Type
REMARK                         _______ _______ _______ _____ _____    ______ ____
ROOT
ATOM      1  C   UNL     1       2.752   4.892  19.964  0.00  0.00    +0.000 A 
ATOM      2  C   UNL     1       3.511   4.336  18.896  0.00  0.00    +0.000 A 
ATOM      3  C   UNL     1       4.072   2.966  18.773  0.00  0.00    +0.000 C 
ATOM      4  N   UNL     1       3.707   5.211  17.903  0.00  0.00    +0.000 NA
ATOM      5  N   UNL     1       3.125   6.355  18.345  0.00  0.00    +0.000 N 
ATOM      6  C   UNL     1       3.088   7.576  17.666  0.00  0.00    +0.000 A 
ATOM      7  C   UNL     1       2.502   8.634  18.238  0.00  0.00    +0.000 A 
ATOM      8  C   UNL     1       1.873   8.393  19.586  0.00  0.00    +0.000 A 
ATOM      9  N   UNL     1       1.918   7.258  20.225  0.00  0.00    +0.000 NA
ATOM     10  C   UNL     1       2.547   6.212  19.601  0.00  0.00    +0.000 A 
ENDROOT
BRANCH   8  11
ATOM     11  C   UNL     1       1.160   9.602  20.199  0.00  0.00    +0.000 C 
ATOM     12  C   UNL     1      -0.207   9.224  20.777  0.00  0.00    +0.000 C 
ATOM     13  C   UNL     1      -1.203   9.646  19.710  0.00  0.00    +0.000 C 
ATOM     14  N   UNL     1      -0.579  10.794  19.084  0.00  0.00    +0.000 N 
ATOM     15  C   UNL     1      -1.204  11.807  18.366  0.00  0.00    +0.000 C 
ATOM     16  O   UNL     1      -0.581  12.791  17.961  0.00  0.00    +0.000 OA
ATOM     17  C   UNL     1       0.867  10.745  19.224  0.00  0.00    +0.000 C 
BRANCH  15  18
ATOM     18  C   UNL     1      -2.679  11.728  18.099  0.00  0.00    +0.000 A 
ATOM     19  C   UNL     1      -3.570  12.111  19.098  0.00  0.00    +0.000 A 
ATOM     20  C   UNL     1      -4.935  12.068  18.824  0.00  0.00    +0.000 A 
ATOM     21  C   UNL     1      -5.368  11.654  17.568  0.00  0.00    +0.000 A 
ATOM     22  C   UNL     1      -4.413  11.289  16.633  0.00  0.00    +0.000 A 
ATOM     23  N   UNL     1      -3.084  11.319  16.867  0.00  0.00    +0.000 NA
ENDBRANCH  15  18
ENDBRANCH   8  11
BRANCH   1  25
ATOM     24  C   UNL     1       1.199   3.177  20.934  0.00  0.00    +0.000 C 
ATOM     25  C   UNL     1       2.280   4.212  21.203  0.00  0.00    +0.000 C 
ENDBRANCH   1  25
BRANCH   6  26
ATOM     26  O   UNL     1       3.662   7.665  16.407  0.00  0.00    +0.000 OA
ATOM     27  H   UNL     1       4.299   8.411  16.469  0.00  0.00    +0.000 HD
ENDBRANCH   6  26
TORSDOF 4
ENDMDL
MODEL 9
REMARK VINA RESULT:      -7.2      1.685      2.902
REMARK  Name = 
REMARK  6 active torsions:
REMARK  status: ('A' for Active; 'I' for Inactive)
REMARK    1  A    between atoms: C_1  and  C_2
REMARK    2  A    between atoms: C_2  and  C_3
REMARK    3  A    between atoms: C_4  and  C_5
REMARK    4  A    between atoms: C_8  and  O_9
REMARK    5  A    between atoms: C_11  and  C_12
REMARK    6  A    between atoms: C_16  and  C_18
REMARK                            x       y       z     vdW  Elec       q    Type
REMARK                         _______ _______ _______ _____ _____    ______ ____
ROOT
ATOM      1  C   UNL     1      -1.879  12.034  20.753  0.00  0.00    +0.000 A 
ATOM      2  C   UNL     1      -3.016  12.328  19.949  0.00  0.00    +0.000 A 
ATOM      3  C   UNL     1      -4.211  13.138  20.297  0.00  0.00    +0.000 C 
ATOM      4  N   UNL     1      -2.934  11.778  18.732  0.00  0.00    +0.000 NA
ATOM      5  N   UNL     1      -1.773  11.077  18.759  0.00  0.00    +0.000 N 
ATOM      6  C   UNL     1      -1.254  10.300  17.718  0.00  0.00    +0.000 A 
ATOM      7  C   UNL     1      -0.106   9.637  17.896  0.00  0.00    +0.000 A 
ATOM      8  C   UNL     1       0.572   9.833  19.227  0.00  0.00    +0.000 A 
ATOM      9  N   UNL     1       0.084  10.547  20.202  0.00  0.00    +0.000 NA
ATOM     10  C   UNL     1      -1.105  11.190  19.973  0.00  0.00    +0.000 A 
ENDROOT
BRANCH   8  11
ATOM     11  C   UNL     1       1.912   9.109  19.390  0.00  0.00    +0.000 C 
ATOM     12  C   UNL     1       2.389   8.490  18.074  0.00  0.00    +0.000 C 
ATOM     13  C   UNL     1       2.005   7.024  18.180  0.00  0.00    +0.000 C 
ATOM     14  N   UNL     1       2.097   6.741  19.598  0.00  0.00    +0.000 N 
ATOM     15  C   UNL     1       2.272   5.501  20.202  0.00  0.00    +0.000 C 
ATOM     16  O   UNL     1       2.435   5.392  21.419  0.00  0.00    +0.000 OA
ATOM     17  C   UNL     1       1.904   7.947  20.386  0.00  0.00    +0.000 C 
BRANCH  15  18
ATOM     18  C   UNL     1       2.295   4.259  19.358  0.00  0.00    +0.000 A 
ATOM     19  C   UNL     1       1.152   3.466  19.289  0.00  0.00    +0.000 A 
ATOM     20  C   UNL     1       1.174   2.338  18.472  0.00  0.00    +0.000 A 
ATOM     21  C   UNL     1       2.324   2.040  17.748  0.00  0.00    +0.000 A 
ATOM     22  C   UNL     1       3.415   2.883  17.876  0.00  0.00    +0.000 A 
ATOM     23  N   UNL     1       3.428   3.983  18.658  0.00  0.00    +0.000 NA
ENDBRANCH  15  18
ENDBRANCH   8  11
BRANCH   1  25
ATOM     24  C   UNL     1      -1.706  11.430  23.181  0.00  0.00    +0.000 C 
ATOM     25  C   UNL     1      -1.579  12.519  22.129  0.00  0.00    +0.000 C 
ENDBRANCH   1  25
BRANCH   6  26
ATOM     26  O   UNL     1      -1.946  10.233  16.519  0.00  0.00    +0.000 OA
ATOM     27  H   UNL     1      -2.788  10.714  16.682  0.00  0.00    +0.000 HD
ENDBRANCH   6  26
TORSDOF 4
ENDMDL
