MODEL 1
REMARK VINA RESULT:      -6.8      0.000      0.000
REMARK  Name = 
REMARK  2 active torsions:
REMARK  status: ('A' for Active; 'I' for Inactive)
REMARK    1  A    between atoms: C_1  and  N_2
REMARK    2  A    between atoms: C_15  and  C_16
REMARK                            x       y       z     vdW  Elec       q    Type
REMARK                         _______ _______ _______ _____ _____    ______ ____
ROOT
ATOM      1  C   UNL     1       3.389   1.350  18.183  0.00  0.00    +0.000 C 
ATOM      2  N   UNL     1       3.223   2.108  19.418  0.00  0.00    +0.000 NA
ATOM      3  C   UNL     1       1.827   2.490  19.649  0.00  0.00    +0.000 C 
ATOM      4  C   UNL     1       1.371   3.675  18.798  0.00  0.00    +0.000 C 
ATOM      5  C   UNL     1       2.291   4.879  18.982  0.00  0.00    +0.000 C 
ATOM      6  C   UNL     1       3.776   4.528  18.757  0.00  0.00    +0.000 C 
ATOM      7  C   UNL     1       4.660   5.721  19.207  0.00  0.00    +0.000 C 
ATOM      8  C   UNL     1       5.813   5.752  18.218  0.00  0.00    +0.000 C 
ATOM      9  N   UNL     1       5.158   5.360  16.986  0.00  0.00    +0.000 N 
ATOM     10  C   UNL     1       5.931   5.210  15.859  0.00  0.00    +0.000 A 
ATOM     11  N   UNL     1       7.089   5.886  15.789  0.00  0.00    +0.000 NA
ATOM     12  C   UNL     1       7.820   5.761  14.665  0.00  0.00    +0.000 A 
ATOM     13  C   UNL     1       7.444   4.979  13.607  0.00  0.00    +0.000 A 
ATOM     14  F   UNL     1       8.227   4.887  12.524  0.00  0.00    +0.000 F 
ATOM     15  C   UNL     1       6.247   4.315  13.741  0.00  0.00    +0.000 A 
ATOM     16  N   UNL     1       5.488   4.418  14.862  0.00  0.00    +0.000 NA
ATOM     17  C   UNL     1       4.124   4.367  17.249  0.00  0.00    +0.000 C 
ATOM     18  C   UNL     1       4.132   3.254  19.564  0.00  0.00    +0.000 C 
ENDROOT
BRANCH  15  19
ATOM     19  C   UNL     1       5.712   3.475  12.664  0.00  0.00    +0.000 A 
ATOM     20  C   UNL     1       4.456   3.622  11.981  0.00  0.00    +0.000 A 
ATOM     21  C   UNL     1       4.247   2.652  11.025  0.00  0.00    +0.000 A 
ATOM     22  S   UNL     1       5.555   1.560  10.930  0.00  0.00    +0.000 S 
ATOM     23  C   UNL     1       6.399   2.377  12.178  0.00  0.00    +0.000 A 
ENDBRANCH  15  19
TORSDOF 1
ENDMDL
MODEL 2
REMARK VINA RESULT:      -6.7      5.639      7.540
REMARK  Name = 
REMARK  2 active torsions:
REMARK  status: ('A' for Active; 'I' for Inactive)
REMARK    1  A    between atoms: C_1  and  N_2
REMARK    2  A    between atoms: C_15  and  C_16
REMARK                            x       y       z     vdW  Elec       q    Type
REMARK                         _______ _______ _______ _____ _____    ______ ____
ROOT
ATOM      1  C   UNL     1       0.368   9.868  22.453  0.00  0.00    +0.000 C 
ATOM      2  N   UNL     1       0.277  11.246  21.982  0.00  0.00    +0.000 NA
ATOM      3  C   UNL     1      -1.111  11.663  21.758  0.00  0.00    +0.000 C 
ATOM      4  C   UNL     1      -1.707  11.123  20.458  0.00  0.00    +0.000 C 
ATOM      5  C   UNL     1      -0.840  11.486  19.256  0.00  0.00    +0.000 C 
ATOM      6  C   UNL     1       0.635  11.075  19.444  0.00  0.00    +0.000 C 
ATOM      7  C   UNL     1       1.490  11.698  18.310  0.00  0.00    +0.000 C 
ATOM      8  C   UNL     1       2.544  10.650  17.991  0.00  0.00    +0.000 C 
ATOM      9  N   UNL     1       1.800   9.419  18.164  0.00  0.00    +0.000 N 
ATOM     10  C   UNL     1       2.472   8.228  18.020  0.00  0.00    +0.000 A 
ATOM     11  N   UNL     1       3.581   8.212  17.263  0.00  0.00    +0.000 NA
ATOM     12  C   UNL     1       4.210   7.033  17.098  0.00  0.00    +0.000 A 
ATOM     13  C   UNL     1       3.780   5.866  17.668  0.00  0.00    +0.000 A 
ATOM     14  F   UNL     1       4.463   4.730  17.476  0.00  0.00    +0.000 F 
ATOM     15  C   UNL     1       2.638   5.950  18.431  0.00  0.00    +0.000 A 
ATOM     16  N   UNL     1       1.982   7.124  18.618  0.00  0.00    +0.000 NA
ATOM     17  C   UNL     1       0.850   9.545  19.262  0.00  0.00    +0.000 C 
ATOM     18  C   UNL     1       1.132  11.561  20.829  0.00  0.00    +0.000 C 
ENDROOT
BRANCH  15  19
ATOM     19  C   UNL     1       2.052   4.765  19.065  0.00  0.00    +0.000 A 
ATOM     20  C   UNL     1       1.384   3.667  18.421  0.00  0.00    +0.000 A 
ATOM     21  C   UNL     1       0.934   2.715  19.309  0.00  0.00    +0.000 A 
ATOM     22  S   UNL     1       1.312   3.122  20.923  0.00  0.00    +0.000 S 
ATOM     23  C   UNL     1       2.070   4.580  20.436  0.00  0.00    +0.000 A 
ENDBRANCH  15  19
TORSDOF 1
ENDMDL
MODEL 3
REMARK VINA RESULT:      -6.5      5.781      8.322
REMARK  Name = 
REMARK  2 active torsions:
REMARK  status: ('A' for Active; 'I' for Inactive)
REMARK    1  A    between atoms: C_1  and  N_2
REMARK    2  A    between atoms: C_15  and  C_16
REMARK                            x       y       z     vdW  Elec       q    Type
REMARK                         _______ _______ _______ _____ _____    ______ ____
ROOT
ATOM      1  C   UNL     1       0.656   3.616  19.922  0.00  0.00    +0.000 C 
ATOM      2  N   UNL     1       1.617   2.925  19.071  0.00  0.00    +0.000 NA
ATOM      3  C   UNL     1       2.631   2.209  19.850  0.00  0.00    +0.000 C 
ATOM      4  C   UNL     1       3.716   3.121  20.423  0.00  0.00    +0.000 C 
ATOM      5  C   UNL     1       4.374   3.958  19.329  0.00  0.00    +0.000 C 
ATOM      6  C   UNL     1       3.347   4.727  18.473  0.00  0.00    +0.000 C 
ATOM      7  C   UNL     1       4.062   5.339  17.240  0.00  0.00    +0.000 C 
ATOM      8  C   UNL     1       3.379   6.678  17.014  0.00  0.00    +0.000 C 
ATOM      9  N   UNL     1       3.114   7.108  18.372  0.00  0.00    +0.000 N 
ATOM     10  C   UNL     1       2.423   8.283  18.557  0.00  0.00    +0.000 A 
ATOM     11  N   UNL     1       2.467   9.206  17.583  0.00  0.00    +0.000 NA
ATOM     12  C   UNL     1       1.817  10.367  17.791  0.00  0.00    +0.000 A 
ATOM     13  C   UNL     1       1.116  10.642  18.934  0.00  0.00    +0.000 A 
ATOM     14  F   UNL     1       0.479  11.812  19.069  0.00  0.00    +0.000 F 
ATOM     15  C   UNL     1       1.111   9.656  19.892  0.00  0.00    +0.000 A 
ATOM     16  N   UNL     1       1.754   8.473  19.712  0.00  0.00    +0.000 NA
ATOM     17  C   UNL     1       2.772   5.969  19.213  0.00  0.00    +0.000 C 
ATOM     18  C   UNL     1       2.224   3.759  18.023  0.00  0.00    +0.000 C 
ENDROOT
BRANCH  15  19
ATOM     19  C   UNL     1       0.429   9.840  21.177  0.00  0.00    +0.000 A 
ATOM     20  C   UNL     1       0.546   9.026  22.356  0.00  0.00    +0.000 A 
ATOM     21  C   UNL     1      -0.245   9.466  23.395  0.00  0.00    +0.000 A 
ATOM     22  S   UNL     1      -1.131  10.862  22.972  0.00  0.00    +0.000 S 
ATOM     23  C   UNL     1      -0.465  10.873  21.393  0.00  0.00    +0.000 A 
ENDBRANCH  15  19
TORSDOF 1
ENDMDL
MODEL 4
REMARK VINA RESULT:      -6.5      4.967      7.836
REMARK  Name = 
REMARK  2 active torsions:
REMARK  status: ('A' for Active; 'I' for Inactive)
REMARK    1  A    between atoms: C_1  and  N_2
REMARK    2  A    between atoms: C_15  and  C_16
REMARK                            x       y       z     vdW  Elec       q    Type
REMARK                         _______ _______ _______ _____ _____    ______ ____
ROOT
ATOM      1  C   UNL     1       7.043   6.956  17.075  0.00  0.00    +0.000 C 
ATOM      2  N   UNL     1       7.330   5.537  16.893  0.00  0.00    +0.000 NA
ATOM      3  C   UNL     1       7.277   5.139  15.483  0.00  0.00    +0.000 C 
ATOM      4  C   UNL     1       5.854   4.975  14.949  0.00  0.00    +0.000 C 
ATOM      5  C   UNL     1       5.046   4.006  15.807  0.00  0.00    +0.000 C 
ATOM      6  C   UNL     1       5.075   4.376  17.304  0.00  0.00    +0.000 C 
ATOM      7  C   UNL     1       4.457   3.219  18.132  0.00  0.00    +0.000 C 
ATOM      8  C   UNL     1       3.706   3.902  19.264  0.00  0.00    +0.000 C 
ATOM      9  N   UNL     1       3.195   5.088  18.607  0.00  0.00    +0.000 N 
ATOM     10  C   UNL     1       2.503   6.003  19.365  0.00  0.00    +0.000 A 
ATOM     11  N   UNL     1       1.899   5.573  20.485  0.00  0.00    +0.000 NA
ATOM     12  C   UNL     1       1.194   6.470  21.200  0.00  0.00    +0.000 A 
ATOM     13  C   UNL     1       1.073   7.786  20.846  0.00  0.00    +0.000 A 
ATOM     14  F   UNL     1       0.368   8.628  21.612  0.00  0.00    +0.000 F 
ATOM     15  C   UNL     1       1.714   8.162  19.688  0.00  0.00    +0.000 A 
ATOM     16  N   UNL     1       2.435   7.283  18.946  0.00  0.00    +0.000 NA
ATOM     17  C   UNL     1       4.156   5.588  17.632  0.00  0.00    +0.000 C 
ATOM     18  C   UNL     1       6.539   4.635  17.742  0.00  0.00    +0.000 C 
ENDROOT
BRANCH  15  19
ATOM     19  C   UNL     1       1.631   9.534  19.178  0.00  0.00    +0.000 A 
ATOM     20  C   UNL     1       2.286  10.080  18.021  0.00  0.00    +0.000 A 
ATOM     21  C   UNL     1       2.009  11.415  17.825  0.00  0.00    +0.000 A 
ATOM     22  S   UNL     1       0.955  12.028  19.020  0.00  0.00    +0.000 S 
ATOM     23  C   UNL     1       0.878  10.508  19.809  0.00  0.00    +0.000 A 
ENDBRANCH  15  19
TORSDOF 1
ENDMDL
MODEL 5
REMARK VINA RESULT:      -6.3     11.522     13.633
REMARK  Name = 
REMARK  2 active torsions:
REMARK  status: ('A' for Active; 'I' for Inactive)
REMARK    1  A    between atoms: C_1  and  N_2
REMARK    2  A    between atoms: C_15  and  C_16
REMARK                            x       y       z     vdW  Elec       q    Type
REMARK                         _______ _______ _______ _____ _____    ______ ____
ROOT
ATOM      1  C   UNL     1      -4.556  15.481  22.088  0.00  0.00    +0.000 C 
ATOM      2  N   UNL     1      -5.965  15.376  22.449  0.00  0.00    +0.000 NA
ATOM      3  C   UNL     1      -6.151  14.836  23.799  0.00  0.00    +0.000 C 
ATOM      4  C   UNL     1      -5.962  13.322  23.881  0.00  0.00    +0.000 C 
ATOM      5  C   UNL     1      -6.863  12.594  22.886  0.00  0.00    +0.000 C 
ATOM      6  C   UNL     1      -6.711  13.131  21.448  0.00  0.00    +0.000 C 
ATOM      7  C   UNL     1      -7.827  12.529  20.555  0.00  0.00    +0.000 C 
ATOM      8  C   UNL     1      -7.171  12.306  19.202  0.00  0.00    +0.000 C 
ATOM      9  N   UNL     1      -5.831  11.910  19.585  0.00  0.00    +0.000 N 
ATOM     10  C   UNL     1      -4.910  11.688  18.588  0.00  0.00    +0.000 A 
ATOM     11  N   UNL     1      -5.362  11.347  17.370  0.00  0.00    +0.000 NA
ATOM     12  C   UNL     1      -4.450  11.095  16.412  0.00  0.00    +0.000 A 
ATOM     13  C   UNL     1      -3.100  11.179  16.618  0.00  0.00    +0.000 A 
ATOM     14  F   UNL     1      -2.249  10.930  15.615  0.00  0.00    +0.000 F 
ATOM     15  C   UNL     1      -2.703  11.532  17.887  0.00  0.00    +0.000 A 
ATOM     16  N   UNL     1      -3.597  11.794  18.874  0.00  0.00    +0.000 NA
ATOM     17  C   UNL     1      -5.400  12.641  20.769  0.00  0.00    +0.000 C 
ATOM     18  C   UNL     1      -6.803  14.678  21.463  0.00  0.00    +0.000 C 
ENDROOT
BRANCH  15  19
ATOM     19  C   UNL     1      -1.285  11.619  18.248  0.00  0.00    +0.000 A 
ATOM     20  C   UNL     1      -0.376  10.534  18.498  0.00  0.00    +0.000 A 
ATOM     21  C   UNL     1       0.891  10.959  18.832  0.00  0.00    +0.000 A 
ATOM     22  S   UNL     1       1.009  12.661  18.842  0.00  0.00    +0.000 S 
ATOM     23  C   UNL     1      -0.641  12.833  18.411  0.00  0.00    +0.000 A 
ENDBRANCH  15  19
TORSDOF 1
ENDMDL
MODEL 6
REMARK VINA RESULT:      -5.9     10.183     12.346
REMARK  Name = 
REMARK  2 active torsions:
REMARK  status: ('A' for Active; 'I' for Inactive)
REMARK    1  A    between atoms: C_1  and  N_2
REMARK    2  A    between atoms: C_15  and  C_16
REMARK                            x       y       z     vdW  Elec       q    Type
REMARK                         _______ _______ _______ _____ _____    ______ ____
ROOT
ATOM      1  C   UNL     1       6.563  16.254  22.762  0.00  0.00    +0.000 C 
ATOM      2  N   UNL     1       6.243  15.635  24.044  0.00  0.00    +0.000 NA
ATOM      3  C   UNL     1       6.904  16.311  25.164  0.00  0.00    +0.000 C 
ATOM      4  C   UNL     1       8.384  15.956  25.303  0.00  0.00    +0.000 C 
ATOM      5  C   UNL     1       8.588  14.446  25.394  0.00  0.00    +0.000 C 
ATOM      6  C   UNL     1       7.904  13.685  24.240  0.00  0.00    +0.000 C 
ATOM      7  C   UNL     1       7.935  12.163  24.538  0.00  0.00    +0.000 C 
ATOM      8  C   UNL     1       8.140  11.501  23.185  0.00  0.00    +0.000 C 
ATOM      9  N   UNL     1       9.024  12.442  22.526  0.00  0.00    +0.000 N 
ATOM     10  C   UNL     1       9.377  12.195  21.220  0.00  0.00    +0.000 A 
ATOM     11  N   UNL     1       9.337  10.927  20.780  0.00  0.00    +0.000 NA
ATOM     12  C   UNL     1       9.720  10.693  19.511  0.00  0.00    +0.000 A 
ATOM     13  C   UNL     1      10.135  11.678  18.656  0.00  0.00    +0.000 A 
ATOM     14  F   UNL     1      10.487  11.377  17.400  0.00  0.00    +0.000 F 
ATOM     15  C   UNL     1      10.153  12.954  19.169  0.00  0.00    +0.000 A 
ATOM     16  N   UNL     1       9.771  13.225  20.444  0.00  0.00    +0.000 NA
ATOM     17  C   UNL     1       8.689  13.809  22.903  0.00  0.00    +0.000 C 
ATOM     18  C   UNL     1       6.443  14.180  24.092  0.00  0.00    +0.000 C 
ENDROOT
BRANCH  15  19
ATOM     19  C   UNL     1      10.613  14.094  18.369  0.00  0.00    +0.000 A 
ATOM     20  C   UNL     1      11.896  14.267  17.747  0.00  0.00    +0.000 A 
ATOM     21  C   UNL     1      12.013  15.464  17.076  0.00  0.00    +0.000 A 
ATOM     22  S   UNL     1      10.584  16.392  17.178  0.00  0.00    +0.000 S 
ATOM     23  C   UNL     1       9.810  15.196  18.131  0.00  0.00    +0.000 A 
ENDBRANCH  15  19
TORSDOF 1
ENDMDL
MODEL 7
REMARK VINA RESULT:      -5.9      9.102     11.386
REMARK  Name = 
REMARK  2 active torsions:
REMARK  status: ('A' for Active; 'I' for Inactive)
REMARK    1  A    between atoms: C_1  and  N_2
REMARK    2  A    between atoms: C_15  and  C_16
REMARK                            x       y       z     vdW  Elec       q    Type
REMARK                         _______ _______ _______ _____ _____    ______ ____
ROOT
ATOM      1  C   UNL     1       4.977  14.540  17.850  0.00  0.00    +0.000 C 
ATOM      2  N   UNL     1       4.700  15.934  18.174  0.00  0.00    +0.000 NA
ATOM      3  C   UNL     1       5.389  16.366  19.394  0.00  0.00    +0.000 C 
ATOM      4  C   UNL     1       4.718  15.879  20.678  0.00  0.00    +0.000 C 
ATOM      5  C   UNL     1       3.247  16.283  20.724  0.00  0.00    +0.000 C 
ATOM      6  C   UNL     1       2.477  15.859  19.457  0.00  0.00    +0.000 C 
ATOM      7  C   UNL     1       1.074  16.520  19.464  0.00  0.00    +0.000 C 
ATOM      8  C   UNL     1       0.145  15.480  18.858  0.00  0.00    +0.000 C 
ATOM      9  N   UNL     1       0.706  14.247  19.371  0.00  0.00    +0.000 N 
ATOM     10  C   UNL     1       0.146  13.059  18.962  0.00  0.00    +0.000 A 
ATOM     11  N   UNL     1      -1.133  13.068  18.555  0.00  0.00    +0.000 NA
ATOM     12  C   UNL     1      -1.682  11.893  18.192  0.00  0.00    +0.000 A 
ATOM     13  C   UNL     1      -1.000  10.707  18.211  0.00  0.00    +0.000 A 
ATOM     14  F   UNL     1      -1.603   9.576  17.822  0.00  0.00    +0.000 F 
ATOM     15  C   UNL     1       0.306  10.767  18.640  0.00  0.00    +0.000 A 
ATOM     16  N   UNL     1       0.889  11.935  19.010  0.00  0.00    +0.000 NA
ATOM     17  C   UNL     1       2.159  14.336  19.441  0.00  0.00    +0.000 C 
ATOM     18  C   UNL     1       3.274  16.289  18.201  0.00  0.00    +0.000 C 
ENDROOT
BRANCH  15  19
ATOM     19  C   UNL     1       1.134   9.561  18.744  0.00  0.00    +0.000 A 
ATOM     20  C   UNL     1       1.980   8.989  17.734  0.00  0.00    +0.000 A 
ATOM     21  C   UNL     1       2.614   7.839  18.149  0.00  0.00    +0.000 A 
ATOM     22  S   UNL     1       2.208   7.435  19.757  0.00  0.00    +0.000 S 
ATOM     23  C   UNL     1       1.173   8.794  19.895  0.00  0.00    +0.000 A 
ENDBRANCH  15  19
TORSDOF 1
ENDMDL
MODEL 8
REMARK VINA RESULT:      -5.8      5.079      7.230
REMARK  Name = 
REMARK  2 active torsions:
REMARK  status: ('A' for Active; 'I' for Inactive)
REMARK    1  A    between atoms: C_1  and  N_2
REMARK    2  A    between atoms: C_15  and  C_16
REMARK                            x       y       z     vdW  Elec       q    Type
REMARK                         _______ _______ _______ _____ _____    ______ ____
ROOT
ATOM      1  C   UNL     1      -0.296  10.214  17.446  0.00  0.00    +0.000 C 
ATOM      2  N   UNL     1      -0.947  10.849  18.587  0.00  0.00    +0.000 NA
ATOM      3  C   UNL     1      -0.391  12.174  18.874  0.00  0.00    +0.000 C 
ATOM      4  C   UNL     1       0.953  12.127  19.600  0.00  0.00    +0.000 C 
ATOM      5  C   UNL     1       0.867  11.297  20.877  0.00  0.00    +0.000 C 
ATOM      6  C   UNL     1       0.279   9.892  20.631  0.00  0.00    +0.000 C 
ATOM      7  C   UNL     1      -0.014   9.212  21.995  0.00  0.00    +0.000 C 
ATOM      8  C   UNL     1       0.313   7.743  21.780  0.00  0.00    +0.000 C 
ATOM      9  N   UNL     1       1.453   7.820  20.889  0.00  0.00    +0.000 N 
ATOM     10  C   UNL     1       1.987   6.644  20.415  0.00  0.00    +0.000 A 
ATOM     11  N   UNL     1       1.804   5.527  21.138  0.00  0.00    +0.000 NA
ATOM     12  C   UNL     1       2.363   4.390  20.683  0.00  0.00    +0.000 A 
ATOM     13  C   UNL     1       3.093   4.320  19.527  0.00  0.00    +0.000 A 
ATOM     14  F   UNL     1       3.608   3.151  19.124  0.00  0.00    +0.000 F 
ATOM     15  C   UNL     1       3.243   5.499  18.835  0.00  0.00    +0.000 A 
ATOM     16  N   UNL     1       2.691   6.662  19.265  0.00  0.00    +0.000 NA
ATOM     17  C   UNL     1       1.303   8.932  19.960  0.00  0.00    +0.000 C 
ATOM     18  C   UNL     1      -1.020  10.016  19.796  0.00  0.00    +0.000 C 
ENDROOT
BRANCH  15  19
ATOM     19  C   UNL     1       4.034   5.568  17.602  0.00  0.00    +0.000 A 
ATOM     20  C   UNL     1       4.551   6.743  16.957  0.00  0.00    +0.000 A 
ATOM     21  C   UNL     1       5.244   6.462  15.800  0.00  0.00    +0.000 A 
ATOM     22  S   UNL     1       5.289   4.787  15.477  0.00  0.00    +0.000 S 
ATOM     23  C   UNL     1       4.370   4.436  16.881  0.00  0.00    +0.000 A 
ENDBRANCH  15  19
TORSDOF 1
ENDMDL
MODEL 9
REMARK VINA RESULT:      -5.8     10.882     12.991
REMARK  Name = 
REMARK  2 active torsions:
REMARK  status: ('A' for Active; 'I' for Inactive)
REMARK    1  A    between atoms: C_1  and  N_2
REMARK    2  A    between atoms: C_15  and  C_16
REMARK                            x       y       z     vdW  Elec       q    Type
REMARK                         _______ _______ _______ _____ _____    ______ ____
ROOT
ATOM      1  C   UNL     1      -2.349  15.118  22.702  0.00  0.00    +0.000 C 
ATOM      2  N   UNL     1      -3.671  15.390  23.255  0.00  0.00    +0.000 NA
ATOM      3  C   UNL     1      -3.853  14.784  24.577  0.00  0.00    +0.000 C 
ATOM      4  C   UNL     1      -4.126  13.281  24.527  0.00  0.00    +0.000 C 
ATOM      5  C   UNL     1      -5.315  12.962  23.625  0.00  0.00    +0.000 C 
ATOM      6  C   UNL     1      -5.177  13.584  22.221  0.00  0.00    +0.000 C 
ATOM      7  C   UNL     1      -6.520  13.436  21.459  0.00  0.00    +0.000 C 
ATOM      8  C   UNL     1      -6.127  13.179  20.013  0.00  0.00    +0.000 C 
ATOM      9  N   UNL     1      -4.935  12.370  20.170  0.00  0.00    +0.000 N 
ATOM     10  C   UNL     1      -4.249  11.999  19.037  0.00  0.00    +0.000 A 
ATOM     11  N   UNL     1      -4.923  11.939  17.878  0.00  0.00    +0.000 NA
ATOM     12  C   UNL     1      -4.251  11.539  16.782  0.00  0.00    +0.000 A 
ATOM     13  C   UNL     1      -2.925  11.201  16.796  0.00  0.00    +0.000 A 
ATOM     14  F   UNL     1      -2.313  10.825  15.666  0.00  0.00    +0.000 F 
ATOM     15  C   UNL     1      -2.293  11.282  18.015  0.00  0.00    +0.000 A 
ATOM     16  N   UNL     1      -2.942  11.685  19.138  0.00  0.00    +0.000 NA
ATOM     17  C   UNL     1      -4.166  12.810  21.327  0.00  0.00    +0.000 C 
ATOM     18  C   UNL     1      -4.791  15.079  22.356  0.00  0.00    +0.000 C 
ENDROOT
BRANCH  15  19
ATOM     19  C   UNL     1      -0.883  10.910  18.173  0.00  0.00    +0.000 A 
ATOM     20  C   UNL     1       0.192  11.735  18.652  0.00  0.00    +0.000 A 
ATOM     21  C   UNL     1       1.406  11.084  18.664  0.00  0.00    +0.000 A 
ATOM     22  S   UNL     1       1.271   9.476  18.108  0.00  0.00    +0.000 S 
ATOM     23  C   UNL     1      -0.413   9.653  17.840  0.00  0.00    +0.000 A 
ENDBRANCH  15  19
TORSDOF 1
ENDMDL
