MODEL 1
REMARK VINA RESULT:      -6.7      0.000      0.000
REMARK  Name = 
REMARK  2 active torsions:
REMARK  status: ('A' for Active; 'I' for Inactive)
REMARK    1  A    between atoms: N_7  and  C_8
REMARK    2  A    between atoms: C_8  and  C_9
REMARK                            x       y       z     vdW  Elec       q    Type
REMARK                         _______ _______ _______ _____ _____    ______ ____
ROOT
ATOM      1  O   UNL     1       1.219   3.939  17.681  0.00  0.00    +0.000 OA
ATOM      2  C   UNL     1       1.656   3.653  18.796  0.00  0.00    +0.000 C 
ATOM      3  C   UNL     1       0.780   3.830  20.048  0.00  0.00    +0.000 C 
ATOM      4  N   UNL     1       1.101   2.909  21.157  0.00  0.00    +0.000 NA
ATOM      5  C   UNL     1       2.536   2.976  21.442  0.00  0.00    +0.000 C 
ATOM      6  C   UNL     1       3.345   2.554  20.217  0.00  0.00    +0.000 C 
ATOM      7  N   UNL     1       2.983   3.288  19.010  0.00  0.00    +0.000 N 
ATOM      8  H   UNL     1       0.860   1.963  20.860  0.00  0.00    +0.000 HD
ENDROOT
BRANCH   7   9
ATOM      9  C   UNL     1       3.910   3.265  17.883  0.00  0.00    +0.000 C 
BRANCH   9  10
ATOM     10  C   UNL     1       4.821   4.469  17.850  0.00  0.00    +0.000 A 
ATOM     11  C   UNL     1       4.510   5.568  17.036  0.00  0.00    +0.000 A 
ATOM     12  C   UNL     1       5.394   6.645  16.937  0.00  0.00    +0.000 A 
ATOM     13  C   UNL     1       6.593   6.624  17.643  0.00  0.00    +0.000 A 
ATOM     14 CL   UNL     1       7.708   7.923  17.478  0.00  0.00    +0.000 Cl
ATOM     15  C   UNL     1       6.907   5.546  18.466  0.00  0.00    +0.000 A 
ATOM     16  C   UNL     1       6.018   4.477  18.581  0.00  0.00    +0.000 A 
ENDBRANCH   9  10
ENDBRANCH   7   9
TORSDOF 2
ENDMDL
MODEL 2
REMARK VINA RESULT:      -6.6      0.366      1.244
REMARK  Name = 
REMARK  2 active torsions:
REMARK  status: ('A' for Active; 'I' for Inactive)
REMARK    1  A    between atoms: N_7  and  C_8
REMARK    2  A    between atoms: C_8  and  C_9
REMARK                            x       y       z     vdW  Elec       q    Type
REMARK                         _______ _______ _______ _____ _____    ______ ____
ROOT
ATOM      1  O   UNL     1       1.218   4.054  17.584  0.00  0.00    +0.000 OA
ATOM      2  C   UNL     1       1.646   3.700  18.683  0.00  0.00    +0.000 C 
ATOM      3  C   UNL     1       0.828   3.959  19.960  0.00  0.00    +0.000 C 
ATOM      4  N   UNL     1       1.066   2.988  21.048  0.00  0.00    +0.000 NA
ATOM      5  C   UNL     1       2.506   2.881  21.295  0.00  0.00    +0.000 C 
ATOM      6  C   UNL     1       3.229   2.387  20.044  0.00  0.00    +0.000 C 
ATOM      7  N   UNL     1       2.926   3.179  18.857  0.00  0.00    +0.000 N 
ATOM      8  H   UNL     1       0.708   2.081  20.744  0.00  0.00    +0.000 HD
ENDROOT
BRANCH   7   9
ATOM      9  C   UNL     1       3.816   3.065  17.705  0.00  0.00    +0.000 C 
BRANCH   9  10
ATOM     10  C   UNL     1       4.805   4.202  17.618  0.00  0.00    +0.000 A 
ATOM     11  C   UNL     1       5.678   4.463  18.683  0.00  0.00    +0.000 A 
ATOM     12  C   UNL     1       6.533   5.567  18.642  0.00  0.00    +0.000 A 
ATOM     13  C   UNL     1       6.511   6.419  17.542  0.00  0.00    +0.000 A 
ATOM     14 CL   UNL     1       7.522   7.810  17.514  0.00  0.00    +0.000 Cl
ATOM     15  C   UNL     1       5.660   6.163  16.470  0.00  0.00    +0.000 A 
ATOM     16  C   UNL     1       4.818   5.051  16.501  0.00  0.00    +0.000 A 
ENDBRANCH   9  10
ENDBRANCH   7   9
TORSDOF 2
ENDMDL
MODEL 3
REMARK VINA RESULT:      -6.3      3.336      5.175
REMARK  Name = 
REMARK  2 active torsions:
REMARK  status: ('A' for Active; 'I' for Inactive)
REMARK    1  A    between atoms: N_7  and  C_8
REMARK    2  A    between atoms: C_8  and  C_9
REMARK                            x       y       z     vdW  Elec       q    Type
REMARK                         _______ _______ _______ _____ _____    ______ ____
ROOT
ATOM      1  O   UNL     1       5.564   3.786  19.309  0.00  0.00    +0.000 OA
ATOM      2  C   UNL     1       5.807   4.246  18.194  0.00  0.00    +0.000 C 
ATOM      3  C   UNL     1       7.221   4.740  17.842  0.00  0.00    +0.000 C 
ATOM      4  N   UNL     1       7.565   4.648  16.409  0.00  0.00    +0.000 NA
ATOM      5  C   UNL     1       6.515   5.292  15.617  0.00  0.00    +0.000 C 
ATOM      6  C   UNL     1       5.174   4.593  15.835  0.00  0.00    +0.000 C 
ATOM      7  N   UNL     1       4.813   4.473  17.243  0.00  0.00    +0.000 N 
ATOM      8  H   UNL     1       7.615   3.658  16.161  0.00  0.00    +0.000 HD
ENDROOT
BRANCH   7   9
ATOM      9  C   UNL     1       3.422   4.182  17.578  0.00  0.00    +0.000 C 
BRANCH   9  10
ATOM     10  C   UNL     1       2.808   5.228  18.477  0.00  0.00    +0.000 A 
ATOM     11  C   UNL     1       2.876   6.585  18.132  0.00  0.00    +0.000 A 
ATOM     12  C   UNL     1       2.386   7.561  19.004  0.00  0.00    +0.000 A 
ATOM     13  C   UNL     1       1.837   7.184  20.226  0.00  0.00    +0.000 A 
ATOM     14 CL   UNL     1       1.285   8.386  21.325  0.00  0.00    +0.000 Cl
ATOM     15  C   UNL     1       1.749   5.839  20.574  0.00  0.00    +0.000 A 
ATOM     16  C   UNL     1       2.221   4.861  19.698  0.00  0.00    +0.000 A 
ENDBRANCH   9  10
ENDBRANCH   7   9
TORSDOF 2
ENDMDL
MODEL 4
REMARK VINA RESULT:      -6.3      1.347      1.817
REMARK  Name = 
REMARK  2 active torsions:
REMARK  status: ('A' for Active; 'I' for Inactive)
REMARK    1  A    between atoms: N_7  and  C_8
REMARK    2  A    between atoms: C_8  and  C_9
REMARK                            x       y       z     vdW  Elec       q    Type
REMARK                         _______ _______ _______ _____ _____    ______ ____
ROOT
ATOM      1  O   UNL     1       4.830   2.163  20.125  0.00  0.00    +0.000 OA
ATOM      2  C   UNL     1       3.755   2.761  20.090  0.00  0.00    +0.000 C 
ATOM      3  C   UNL     1       2.732   2.600  21.227  0.00  0.00    +0.000 C 
ATOM      4  N   UNL     1       1.850   3.767  21.430  0.00  0.00    +0.000 NA
ATOM      5  C   UNL     1       1.239   4.139  20.152  0.00  0.00    +0.000 C 
ATOM      6  C   UNL     1       2.313   4.519  19.135  0.00  0.00    +0.000 C 
ATOM      7  N   UNL     1       3.344   3.499  18.981  0.00  0.00    +0.000 N 
ATOM      8  H   UNL     1       2.425   4.541  21.767  0.00  0.00    +0.000 HD
ENDROOT
BRANCH   7   9
ATOM      9  C   UNL     1       4.198   3.553  17.799  0.00  0.00    +0.000 C 
BRANCH   9  10
ATOM     10  C   UNL     1       5.113   4.754  17.795  0.00  0.00    +0.000 A 
ATOM     11  C   UNL     1       4.747   5.919  17.106  0.00  0.00    +0.000 A 
ATOM     12  C   UNL     1       5.628   7.000  17.027  0.00  0.00    +0.000 A 
ATOM     13  C   UNL     1       6.881   6.916  17.627  0.00  0.00    +0.000 A 
ATOM     14 CL   UNL     1       7.990   8.223  17.483  0.00  0.00    +0.000 Cl
ATOM     15  C   UNL     1       7.252   5.771  18.327  0.00  0.00    +0.000 A 
ATOM     16  C   UNL     1       6.366   4.697  18.423  0.00  0.00    +0.000 A 
ENDBRANCH   9  10
ENDBRANCH   7   9
TORSDOF 2
ENDMDL
MODEL 5
REMARK VINA RESULT:      -6.2      3.647      5.696
REMARK  Name = 
REMARK  2 active torsions:
REMARK  status: ('A' for Active; 'I' for Inactive)
REMARK    1  A    between atoms: N_7  and  C_8
REMARK    2  A    between atoms: C_8  and  C_9
REMARK                            x       y       z     vdW  Elec       q    Type
REMARK                         _______ _______ _______ _____ _____    ______ ____
ROOT
ATOM      1  O   UNL     1       5.021   6.767  14.946  0.00  0.00    +0.000 OA
ATOM      2  C   UNL     1       5.635   6.047  15.733  0.00  0.00    +0.000 C 
ATOM      3  C   UNL     1       6.753   5.116  15.233  0.00  0.00    +0.000 C 
ATOM      4  N   UNL     1       7.802   4.825  16.232  0.00  0.00    +0.000 NA
ATOM      5  C   UNL     1       7.173   4.359  17.471  0.00  0.00    +0.000 C 
ATOM      6  C   UNL     1       6.252   5.436  18.041  0.00  0.00    +0.000 C 
ATOM      7  N   UNL     1       5.277   5.927  17.075  0.00  0.00    +0.000 N 
ATOM      8  H   UNL     1       8.310   5.691  16.417  0.00  0.00    +0.000 HD
ENDROOT
BRANCH   7   9
ATOM      9  C   UNL     1       4.116   6.657  17.574  0.00  0.00    +0.000 C 
BRANCH   9  10
ATOM     10  C   UNL     1       3.173   5.782  18.366  0.00  0.00    +0.000 A 
ATOM     11  C   UNL     1       2.930   6.051  19.721  0.00  0.00    +0.000 A 
ATOM     12  C   UNL     1       2.129   5.193  20.478  0.00  0.00    +0.000 A 
ATOM     13  C   UNL     1       1.576   4.061  19.887  0.00  0.00    +0.000 A 
ATOM     14 CL   UNL     1       0.636   2.973  20.831  0.00  0.00    +0.000 Cl
ATOM     15  C   UNL     1       1.797   3.790  18.540  0.00  0.00    +0.000 A 
ATOM     16  C   UNL     1       2.583   4.655  17.776  0.00  0.00    +0.000 A 
ENDBRANCH   9  10
ENDBRANCH   7   9
TORSDOF 2
ENDMDL
MODEL 6
REMARK VINA RESULT:      -6.2      3.592      5.484
REMARK  Name = 
REMARK  2 active torsions:
REMARK  status: ('A' for Active; 'I' for Inactive)
REMARK    1  A    between atoms: N_7  and  C_8
REMARK    2  A    between atoms: C_8  and  C_9
REMARK                            x       y       z     vdW  Elec       q    Type
REMARK                         _______ _______ _______ _____ _____    ______ ____
ROOT
ATOM      1  O   UNL     1       5.431   6.734  15.608  0.00  0.00    +0.000 OA
ATOM      2  C   UNL     1       6.135   6.258  16.498  0.00  0.00    +0.000 C 
ATOM      3  C   UNL     1       7.339   7.043  17.047  0.00  0.00    +0.000 C 
ATOM      4  N   UNL     1       7.686   6.732  18.449  0.00  0.00    +0.000 NA
ATOM      5  C   UNL     1       7.823   5.282  18.603  0.00  0.00    +0.000 C 
ATOM      6  C   UNL     1       6.508   4.582  18.268  0.00  0.00    +0.000 C 
ATOM      7  N   UNL     1       5.978   4.953  16.961  0.00  0.00    +0.000 N 
ATOM      8  H   UNL     1       6.925   7.064  19.043  0.00  0.00    +0.000 HD
ENDROOT
BRANCH   7   9
ATOM      9  C   UNL     1       4.960   4.098  16.359  0.00  0.00    +0.000 C 
BRANCH   9  10
ATOM     10  C   UNL     1       3.805   3.822  17.293  0.00  0.00    +0.000 A 
ATOM     11  C   UNL     1       2.965   4.866  17.706  0.00  0.00    +0.000 A 
ATOM     12  C   UNL     1       1.951   4.631  18.637  0.00  0.00    +0.000 A 
ATOM     13  C   UNL     1       1.779   3.354  19.165  0.00  0.00    +0.000 A 
ATOM     14 CL   UNL     1       0.568   3.074  20.354  0.00  0.00    +0.000 Cl
ATOM     15  C   UNL     1       2.596   2.306  18.752  0.00  0.00    +0.000 A 
ATOM     16  C   UNL     1       3.598   2.534  17.809  0.00  0.00    +0.000 A 
ENDBRANCH   9  10
ENDBRANCH   7   9
TORSDOF 2
ENDMDL
MODEL 7
REMARK VINA RESULT:      -6.1      2.202      2.557
REMARK  Name = 
REMARK  2 active torsions:
REMARK  status: ('A' for Active; 'I' for Inactive)
REMARK    1  A    between atoms: N_7  and  C_8
REMARK    2  A    between atoms: C_8  and  C_9
REMARK                            x       y       z     vdW  Elec       q    Type
REMARK                         _______ _______ _______ _____ _____    ______ ____
ROOT
ATOM      1  O   UNL     1       4.852   2.356  19.796  0.00  0.00    +0.000 OA
ATOM      2  C   UNL     1       3.806   3.006  19.787  0.00  0.00    +0.000 C 
ATOM      3  C   UNL     1       2.443   2.294  19.764  0.00  0.00    +0.000 C 
ATOM      4  N   UNL     1       1.342   3.056  20.388  0.00  0.00    +0.000 NA
ATOM      5  C   UNL     1       1.300   4.403  19.814  0.00  0.00    +0.000 C 
ATOM      6  C   UNL     1       2.610   5.142  20.085  0.00  0.00    +0.000 C 
ATOM      7  N   UNL     1       3.788   4.394  19.660  0.00  0.00    +0.000 N 
ATOM      8  H   UNL     1       1.533   3.122  21.389  0.00  0.00    +0.000 HD
ENDROOT
BRANCH   7   9
ATOM      9  C   UNL     1       5.047   5.116  19.507  0.00  0.00    +0.000 C 
BRANCH   9  10
ATOM     10  C   UNL     1       5.562   5.096  18.088  0.00  0.00    +0.000 A 
ATOM     11  C   UNL     1       4.723   5.468  17.027  0.00  0.00    +0.000 A 
ATOM     12  C   UNL     1       5.168   5.366  15.707  0.00  0.00    +0.000 A 
ATOM     13  C   UNL     1       6.447   4.886  15.442  0.00  0.00    +0.000 A 
ATOM     14 CL   UNL     1       6.977   4.706  13.816  0.00  0.00    +0.000 Cl
ATOM     15  C   UNL     1       7.295   4.528  16.487  0.00  0.00    +0.000 A 
ATOM     16  C   UNL     1       6.860   4.645  17.807  0.00  0.00    +0.000 A 
ENDBRANCH   9  10
ENDBRANCH   7   9
TORSDOF 2
ENDMDL
MODEL 8
REMARK VINA RESULT:      -6.1      2.438      3.008
REMARK  Name = 
REMARK  2 active torsions:
REMARK  status: ('A' for Active; 'I' for Inactive)
REMARK    1  A    between atoms: N_7  and  C_8
REMARK    2  A    between atoms: C_8  and  C_9
REMARK                            x       y       z     vdW  Elec       q    Type
REMARK                         _______ _______ _______ _____ _____    ______ ____
ROOT
ATOM      1  O   UNL     1       4.883   2.208  20.035  0.00  0.00    +0.000 OA
ATOM      2  C   UNL     1       3.911   2.960  19.968  0.00  0.00    +0.000 C 
ATOM      3  C   UNL     1       2.485   2.416  20.157  0.00  0.00    +0.000 C 
ATOM      4  N   UNL     1       1.519   3.396  20.694  0.00  0.00    +0.000 NA
ATOM      5  C   UNL     1       1.569   4.616  19.886  0.00  0.00    +0.000 C 
ATOM      6  C   UNL     1       2.964   5.237  19.940  0.00  0.00    +0.000 C 
ATOM      7  N   UNL     1       4.023   4.297  19.591  0.00  0.00    +0.000 N 
ATOM      8  H   UNL     1       1.794   3.614  21.653  0.00  0.00    +0.000 HD
ENDROOT
BRANCH   7   9
ATOM      9  C   UNL     1       5.333   4.834  19.234  0.00  0.00    +0.000 C 
BRANCH   9  10
ATOM     10  C   UNL     1       5.681   4.605  17.783  0.00  0.00    +0.000 A 
ATOM     11  C   UNL     1       7.019   4.624  17.366  0.00  0.00    +0.000 A 
ATOM     12  C   UNL     1       7.339   4.501  16.011  0.00  0.00    +0.000 A 
ATOM     13  C   UNL     1       6.323   4.368  15.070  0.00  0.00    +0.000 A 
ATOM     14 CL   UNL     1       6.710   4.273  13.397  0.00  0.00    +0.000 Cl
ATOM     15  C   UNL     1       4.990   4.332  15.472  0.00  0.00    +0.000 A 
ATOM     16  C   UNL     1       4.669   4.437  16.825  0.00  0.00    +0.000 A 
ENDBRANCH   9  10
ENDBRANCH   7   9
TORSDOF 2
ENDMDL
MODEL 9
REMARK VINA RESULT:      -6.1      3.564      5.675
REMARK  Name = 
REMARK  2 active torsions:
REMARK  status: ('A' for Active; 'I' for Inactive)
REMARK    1  A    between atoms: N_7  and  C_8
REMARK    2  A    between atoms: C_8  and  C_9
REMARK                            x       y       z     vdW  Elec       q    Type
REMARK                         _______ _______ _______ _____ _____    ______ ____
ROOT
ATOM      1  O   UNL     1       6.039   5.583  19.611  0.00  0.00    +0.000 OA
ATOM      2  C   UNL     1       6.271   5.358  18.423  0.00  0.00    +0.000 C 
ATOM      3  C   UNL     1       7.680   4.946  17.965  0.00  0.00    +0.000 C 
ATOM      4  N   UNL     1       7.710   4.108  16.749  0.00  0.00    +0.000 NA
ATOM      5  C   UNL     1       6.927   4.757  15.695  0.00  0.00    +0.000 C 
ATOM      6  C   UNL     1       5.472   4.919  16.132  0.00  0.00    +0.000 C 
ATOM      7  N   UNL     1       5.331   5.588  17.420  0.00  0.00    +0.000 N 
ATOM      8  H   UNL     1       7.287   3.207  16.977  0.00  0.00    +0.000 HD
ENDROOT
BRANCH   7   9
ATOM      9  C   UNL     1       4.027   6.140  17.773  0.00  0.00    +0.000 C 
BRANCH   9  10
ATOM     10  C   UNL     1       3.252   5.250  18.716  0.00  0.00    +0.000 A 
ATOM     11  C   UNL     1       2.713   5.774  19.899  0.00  0.00    +0.000 A 
ATOM     12  C   UNL     1       2.072   4.935  20.815  0.00  0.00    +0.000 A 
ATOM     13  C   UNL     1       1.978   3.571  20.556  0.00  0.00    +0.000 A 
ATOM     14 CL   UNL     1       1.241   2.529  21.707  0.00  0.00    +0.000 Cl
ATOM     15  C   UNL     1       2.496   3.040  19.378  0.00  0.00    +0.000 A 
ATOM     16  C   UNL     1       3.121   3.878  18.453  0.00  0.00    +0.000 A 
ENDBRANCH   9  10
ENDBRANCH   7   9
TORSDOF 2
ENDMDL
