MODEL 1
REMARK VINA RESULT:      -6.7      0.000      0.000
REMARK  Name = 
REMARK  4 active torsions:
REMARK  status: ('A' for Active; 'I' for Inactive)
REMARK    1  A    between atoms: C_1  and  C_2
REMARK    2  A    between atoms: C_2  and  C_3
REMARK    3  A    between atoms: C_2  and  C_4
REMARK    4  A    between atoms: C_6  and  C_7
REMARK                            x       y       z     vdW  Elec       q    Type
REMARK                         _______ _______ _______ _____ _____    ______ ____
ROOT
ATOM      1  C   UNL     1       6.603   4.080  14.033  0.00  0.00    +0.000 A 
ATOM      2  C   UNL     1       6.224   3.719  15.308  0.00  0.00    +0.000 A 
ATOM      3  C   UNL     1       6.778   4.702  16.153  0.00  0.00    +0.000 A 
ATOM      4  N   UNL     1       7.492   5.607  15.468  0.00  0.00    +0.000 NA
ATOM      5  N   UNL     1       7.393   5.190  14.190  0.00  0.00    +0.000 N 
ATOM      6  H   UNL     1       7.877   5.717  13.471  0.00  0.00    +0.000 HD
ENDROOT
BRANCH   3   7
ATOM      7  C   UNL     1       6.600   4.774  17.618  0.00  0.00    +0.000 A 
ATOM      8  N   UNL     1       7.177   5.618  18.451  0.00  0.00    +0.000 NA
ATOM      9  N   UNL     1       6.706   5.287  19.703  0.00  0.00    +0.000 NA
ATOM     10  N   UNL     1       5.868   4.260  19.641  0.00  0.00    +0.000 NA
ATOM     11  N   UNL     1       5.805   3.941  18.340  0.00  0.00    +0.000 N 
ATOM     12  H   UNL     1       5.239   3.168  18.020  0.00  0.00    +0.000 HD
ENDBRANCH   3   7
BRANCH   1  14
ATOM     13  C   UNL     1       4.798   3.667  12.348  0.00  0.00    +0.000 C 
ATOM     14  C   UNL     1       6.270   3.463  12.709  0.00  0.00    +0.000 C 
ATOM     15  C   UNL     1       7.181   3.979  11.597  0.00  0.00    +0.000 C 
ENDBRANCH   1  14
TORSDOF 2
ENDMDL
MODEL 2
REMARK VINA RESULT:      -6.7      0.708      1.168
REMARK  Name = 
REMARK  4 active torsions:
REMARK  status: ('A' for Active; 'I' for Inactive)
REMARK    1  A    between atoms: C_1  and  C_2
REMARK    2  A    between atoms: C_2  and  C_3
REMARK    3  A    between atoms: C_2  and  C_4
REMARK    4  A    between atoms: C_6  and  C_7
REMARK                            x       y       z     vdW  Elec       q    Type
REMARK                         _______ _______ _______ _____ _____    ______ ____
ROOT
ATOM      1  C   UNL     1       6.562   4.177  13.445  0.00  0.00    +0.000 A 
ATOM      2  C   UNL     1       6.161   3.772  14.700  0.00  0.00    +0.000 A 
ATOM      3  C   UNL     1       6.826   4.631  15.598  0.00  0.00    +0.000 A 
ATOM      4  N   UNL     1       7.624   5.500  14.963  0.00  0.00    +0.000 NA
ATOM      5  N   UNL     1       7.467   5.184  13.662  0.00  0.00    +0.000 N 
ATOM      6  H   UNL     1       7.997   5.705  12.971  0.00  0.00    +0.000 HD
ENDROOT
BRANCH   3   7
ATOM      7  C   UNL     1       6.674   4.621  17.068  0.00  0.00    +0.000 A 
ATOM      8  N   UNL     1       7.456   5.203  17.956  0.00  0.00    +0.000 NA
ATOM      9  N   UNL     1       6.913   4.904  19.185  0.00  0.00    +0.000 NA
ATOM     10  N   UNL     1       5.828   4.150  19.058  0.00  0.00    +0.000 NA
ATOM     11  N   UNL     1       5.682   3.974  17.736  0.00  0.00    +0.000 N 
ATOM     12  H   UNL     1       4.928   3.412  17.365  0.00  0.00    +0.000 HD
ENDBRANCH   3   7
BRANCH   1  14
ATOM     13  C   UNL     1       6.999   2.502  11.637  0.00  0.00    +0.000 C 
ATOM     14  C   UNL     1       6.150   3.691  12.089  0.00  0.00    +0.000 C 
ATOM     15  C   UNL     1       4.662   3.351  12.036  0.00  0.00    +0.000 C 
ENDBRANCH   1  14
TORSDOF 2
ENDMDL
MODEL 3
REMARK VINA RESULT:      -6.7      3.675      5.870
REMARK  Name = 
REMARK  4 active torsions:
REMARK  status: ('A' for Active; 'I' for Inactive)
REMARK    1  A    between atoms: C_1  and  C_2
REMARK    2  A    between atoms: C_2  and  C_3
REMARK    3  A    between atoms: C_2  and  C_4
REMARK    4  A    between atoms: C_6  and  C_7
REMARK                            x       y       z     vdW  Elec       q    Type
REMARK                         _______ _______ _______ _____ _____    ______ ____
ROOT
ATOM      1  C   UNL     1       2.701   4.174  19.552  0.00  0.00    +0.000 A 
ATOM      2  C   UNL     1       3.610   3.752  18.606  0.00  0.00    +0.000 A 
ATOM      3  C   UNL     1       4.653   4.699  18.644  0.00  0.00    +0.000 A 
ATOM      4  N   UNL     1       4.411   5.677  19.528  0.00  0.00    +0.000 NA
ATOM      5  N   UNL     1       3.208   5.350  20.043  0.00  0.00    +0.000 N 
ATOM      6  H   UNL     1       2.796   5.965  20.737  0.00  0.00    +0.000 HD
ENDROOT
BRANCH   3   7
ATOM      7  C   UNL     1       5.891   4.646  17.839  0.00  0.00    +0.000 A 
ATOM      8  N   UNL     1       6.023   4.928  16.557  0.00  0.00    +0.000 NA
ATOM      9  N   UNL     1       7.352   4.723  16.264  0.00  0.00    +0.000 NA
ATOM     10  N   UNL     1       8.021   4.317  17.337  0.00  0.00    +0.000 NA
ATOM     11  N   UNL     1       7.106   4.268  18.317  0.00  0.00    +0.000 N 
ATOM     12  H   UNL     1       7.357   3.967  19.249  0.00  0.00    +0.000 HD
ENDBRANCH   3   7
BRANCH   1  14
ATOM     13  C   UNL     1       0.859   2.580  18.976  0.00  0.00    +0.000 C 
ATOM     14  C   UNL     1       1.420   3.550  20.016  0.00  0.00    +0.000 C 
ATOM     15  C   UNL     1       1.581   2.864  21.371  0.00  0.00    +0.000 C 
ENDBRANCH   1  14
TORSDOF 2
ENDMDL
MODEL 4
REMARK VINA RESULT:      -6.6      0.971      1.605
REMARK  Name = 
REMARK  4 active torsions:
REMARK  status: ('A' for Active; 'I' for Inactive)
REMARK    1  A    between atoms: C_1  and  C_2
REMARK    2  A    between atoms: C_2  and  C_3
REMARK    3  A    between atoms: C_2  and  C_4
REMARK    4  A    between atoms: C_6  and  C_7
REMARK                            x       y       z     vdW  Elec       q    Type
REMARK                         _______ _______ _______ _____ _____    ______ ____
ROOT
ATOM      1  C   UNL     1       6.532   4.044  13.208  0.00  0.00    +0.000 A 
ATOM      2  C   UNL     1       6.200   3.665  14.491  0.00  0.00    +0.000 A 
ATOM      3  C   UNL     1       6.870   4.577  15.333  0.00  0.00    +0.000 A 
ATOM      4  N   UNL     1       7.607   5.454  14.637  0.00  0.00    +0.000 NA
ATOM      5  N   UNL     1       7.406   5.090  13.354  0.00  0.00    +0.000 N 
ATOM      6  H   UNL     1       7.886   5.608  12.625  0.00  0.00    +0.000 HD
ENDROOT
BRANCH   3   7
ATOM      7  C   UNL     1       6.781   4.608  16.807  0.00  0.00    +0.000 A 
ATOM      8  N   UNL     1       5.693   4.490  17.544  0.00  0.00    +0.000 NA
ATOM      9  N   UNL     1       6.115   4.592  18.851  0.00  0.00    +0.000 NA
ATOM     10  N   UNL     1       7.428   4.776  18.917  0.00  0.00    +0.000 NA
ATOM     11  N   UNL     1       7.840   4.788  17.640  0.00  0.00    +0.000 N 
ATOM     12  H   UNL     1       8.813   4.931  17.408  0.00  0.00    +0.000 HD
ENDBRANCH   3   7
BRANCH   1  14
ATOM     13  C   UNL     1       6.793   2.190  11.547  0.00  0.00    +0.000 C 
ATOM     14  C   UNL     1       6.082   3.500  11.887  0.00  0.00    +0.000 C 
ATOM     15  C   UNL     1       4.565   3.328  11.831  0.00  0.00    +0.000 C 
ENDBRANCH   1  14
TORSDOF 2
ENDMDL
MODEL 5
REMARK VINA RESULT:      -6.4      1.373      1.967
REMARK  Name = 
REMARK  4 active torsions:
REMARK  status: ('A' for Active; 'I' for Inactive)
REMARK    1  A    between atoms: C_1  and  C_2
REMARK    2  A    between atoms: C_2  and  C_3
REMARK    3  A    between atoms: C_2  and  C_4
REMARK    4  A    between atoms: C_6  and  C_7
REMARK                            x       y       z     vdW  Elec       q    Type
REMARK                         _______ _______ _______ _____ _____    ______ ____
ROOT
ATOM      1  C   UNL     1       6.408   3.890  12.719  0.00  0.00    +0.000 A 
ATOM      2  C   UNL     1       6.185   3.829  14.079  0.00  0.00    +0.000 A 
ATOM      3  C   UNL     1       7.070   4.772  14.643  0.00  0.00    +0.000 A 
ATOM      4  N   UNL     1       7.830   5.366  13.712  0.00  0.00    +0.000 NA
ATOM      5  N   UNL     1       7.428   4.792  12.559  0.00  0.00    +0.000 N 
ATOM      6  H   UNL     1       7.883   5.073  11.697  0.00  0.00    +0.000 HD
ENDROOT
BRANCH   3   7
ATOM      7  C   UNL     1       7.165   5.108  16.078  0.00  0.00    +0.000 A 
ATOM      8  N   UNL     1       6.741   6.207  16.671  0.00  0.00    +0.000 NA
ATOM      9  N   UNL     1       7.060   6.061  18.002  0.00  0.00    +0.000 NA
ATOM     10  N   UNL     1       7.672   4.904  18.222  0.00  0.00    +0.000 NA
ATOM     11  N   UNL     1       7.738   4.312  17.020  0.00  0.00    +0.000 N 
ATOM     12  H   UNL     1       8.181   3.411  16.906  0.00  0.00    +0.000 HD
ENDBRANCH   3   7
BRANCH   1  14
ATOM     13  C   UNL     1       6.125   1.697  11.547  0.00  0.00    +0.000 C 
ATOM     14  C   UNL     1       5.731   3.174  11.591  0.00  0.00    +0.000 C 
ATOM     15  C   UNL     1       4.214   3.333  11.646  0.00  0.00    +0.000 C 
ENDBRANCH   1  14
TORSDOF 2
ENDMDL
MODEL 6
REMARK VINA RESULT:      -6.4      3.576      5.517
REMARK  Name = 
REMARK  4 active torsions:
REMARK  status: ('A' for Active; 'I' for Inactive)
REMARK    1  A    between atoms: C_1  and  C_2
REMARK    2  A    between atoms: C_2  and  C_3
REMARK    3  A    between atoms: C_2  and  C_4
REMARK    4  A    between atoms: C_6  and  C_7
REMARK                            x       y       z     vdW  Elec       q    Type
REMARK                         _______ _______ _______ _____ _____    ______ ____
ROOT
ATOM      1  C   UNL     1       2.505   4.457  18.414  0.00  0.00    +0.000 A 
ATOM      2  C   UNL     1       3.523   4.046  17.581  0.00  0.00    +0.000 A 
ATOM      3  C   UNL     1       4.441   5.116  17.559  0.00  0.00    +0.000 A 
ATOM      4  N   UNL     1       4.021   6.152  18.298  0.00  0.00    +0.000 NA
ATOM      5  N   UNL     1       2.832   5.737  18.781  0.00  0.00    +0.000 N 
ATOM      6  H   UNL     1       2.301   6.373  19.368  0.00  0.00    +0.000 HD
ENDROOT
BRANCH   3   7
ATOM      7  C   UNL     1       5.731   5.126  16.839  0.00  0.00    +0.000 A 
ATOM      8  N   UNL     1       6.114   5.967  15.898  0.00  0.00    +0.000 NA
ATOM      9  N   UNL     1       7.379   5.568  15.532  0.00  0.00    +0.000 NA
ATOM     10  N   UNL     1       7.763   4.502  16.224  0.00  0.00    +0.000 NA
ATOM     11  N   UNL     1       6.732   4.227  17.036  0.00  0.00    +0.000 N 
ATOM     12  H   UNL     1       6.761   3.438  17.668  0.00  0.00    +0.000 HD
ENDBRANCH   3   7
BRANCH   1  14
ATOM     13  C   UNL     1       1.396   2.226  18.657  0.00  0.00    +0.000 C 
ATOM     14  C   UNL     1       1.278   3.734  18.880  0.00  0.00    +0.000 C 
ATOM     15  C   UNL     1       0.954   4.048  20.339  0.00  0.00    +0.000 C 
ENDBRANCH   1  14
TORSDOF 2
ENDMDL
MODEL 7
REMARK VINA RESULT:      -6.4      1.920      5.298
REMARK  Name = 
REMARK  4 active torsions:
REMARK  status: ('A' for Active; 'I' for Inactive)
REMARK    1  A    between atoms: C_1  and  C_2
REMARK    2  A    between atoms: C_2  and  C_3
REMARK    3  A    between atoms: C_2  and  C_4
REMARK    4  A    between atoms: C_6  and  C_7
REMARK                            x       y       z     vdW  Elec       q    Type
REMARK                         _______ _______ _______ _____ _____    ______ ____
ROOT
ATOM      1  C   UNL     1       5.875   4.441  18.109  0.00  0.00    +0.000 A 
ATOM      2  C   UNL     1       5.549   4.532  16.773  0.00  0.00    +0.000 A 
ATOM      3  C   UNL     1       6.779   4.488  16.086  0.00  0.00    +0.000 A 
ATOM      4  N   UNL     1       7.821   4.410  16.926  0.00  0.00    +0.000 NA
ATOM      5  N   UNL     1       7.246   4.412  18.146  0.00  0.00    +0.000 N 
ATOM      6  H   UNL     1       7.847   4.377  18.963  0.00  0.00    +0.000 HD
ENDROOT
BRANCH   3   7
ATOM      7  C   UNL     1       6.943   4.504  14.617  0.00  0.00    +0.000 A 
ATOM      8  N   UNL     1       7.652   5.355  13.902  0.00  0.00    +0.000 NA
ATOM      9  N   UNL     1       7.488   4.968  12.591  0.00  0.00    +0.000 NA
ATOM     10  N   UNL     1       6.692   3.910  12.501  0.00  0.00    +0.000 NA
ATOM     11  N   UNL     1       6.352   3.624  13.766  0.00  0.00    +0.000 N 
ATOM     12  H   UNL     1       5.727   2.857  13.978  0.00  0.00    +0.000 HD
ENDBRANCH   3   7
BRANCH   1  14
ATOM     13  C   UNL     1       3.944   5.480  19.315  0.00  0.00    +0.000 C 
ATOM     14  C   UNL     1       4.998   4.372  19.321  0.00  0.00    +0.000 C 
ATOM     15  C   UNL     1       4.347   2.999  19.474  0.00  0.00    +0.000 C 
ENDBRANCH   1  14
TORSDOF 2
ENDMDL
MODEL 8
REMARK VINA RESULT:      -6.4      3.549      5.759
REMARK  Name = 
REMARK  4 active torsions:
REMARK  status: ('A' for Active; 'I' for Inactive)
REMARK    1  A    between atoms: C_1  and  C_2
REMARK    2  A    between atoms: C_2  and  C_3
REMARK    3  A    between atoms: C_2  and  C_4
REMARK    4  A    between atoms: C_6  and  C_7
REMARK                            x       y       z     vdW  Elec       q    Type
REMARK                         _______ _______ _______ _____ _____    ______ ____
ROOT
ATOM      1  C   UNL     1       3.037   3.599  19.373  0.00  0.00    +0.000 A 
ATOM      2  C   UNL     1       3.960   3.483  18.356  0.00  0.00    +0.000 A 
ATOM      3  C   UNL     1       4.724   4.667  18.410  0.00  0.00    +0.000 A 
ATOM      4  N   UNL     1       4.296   5.497  19.372  0.00  0.00    +0.000 NA
ATOM      5  N   UNL     1       3.255   4.838  19.920  0.00  0.00    +0.000 N 
ATOM      6  H   UNL     1       2.745   5.285  20.675  0.00  0.00    +0.000 HD
ENDROOT
BRANCH   3   7
ATOM      7  C   UNL     1       5.878   4.984  17.544  0.00  0.00    +0.000 A 
ATOM      8  N   UNL     1       6.214   6.164  17.061  0.00  0.00    +0.000 NA
ATOM      9  N   UNL     1       7.348   5.952  16.309  0.00  0.00    +0.000 NA
ATOM     10  N   UNL     1       7.697   4.671  16.323  0.00  0.00    +0.000 NA
ATOM     11  N   UNL     1       6.777   4.070  17.091  0.00  0.00    +0.000 N 
ATOM     12  H   UNL     1       6.804   3.072  17.253  0.00  0.00    +0.000 HD
ENDBRANCH   3   7
BRANCH   1  14
ATOM     13  C   UNL     1       1.556   2.952  21.284  0.00  0.00    +0.000 C 
ATOM     14  C   UNL     1       1.994   2.637  19.853  0.00  0.00    +0.000 C 
ATOM     15  C   UNL     1       0.792   2.586  18.913  0.00  0.00    +0.000 C 
ENDBRANCH   1  14
TORSDOF 2
ENDMDL
MODEL 9
REMARK VINA RESULT:      -6.3      3.762      5.598
REMARK  Name = 
REMARK  4 active torsions:
REMARK  status: ('A' for Active; 'I' for Inactive)
REMARK    1  A    between atoms: C_1  and  C_2
REMARK    2  A    between atoms: C_2  and  C_3
REMARK    3  A    between atoms: C_2  and  C_4
REMARK    4  A    between atoms: C_6  and  C_7
REMARK                            x       y       z     vdW  Elec       q    Type
REMARK                         _______ _______ _______ _____ _____    ______ ____
ROOT
ATOM      1  C   UNL     1       2.458   3.861  18.911  0.00  0.00    +0.000 A 
ATOM      2  C   UNL     1       3.781   3.771  19.292  0.00  0.00    +0.000 A 
ATOM      3  C   UNL     1       4.516   4.292  18.207  0.00  0.00    +0.000 A 
ATOM      4  N   UNL     1       3.721   4.655  17.191  0.00  0.00    +0.000 NA
ATOM      5  N   UNL     1       2.482   4.357  17.633  0.00  0.00    +0.000 N 
ATOM      6  H   UNL     1       1.695   4.531  17.017  0.00  0.00    +0.000 HD
ENDROOT
BRANCH   3   7
ATOM      7  C   UNL     1       5.984   4.453  18.164  0.00  0.00    +0.000 A 
ATOM      8  N   UNL     1       6.767   4.897  19.127  0.00  0.00    +0.000 NA
ATOM      9  N   UNL     1       8.044   4.874  18.612  0.00  0.00    +0.000 NA
ATOM     10  N   UNL     1       8.045   4.433  17.359  0.00  0.00    +0.000 NA
ATOM     11  N   UNL     1       6.759   4.173  17.082  0.00  0.00    +0.000 N 
ATOM     12  H   UNL     1       6.480   3.835  16.171  0.00  0.00    +0.000 HD
ENDBRANCH   3   7
BRANCH   1  14
ATOM     13  C   UNL     1       0.442   2.380  18.995  0.00  0.00    +0.000 C 
ATOM     14  C   UNL     1       1.206   3.524  19.662  0.00  0.00    +0.000 C 
ATOM     15  C   UNL     1       1.491   3.210  21.129  0.00  0.00    +0.000 C 
ENDBRANCH   1  14
TORSDOF 2
ENDMDL
