MODEL 1
REMARK VINA RESULT:      -7.1      0.000      0.000
REMARK  Name = 
REMARK  10 active torsions:
REMARK  status: ('A' for Active; 'I' for Inactive)
REMARK    1  A    between atoms: C_1  and  O_2
REMARK    2  A    between atoms: O_2  and  C_3
REMARK    3  A    between atoms: C_6  and  C_7
REMARK    4  A    between atoms: C_10  and  C_11
REMARK    5  A    between atoms: C_11  and  O_12
REMARK    6  A    between atoms: O_12  and  C_13
REMARK    7  A    between atoms: C_13  and  C_14
REMARK    8  A    between atoms: C_16  and  C_17
REMARK    9  A    between atoms: C_19  and  C_20
REMARK   10  A    between atoms: C_22  and  C_23
REMARK                            x       y       z     vdW  Elec       q    Type
REMARK                         _______ _______ _______ _____ _____    ______ ____
ROOT
ATOM      1  C   UNL     1       2.474   6.132  20.153  0.00  0.00    +0.000 C 
ATOM      2  O   UNL     1       3.906   6.008  20.030  0.00  0.00    +0.000 OA
ATOM      3  C   UNL     1       4.364   5.845  18.687  0.00  0.00    +0.000 C 
ATOM      4  C   UNL     1       3.757   4.607  17.968  0.00  0.00    +0.000 C 
ATOM      5  C   UNL     1       4.131   3.255  18.687  0.00  0.00    +0.000 C 
ATOM      6  C   UNL     1       5.575   3.186  19.205  0.00  0.00    +0.000 C 
ATOM      7  C   UNL     1       3.191   2.863  19.806  0.00  0.00    +0.000 C 
ATOM      8  C   UNL     1       2.126   3.587  20.181  0.00  0.00    +0.000 C 
ATOM      9  C   UNL     1       1.142   3.062  21.187  0.00  0.00    +0.000 C 
ATOM     10  C   UNL     1       1.780   4.906  19.482  0.00  0.00    +0.000 C 
ATOM     11  C   UNL     1       2.205   4.809  17.995  0.00  0.00    +0.000 C 
ATOM     12  C   UNL     1       1.360   3.751  17.260  0.00  0.00    +0.000 C 
ENDROOT
BRANCH   1  16
ATOM     13  C   UNL     1       1.105  10.096  18.909  0.00  0.00    +0.000 A 
ATOM     14  C   UNL     1       1.787   9.276  18.014  0.00  0.00    +0.000 A 
ATOM     15  C   UNL     1       2.212   7.998  18.393  0.00  0.00    +0.000 A 
ATOM     16  C   UNL     1       2.001   7.520  19.696  0.00  0.00    +0.000 A 
ATOM     17  C   UNL     1       1.299   8.358  20.584  0.00  0.00    +0.000 A 
ATOM     18  C   UNL     1       0.866   9.636  20.201  0.00  0.00    +0.000 A 
BRANCH  13  20
ATOM     19  C   UNL     1      -0.245  12.018  19.156  0.00  0.00    +0.000 C 
ATOM     20  O   UNL     1       0.755  11.324  18.420  0.00  0.00    +0.000 OA
ENDBRANCH  13  20
ENDBRANCH   1  16
BRANCH   4  21
ATOM     21  C   UNL     1       4.315   4.578  16.519  0.00  0.00    +0.000 C 
BRANCH  21  22
ATOM     22  O   UNL     1       5.570   5.281  16.416  0.00  0.00    +0.000 OA
BRANCH  22  23
ATOM     23  C   UNL     1       6.616   4.588  15.888  0.00  0.00    +0.000 C 
ATOM     24  C   UNL     1       6.246   3.976  14.571  0.00  0.00    +0.000 C 
ATOM     25  O   UNL     1       7.724   4.475  16.395  0.00  0.00    +0.000 OA
ENDBRANCH  22  23
ENDBRANCH  21  22
ENDBRANCH   4  21
TORSDOF 5
ENDMDL
MODEL 2
REMARK VINA RESULT:      -7.1      1.218      1.692
REMARK  Name = 
REMARK  10 active torsions:
REMARK  status: ('A' for Active; 'I' for Inactive)
REMARK    1  A    between atoms: C_1  and  O_2
REMARK    2  A    between atoms: O_2  and  C_3
REMARK    3  A    between atoms: C_6  and  C_7
REMARK    4  A    between atoms: C_10  and  C_11
REMARK    5  A    between atoms: C_11  and  O_12
REMARK    6  A    between atoms: O_12  and  C_13
REMARK    7  A    between atoms: C_13  and  C_14
REMARK    8  A    between atoms: C_16  and  C_17
REMARK    9  A    between atoms: C_19  and  C_20
REMARK   10  A    between atoms: C_22  and  C_23
REMARK                            x       y       z     vdW  Elec       q    Type
REMARK                         _______ _______ _______ _____ _____    ______ ____
ROOT
ATOM      1  C   UNL     1       1.953   5.306  19.667  0.00  0.00    +0.000 C 
ATOM      2  O   UNL     1       3.073   5.008  20.527  0.00  0.00    +0.000 OA
ATOM      3  C   UNL     1       4.338   5.026  19.865  0.00  0.00    +0.000 C 
ATOM      4  C   UNL     1       4.431   4.036  18.670  0.00  0.00    +0.000 C 
ATOM      5  C   UNL     1       4.235   2.538  19.118  0.00  0.00    +0.000 C 
ATOM      6  C   UNL     1       4.917   2.176  20.445  0.00  0.00    +0.000 C 
ATOM      7  C   UNL     1       2.792   2.086  19.170  0.00  0.00    +0.000 C 
ATOM      8  C   UNL     1       1.747   2.872  18.872  0.00  0.00    +0.000 C 
ATOM      9  C   UNL     1       0.354   2.318  18.785  0.00  0.00    +0.000 C 
ATOM     10  C   UNL     1       1.950   4.331  18.449  0.00  0.00    +0.000 C 
ATOM     11  C   UNL     1       3.290   4.446  17.679  0.00  0.00    +0.000 C 
ATOM     12  C   UNL     1       3.218   3.667  16.351  0.00  0.00    +0.000 C 
ENDROOT
BRANCH   1  16
ATOM     13  C   UNL     1       1.804   9.566  18.682  0.00  0.00    +0.000 A 
ATOM     14  C   UNL     1       1.456   9.127  19.957  0.00  0.00    +0.000 A 
ATOM     15  C   UNL     1       1.519   7.770  20.291  0.00  0.00    +0.000 A 
ATOM     16  C   UNL     1       1.895   6.807  19.342  0.00  0.00    +0.000 A 
ATOM     17  C   UNL     1       2.255   7.269  18.062  0.00  0.00    +0.000 A 
ATOM     18  C   UNL     1       2.199   8.631  17.730  0.00  0.00    +0.000 A 
BRANCH  13  20
ATOM     19  C   UNL     1       0.606  11.545  19.154  0.00  0.00    +0.000 C 
ATOM     20  O   UNL     1       1.688  10.913  18.481  0.00  0.00    +0.000 OA
ENDBRANCH  13  20
ENDBRANCH   1  16
BRANCH   4  21
ATOM     21  C   UNL     1       5.838   4.192  18.033  0.00  0.00    +0.000 C 
BRANCH  21  22
ATOM     22  O   UNL     1       6.088   5.549  17.614  0.00  0.00    +0.000 OA
BRANCH  22  23
ATOM     23  C   UNL     1       6.920   5.717  16.550  0.00  0.00    +0.000 C 
ATOM     24  C   UNL     1       6.826   4.556  15.605  0.00  0.00    +0.000 C 
ATOM     25  O   UNL     1       7.648   6.681  16.360  0.00  0.00    +0.000 OA
ENDBRANCH  22  23
ENDBRANCH  21  22
ENDBRANCH   4  21
TORSDOF 5
ENDMDL
MODEL 3
REMARK VINA RESULT:      -7.1      1.455      1.734
REMARK  Name = 
REMARK  10 active torsions:
REMARK  status: ('A' for Active; 'I' for Inactive)
REMARK    1  A    between atoms: C_1  and  O_2
REMARK    2  A    between atoms: O_2  and  C_3
REMARK    3  A    between atoms: C_6  and  C_7
REMARK    4  A    between atoms: C_10  and  C_11
REMARK    5  A    between atoms: C_11  and  O_12
REMARK    6  A    between atoms: O_12  and  C_13
REMARK    7  A    between atoms: C_13  and  C_14
REMARK    8  A    between atoms: C_16  and  C_17
REMARK    9  A    between atoms: C_19  and  C_20
REMARK   10  A    between atoms: C_22  and  C_23
REMARK                            x       y       z     vdW  Elec       q    Type
REMARK                         _______ _______ _______ _____ _____    ______ ____
ROOT
ATOM      1  C   UNL     1       1.969   5.358  19.637  0.00  0.00    +0.000 C 
ATOM      2  O   UNL     1       3.089   5.077  20.501  0.00  0.00    +0.000 OA
ATOM      3  C   UNL     1       4.356   5.103  19.842  0.00  0.00    +0.000 C 
ATOM      4  C   UNL     1       4.461   4.106  18.654  0.00  0.00    +0.000 C 
ATOM      5  C   UNL     1       4.279   2.609  19.112  0.00  0.00    +0.000 C 
ATOM      6  C   UNL     1       4.960   2.262  20.443  0.00  0.00    +0.000 C 
ATOM      7  C   UNL     1       2.840   2.144  19.162  0.00  0.00    +0.000 C 
ATOM      8  C   UNL     1       1.788   2.918  18.857  0.00  0.00    +0.000 C 
ATOM      9  C   UNL     1       0.401   2.350  18.770  0.00  0.00    +0.000 C 
ATOM     10  C   UNL     1       1.978   4.376  18.425  0.00  0.00    +0.000 C 
ATOM     11  C   UNL     1       3.319   4.498  17.658  0.00  0.00    +0.000 C 
ATOM     12  C   UNL     1       3.258   3.710  16.335  0.00  0.00    +0.000 C 
ENDROOT
BRANCH   1  16
ATOM     13  C   UNL     1       1.746   9.635  18.742  0.00  0.00    +0.000 A 
ATOM     14  C   UNL     1       2.178   8.736  17.771  0.00  0.00    +0.000 A 
ATOM     15  C   UNL     1       2.234   7.364  18.038  0.00  0.00    +0.000 A 
ATOM     16  C   UNL     1       1.897   6.857  19.302  0.00  0.00    +0.000 A 
ATOM     17  C   UNL     1       1.451   7.778  20.268  0.00  0.00    +0.000 A 
ATOM     18  C   UNL     1       1.387   9.153  19.997  0.00  0.00    +0.000 A 
BRANCH  13  20
ATOM     19  C   UNL     1       1.326  11.879  19.349  0.00  0.00    +0.000 C 
ATOM     20  O   UNL     1       1.749  10.948  18.359  0.00  0.00    +0.000 OA
ENDBRANCH  13  20
ENDBRANCH   1  16
BRANCH   4  21
ATOM     21  C   UNL     1       5.869   4.271  18.019  0.00  0.00    +0.000 C 
BRANCH  21  22
ATOM     22  O   UNL     1       5.998   5.529  17.325  0.00  0.00    +0.000 OA
BRANCH  22  23
ATOM     23  C   UNL     1       7.182   6.185  17.467  0.00  0.00    +0.000 C 
ATOM     24  C   UNL     1       7.782   5.926  18.816  0.00  0.00    +0.000 C 
ATOM     25  O   UNL     1       7.712   6.889  16.619  0.00  0.00    +0.000 OA
ENDBRANCH  22  23
ENDBRANCH  21  22
ENDBRANCH   4  21
TORSDOF 5
ENDMDL
MODEL 4
REMARK VINA RESULT:      -7.0      2.016      4.341
REMARK  Name = 
REMARK  10 active torsions:
REMARK  status: ('A' for Active; 'I' for Inactive)
REMARK    1  A    between atoms: C_1  and  O_2
REMARK    2  A    between atoms: O_2  and  C_3
REMARK    3  A    between atoms: C_6  and  C_7
REMARK    4  A    between atoms: C_10  and  C_11
REMARK    5  A    between atoms: C_11  and  O_12
REMARK    6  A    between atoms: O_12  and  C_13
REMARK    7  A    between atoms: C_13  and  C_14
REMARK    8  A    between atoms: C_16  and  C_17
REMARK    9  A    between atoms: C_19  and  C_20
REMARK   10  A    between atoms: C_22  and  C_23
REMARK                            x       y       z     vdW  Elec       q    Type
REMARK                         _______ _______ _______ _____ _____    ______ ____
ROOT
ATOM      1  C   UNL     1       2.674   6.761  17.611  0.00  0.00    +0.000 C 
ATOM      2  O   UNL     1       1.864   5.567  17.592  0.00  0.00    +0.000 OA
ATOM      3  C   UNL     1       2.037   4.727  18.734  0.00  0.00    +0.000 C 
ATOM      4  C   UNL     1       3.503   4.255  18.944  0.00  0.00    +0.000 C 
ATOM      5  C   UNL     1       4.036   3.399  17.732  0.00  0.00    +0.000 C 
ATOM      6  C   UNL     1       3.011   2.418  17.145  0.00  0.00    +0.000 C 
ATOM      7  C   UNL     1       4.632   4.216  16.607  0.00  0.00    +0.000 C 
ATOM      8  C   UNL     1       4.708   5.555  16.608  0.00  0.00    +0.000 C 
ATOM      9  C   UNL     1       5.457   6.295  15.537  0.00  0.00    +0.000 C 
ATOM     10  C   UNL     1       4.175   6.376  17.787  0.00  0.00    +0.000 C 
ATOM     11  C   UNL     1       4.360   5.557  19.090  0.00  0.00    +0.000 C 
ATOM     12  C   UNL     1       5.857   5.366  19.400  0.00  0.00    +0.000 C 
ENDROOT
BRANCH   1  16
ATOM     13  C   UNL     1       1.060   9.733  20.387  0.00  0.00    +0.000 A 
ATOM     14  C   UNL     1       1.469   8.486  20.852  0.00  0.00    +0.000 A 
ATOM     15  C   UNL     1       2.006   7.535  19.978  0.00  0.00    +0.000 A 
ATOM     16  C   UNL     1       2.110   7.791  18.603  0.00  0.00    +0.000 A 
ATOM     17  C   UNL     1       1.703   9.061  18.151  0.00  0.00    +0.000 A 
ATOM     18  C   UNL     1       1.172  10.017  19.029  0.00  0.00    +0.000 A 
BRANCH  13  20
ATOM     19  C   UNL     1      -0.112  11.731  20.848  0.00  0.00    +0.000 C 
ATOM     20  O   UNL     1       0.542  10.566  21.339  0.00  0.00    +0.000 OA
ENDBRANCH  13  20
ENDBRANCH   1  16
BRANCH   4  21
ATOM     21  C   UNL     1       3.542   3.386  20.230  0.00  0.00    +0.000 C 
BRANCH  21  22
ATOM     22  O   UNL     1       2.466   3.716  21.131  0.00  0.00    +0.000 OA
BRANCH  22  23
ATOM     23  C   UNL     1       1.579   2.722  21.413  0.00  0.00    +0.000 C 
ATOM     24  C   UNL     1       1.027   2.122  20.155  0.00  0.00    +0.000 C 
ATOM     25  O   UNL     1       1.266   2.343  22.532  0.00  0.00    +0.000 OA
ENDBRANCH  22  23
ENDBRANCH  21  22
ENDBRANCH   4  21
TORSDOF 5
ENDMDL
MODEL 5
REMARK VINA RESULT:      -6.9      2.004      4.315
REMARK  Name = 
REMARK  10 active torsions:
REMARK  status: ('A' for Active; 'I' for Inactive)
REMARK    1  A    between atoms: C_1  and  O_2
REMARK    2  A    between atoms: O_2  and  C_3
REMARK    3  A    between atoms: C_6  and  C_7
REMARK    4  A    between atoms: C_10  and  C_11
REMARK    5  A    between atoms: C_11  and  O_12
REMARK    6  A    between atoms: O_12  and  C_13
REMARK    7  A    between atoms: C_13  and  C_14
REMARK    8  A    between atoms: C_16  and  C_17
REMARK    9  A    between atoms: C_19  and  C_20
REMARK   10  A    between atoms: C_22  and  C_23
REMARK                            x       y       z     vdW  Elec       q    Type
REMARK                         _______ _______ _______ _____ _____    ______ ____
ROOT
ATOM      1  C   UNL     1       2.709   6.712  17.528  0.00  0.00    +0.000 C 
ATOM      2  O   UNL     1       1.896   5.521  17.560  0.00  0.00    +0.000 OA
ATOM      3  C   UNL     1       2.062   4.732  18.739  0.00  0.00    +0.000 C 
ATOM      4  C   UNL     1       3.526   4.267  18.976  0.00  0.00    +0.000 C 
ATOM      5  C   UNL     1       4.061   3.355  17.805  0.00  0.00    +0.000 C 
ATOM      6  C   UNL     1       3.035   2.352  17.260  0.00  0.00    +0.000 C 
ATOM      7  C   UNL     1       4.663   4.119  16.647  0.00  0.00    +0.000 C 
ATOM      8  C   UNL     1       4.743   5.457  16.588  0.00  0.00    +0.000 C 
ATOM      9  C   UNL     1       5.498   6.145  15.487  0.00  0.00    +0.000 C 
ATOM     10  C   UNL     1       4.209   6.332  17.727  0.00  0.00    +0.000 C 
ATOM     11  C   UNL     1       4.386   5.571  19.066  0.00  0.00    +0.000 C 
ATOM     12  C   UNL     1       5.882   5.390  19.389  0.00  0.00    +0.000 C 
ENDROOT
BRANCH   1  16
ATOM     13  C   UNL     1       1.113   9.734  20.260  0.00  0.00    +0.000 A 
ATOM     14  C   UNL     1       1.231  10.009  18.900  0.00  0.00    +0.000 A 
ATOM     15  C   UNL     1       1.721   9.044  18.013  0.00  0.00    +0.000 A 
ATOM     16  C   UNL     1       2.145   7.787  18.470  0.00  0.00    +0.000 A 
ATOM     17  C   UNL     1       2.008   7.522  19.846  0.00  0.00    +0.000 A 
ATOM     18  C   UNL     1       1.510   8.487  20.734  0.00  0.00    +0.000 A 
BRANCH  13  20
ATOM     19  C   UNL     1      -0.106  10.385  22.174  0.00  0.00    +0.000 C 
ATOM     20  O   UNL     1       0.634  10.764  21.020  0.00  0.00    +0.000 OA
ENDBRANCH  13  20
ENDBRANCH   1  16
BRANCH   4  21
ATOM     21  C   UNL     1       3.558   3.456  20.300  0.00  0.00    +0.000 C 
BRANCH  21  22
ATOM     22  O   UNL     1       2.437   3.775  21.149  0.00  0.00    +0.000 OA
BRANCH  22  23
ATOM     23  C   UNL     1       1.562   2.767  21.409  0.00  0.00    +0.000 C 
ATOM     24  C   UNL     1       0.749   2.434  20.195  0.00  0.00    +0.000 C 
ATOM     25  O   UNL     1       1.443   2.185  22.478  0.00  0.00    +0.000 OA
ENDBRANCH  22  23
ENDBRANCH  21  22
ENDBRANCH   4  21
TORSDOF 5
ENDMDL
MODEL 6
REMARK VINA RESULT:      -6.9      0.693      1.256
REMARK  Name = 
REMARK  10 active torsions:
REMARK  status: ('A' for Active; 'I' for Inactive)
REMARK    1  A    between atoms: C_1  and  O_2
REMARK    2  A    between atoms: O_2  and  C_3
REMARK    3  A    between atoms: C_6  and  C_7
REMARK    4  A    between atoms: C_10  and  C_11
REMARK    5  A    between atoms: C_11  and  O_12
REMARK    6  A    between atoms: O_12  and  C_13
REMARK    7  A    between atoms: C_13  and  C_14
REMARK    8  A    between atoms: C_16  and  C_17
REMARK    9  A    between atoms: C_19  and  C_20
REMARK   10  A    between atoms: C_22  and  C_23
REMARK                            x       y       z     vdW  Elec       q    Type
REMARK                         _______ _______ _______ _____ _____    ______ ____
ROOT
ATOM      1  C   UNL     1       2.487   5.955  20.345  0.00  0.00    +0.000 C 
ATOM      2  O   UNL     1       3.895   5.787  20.078  0.00  0.00    +0.000 OA
ATOM      3  C   UNL     1       4.202   5.534  18.706  0.00  0.00    +0.000 C 
ATOM      4  C   UNL     1       3.496   4.275  18.131  0.00  0.00    +0.000 C 
ATOM      5  C   UNL     1       3.917   2.956  18.885  0.00  0.00    +0.000 C 
ATOM      6  C   UNL     1       5.406   2.878  19.250  0.00  0.00    +0.000 C 
ATOM      7  C   UNL     1       3.095   2.654  20.119  0.00  0.00    +0.000 C 
ATOM      8  C   UNL     1       2.091   3.427  20.561  0.00  0.00    +0.000 C 
ATOM      9  C   UNL     1       1.211   2.987  21.695  0.00  0.00    +0.000 C 
ATOM     10  C   UNL     1       1.700   4.713  19.826  0.00  0.00    +0.000 C 
ATOM     11  C   UNL     1       1.960   4.520  18.310  0.00  0.00    +0.000 C 
ATOM     12  C   UNL     1       1.019   3.444  17.733  0.00  0.00    +0.000 C 
ENDROOT
BRANCH   1  16
ATOM     13  C   UNL     1       1.114   9.851  18.903  0.00  0.00    +0.000 A 
ATOM     14  C   UNL     1       0.835   9.446  20.206  0.00  0.00    +0.000 A 
ATOM     15  C   UNL     1       1.286   8.212  20.685  0.00  0.00    +0.000 A 
ATOM     16  C   UNL     1       1.996   7.328  19.859  0.00  0.00    +0.000 A 
ATOM     17  C   UNL     1       2.280   7.759  18.548  0.00  0.00    +0.000 A 
ATOM     18  C   UNL     1       1.834   9.000  18.070  0.00  0.00    +0.000 A 
BRANCH  13  20
ATOM     19  C   UNL     1      -0.789  11.244  18.772  0.00  0.00    +0.000 C 
ATOM     20  O   UNL     1       0.607  11.072  18.554  0.00  0.00    +0.000 OA
ENDBRANCH  13  20
ENDBRANCH   1  16
BRANCH   4  21
ATOM     21  C   UNL     1       3.894   4.148  16.635  0.00  0.00    +0.000 C 
BRANCH  21  22
ATOM     22  O   UNL     1       5.027   4.980  16.312  0.00  0.00    +0.000 OA
BRANCH  22  23
ATOM     23  C   UNL     1       6.133   4.347  15.833  0.00  0.00    +0.000 C 
ATOM     24  C   UNL     1       7.319   4.594  16.715  0.00  0.00    +0.000 C 
ATOM     25  O   UNL     1       6.176   3.653  14.827  0.00  0.00    +0.000 OA
ENDBRANCH  22  23
ENDBRANCH  21  22
ENDBRANCH   4  21
TORSDOF 5
ENDMDL
MODEL 7
REMARK VINA RESULT:      -6.8      1.075      1.230
REMARK  Name = 
REMARK  10 active torsions:
REMARK  status: ('A' for Active; 'I' for Inactive)
REMARK    1  A    between atoms: C_1  and  O_2
REMARK    2  A    between atoms: O_2  and  C_3
REMARK    3  A    between atoms: C_6  and  C_7
REMARK    4  A    between atoms: C_10  and  C_11
REMARK    5  A    between atoms: C_11  and  O_12
REMARK    6  A    between atoms: O_12  and  C_13
REMARK    7  A    between atoms: C_13  and  C_14
REMARK    8  A    between atoms: C_16  and  C_17
REMARK    9  A    between atoms: C_19  and  C_20
REMARK   10  A    between atoms: C_22  and  C_23
REMARK                            x       y       z     vdW  Elec       q    Type
REMARK                         _______ _______ _______ _____ _____    ______ ____
ROOT
ATOM      1  C   UNL     1       3.204   6.271  19.725  0.00  0.00    +0.000 C 
ATOM      2  O   UNL     1       4.580   6.555  19.399  0.00  0.00    +0.000 OA
ATOM      3  C   UNL     1       4.862   6.542  17.999  0.00  0.00    +0.000 C 
ATOM      4  C   UNL     1       4.520   5.193  17.307  0.00  0.00    +0.000 C 
ATOM      5  C   UNL     1       5.353   3.990  17.895  0.00  0.00    +0.000 C 
ATOM      6  C   UNL     1       6.820   4.322  18.204  0.00  0.00    +0.000 C 
ATOM      7  C   UNL     1       4.732   3.338  19.110  0.00  0.00    +0.000 C 
ATOM      8  C   UNL     1       3.576   3.730  19.666  0.00  0.00    +0.000 C 
ATOM      9  C   UNL     1       2.933   2.940  20.770  0.00  0.00    +0.000 C 
ATOM     10  C   UNL     1       2.782   4.909  19.093  0.00  0.00    +0.000 C 
ATOM     11  C   UNL     1       2.994   4.952  17.558  0.00  0.00    +0.000 C 
ATOM     12  C   UNL     1       2.373   3.709  16.891  0.00  0.00    +0.000 C 
ENDROOT
BRANCH   1  16
ATOM     13  C   UNL     1       0.630   9.710  18.892  0.00  0.00    +0.000 A 
ATOM     14  C   UNL     1       1.362   9.116  17.868  0.00  0.00    +0.000 A 
ATOM     15  C   UNL     1       2.173   8.004  18.117  0.00  0.00    +0.000 A 
ATOM     16  C   UNL     1       2.305   7.478  19.411  0.00  0.00    +0.000 A 
ATOM     17  C   UNL     1       1.548   8.083  20.433  0.00  0.00    +0.000 A 
ATOM     18  C   UNL     1       0.730   9.194  20.181  0.00  0.00    +0.000 A 
BRANCH  13  20
ATOM     19  C   UNL     1       0.275  12.035  19.104  0.00  0.00    +0.000 C 
ATOM     20  O   UNL     1      -0.112  10.796  18.521  0.00  0.00    +0.000 OA
ENDBRANCH  13  20
ENDBRANCH   1  16
BRANCH   4  21
ATOM     21  C   UNL     1       4.845   5.339  15.795  0.00  0.00    +0.000 C 
BRANCH  21  22
ATOM     22  O   UNL     1       5.564   4.195  15.290  0.00  0.00    +0.000 OA
BRANCH  22  23
ATOM     23  C   UNL     1       6.543   4.443  14.378  0.00  0.00    +0.000 C 
ATOM     24  C   UNL     1       6.283   3.709  13.097  0.00  0.00    +0.000 C 
ATOM     25  O   UNL     1       7.510   5.172  14.551  0.00  0.00    +0.000 OA
ENDBRANCH  22  23
ENDBRANCH  21  22
ENDBRANCH   4  21
TORSDOF 5
ENDMDL
MODEL 8
REMARK VINA RESULT:      -6.7      1.133      1.614
REMARK  Name = 
REMARK  10 active torsions:
REMARK  status: ('A' for Active; 'I' for Inactive)
REMARK    1  A    between atoms: C_1  and  O_2
REMARK    2  A    between atoms: O_2  and  C_3
REMARK    3  A    between atoms: C_6  and  C_7
REMARK    4  A    between atoms: C_10  and  C_11
REMARK    5  A    between atoms: C_11  and  O_12
REMARK    6  A    between atoms: O_12  and  C_13
REMARK    7  A    between atoms: C_13  and  C_14
REMARK    8  A    between atoms: C_16  and  C_17
REMARK    9  A    between atoms: C_19  and  C_20
REMARK   10  A    between atoms: C_22  and  C_23
REMARK                            x       y       z     vdW  Elec       q    Type
REMARK                         _______ _______ _______ _____ _____    ______ ____
ROOT
ATOM      1  C   UNL     1       3.237   6.216  19.713  0.00  0.00    +0.000 C 
ATOM      2  O   UNL     1       4.609   6.515  19.377  0.00  0.00    +0.000 OA
ATOM      3  C   UNL     1       4.876   6.533  17.975  0.00  0.00    +0.000 C 
ATOM      4  C   UNL     1       4.533   5.197  17.258  0.00  0.00    +0.000 C 
ATOM      5  C   UNL     1       5.380   3.987  17.811  0.00  0.00    +0.000 C 
ATOM      6  C   UNL     1       6.848   4.321  18.111  0.00  0.00    +0.000 C 
ATOM      7  C   UNL     1       4.775   3.305  19.018  0.00  0.00    +0.000 C 
ATOM      8  C   UNL     1       3.624   3.679  19.596  0.00  0.00    +0.000 C 
ATOM      9  C   UNL     1       2.998   2.861  20.688  0.00  0.00    +0.000 C 
ATOM     10  C   UNL     1       2.817   4.865  19.056  0.00  0.00    +0.000 C 
ATOM     11  C   UNL     1       3.011   4.942  17.520  0.00  0.00    +0.000 C 
ATOM     12  C   UNL     1       2.391   3.710  16.834  0.00  0.00    +0.000 C 
ENDROOT
BRANCH   1  16
ATOM     13  C   UNL     1       0.665   9.651  18.859  0.00  0.00    +0.000 A 
ATOM     14  C   UNL     1       0.752   9.143  20.152  0.00  0.00    +0.000 A 
ATOM     15  C   UNL     1       1.587   8.058  20.442  0.00  0.00    +0.000 A 
ATOM     16  C   UNL     1       2.328   7.424  19.434  0.00  0.00    +0.000 A 
ATOM     17  C   UNL     1       2.237   7.957  18.134  0.00  0.00    +0.000 A 
ATOM     18  C   UNL     1       1.406   9.050  17.846  0.00  0.00    +0.000 A 
BRANCH  13  20
ATOM     19  C   UNL     1      -0.934  11.068  19.865  0.00  0.00    +0.000 C 
ATOM     20  O   UNL     1      -0.194  10.702  18.706  0.00  0.00    +0.000 OA
ENDBRANCH  13  20
ENDBRANCH   1  16
BRANCH   4  21
ATOM     21  C   UNL     1       4.841   5.377  15.746  0.00  0.00    +0.000 C 
BRANCH  21  22
ATOM     22  O   UNL     1       5.479   4.210  15.188  0.00  0.00    +0.000 OA
BRANCH  22  23
ATOM     23  C   UNL     1       6.504   4.431  14.320  0.00  0.00    +0.000 C 
ATOM     24  C   UNL     1       6.301   3.670  13.044  0.00  0.00    +0.000 C 
ATOM     25  O   UNL     1       7.466   5.157  14.524  0.00  0.00    +0.000 OA
ENDBRANCH  22  23
ENDBRANCH  21  22
ENDBRANCH   4  21
TORSDOF 5
ENDMDL
MODEL 9
REMARK VINA RESULT:      -6.4      5.844      8.126
REMARK  Name = 
REMARK  10 active torsions:
REMARK  status: ('A' for Active; 'I' for Inactive)
REMARK    1  A    between atoms: C_1  and  O_2
REMARK    2  A    between atoms: O_2  and  C_3
REMARK    3  A    between atoms: C_6  and  C_7
REMARK    4  A    between atoms: C_10  and  C_11
REMARK    5  A    between atoms: C_11  and  O_12
REMARK    6  A    between atoms: O_12  and  C_13
REMARK    7  A    between atoms: C_13  and  C_14
REMARK    8  A    between atoms: C_16  and  C_17
REMARK    9  A    between atoms: C_19  and  C_20
REMARK   10  A    between atoms: C_22  and  C_23
REMARK                            x       y       z     vdW  Elec       q    Type
REMARK                         _______ _______ _______ _____ _____    ______ ____
ROOT
ATOM      1  C   UNL     1      -1.799  10.806  19.155  0.00  0.00    +0.000 C 
ATOM      2  O   UNL     1      -1.747  12.186  19.575  0.00  0.00    +0.000 OA
ATOM      3  C   UNL     1      -0.761  12.965  18.896  0.00  0.00    +0.000 C 
ATOM      4  C   UNL     1       0.683  12.410  19.045  0.00  0.00    +0.000 C 
ATOM      5  C   UNL     1       1.160  12.379  20.548  0.00  0.00    +0.000 C 
ATOM      6  C   UNL     1       0.740  13.602  21.375  0.00  0.00    +0.000 C 
ATOM      7  C   UNL     1       0.775  11.123  21.298  0.00  0.00    +0.000 C 
ATOM      8  C   UNL     1       0.080  10.109  20.761  0.00  0.00    +0.000 C 
ATOM      9  C   UNL     1      -0.129   8.824  21.509  0.00  0.00    +0.000 C 
ATOM     10  C   UNL     1      -0.388  10.157  19.303  0.00  0.00    +0.000 C 
ATOM     11  C   UNL     1       0.649  10.954  18.471  0.00  0.00    +0.000 C 
ATOM     12  C   UNL     1       1.993  10.201  18.419  0.00  0.00    +0.000 C 
ENDROOT
BRANCH   1  16
ATOM     13  C   UNL     1      -3.755  10.478  15.255  0.00  0.00    +0.000 A 
ATOM     14  C   UNL     1      -2.588   9.765  15.517  0.00  0.00    +0.000 A 
ATOM     15  C   UNL     1      -1.964   9.846  16.767  0.00  0.00    +0.000 A 
ATOM     16  C   UNL     1      -2.471  10.676  17.778  0.00  0.00    +0.000 A 
ATOM     17  C   UNL     1      -3.657  11.381  17.500  0.00  0.00    +0.000 A 
ATOM     18  C   UNL     1      -4.287  11.294  16.249  0.00  0.00    +0.000 A 
BRANCH  13  20
ATOM     19  C   UNL     1      -3.383   9.709  13.053  0.00  0.00    +0.000 C 
ATOM     20  O   UNL     1      -4.257  10.324  13.993  0.00  0.00    +0.000 OA
ENDBRANCH  13  20
ENDBRANCH   1  16
BRANCH   4  21
ATOM     21  C   UNL     1       1.633  13.333  18.234  0.00  0.00    +0.000 C 
BRANCH  21  22
ATOM     22  O   UNL     1       2.923  13.459  18.866  0.00  0.00    +0.000 OA
BRANCH  22  23
ATOM     23  C   UNL     1       3.442  14.714  18.950  0.00  0.00    +0.000 C 
ATOM     24  C   UNL     1       4.165  15.083  17.690  0.00  0.00    +0.000 C 
ATOM     25  O   UNL     1       3.336  15.466  19.909  0.00  0.00    +0.000 OA
ENDBRANCH  22  23
ENDBRANCH  21  22
ENDBRANCH   4  21
TORSDOF 5
ENDMDL
