MODEL 1
REMARK VINA RESULT:      -7.9      0.000      0.000
REMARK  Name = 
REMARK  16 active torsions:
REMARK  status: ('A' for Active; 'I' for Inactive)
REMARK    1  A    between atoms: C_1  and  C_2
REMARK    2  A    between atoms: C_2  and  C_3
REMARK    3  A    between atoms: C_2  and  N_4
REMARK    4  A    between atoms: N_4  and  C_5
REMARK    5  A    between atoms: C_5  and  C_6
REMARK    6  A    between atoms: C_10  and  O_11
REMARK    7  A    between atoms: O_11  and  C_12
REMARK    8  A    between atoms: C_12  and  C_13
REMARK    9  A    between atoms: C_13  and  C_14
REMARK   10  A    between atoms: C_14  and  C_15
REMARK   11  A    between atoms: C_15  and  C_16
REMARK   12  A    between atoms: C_16  and  C_17
REMARK   13  A    between atoms: C_17  and  O_19
REMARK   14  A    between atoms: C_21  and  C_23
REMARK   15  A    between atoms: C_26  and  C_27
REMARK   16  A    between atoms: C_31  and  O_32
REMARK                            x       y       z     vdW  Elec       q    Type
REMARK                         _______ _______ _______ _____ _____    ______ ____
ROOT
ATOM      1  N   UNL     1       4.871   4.578  18.222  0.00  0.00    +0.000 N 
ATOM      2  C   UNL     1       6.052   4.933  17.525  0.00  0.00    +0.000 C 
ATOM      3  O   UNL     1       6.533   4.249  16.623  0.00  0.00    +0.000 OA
ENDROOT
BRANCH   2   4
ATOM      4  C   UNL     1       6.782   6.199  17.824  0.00  0.00    +0.000 A 
ATOM      5  C   UNL     1       7.846   6.273  18.721  0.00  0.00    +0.000 A 
ATOM      6  C   UNL     1       8.465   7.489  18.995  0.00  0.00    +0.000 A 
ATOM      7  C   UNL     1       8.120   8.651  18.294  0.00  0.00    +0.000 A 
ATOM      8  C   UNL     1       7.112   8.548  17.320  0.00  0.00    +0.000 A 
ATOM      9  C   UNL     1       6.441   7.341  17.095  0.00  0.00    +0.000 A 
BRANCH   7  10
ATOM     10  C   UNL     1       8.826   9.918  18.560  0.00  0.00    +0.000 A 
ATOM     11  C   UNL     1       9.627  10.079  19.706  0.00  0.00    +0.000 A 
ATOM     12  C   UNL     1      10.302  11.272  19.953  0.00  0.00    +0.000 A 
ATOM     13  C   UNL     1      10.173  12.347  19.065  0.00  0.00    +0.000 A 
ATOM     14  C   UNL     1       9.367  12.205  17.942  0.00  0.00    +0.000 A 
ATOM     15  C   UNL     1       8.705  11.014  17.688  0.00  0.00    +0.000 A 
BRANCH  14  16
ATOM     16  O   UNL     1       9.194  13.230  17.056  0.00  0.00    +0.000 OA
ATOM     17  H   UNL     1       8.792  12.878  16.245  0.00  0.00    +0.000 HD
ENDBRANCH  14  16
ENDBRANCH   7  10
ENDBRANCH   2   4
BRANCH   1  19
ATOM     18  C   UNL     1       4.001   2.457  19.209  0.00  0.00    +0.000 C 
ATOM     19  C   UNL     1       4.262   3.267  17.933  0.00  0.00    +0.000 C 
ATOM     20  C   UNL     1       2.991   3.399  17.088  0.00  0.00    +0.000 C 
ENDBRANCH   1  19
BRANCH   1  21
ATOM     21  C   UNL     1       4.339   5.423  19.286  0.00  0.00    +0.000 C 
BRANCH  21  22
ATOM     22  C   UNL     1       3.225   6.416  19.085  0.00  0.00    +0.000 A 
ATOM     23  C   UNL     1       3.182   7.244  17.961  0.00  0.00    +0.000 A 
ATOM     24  C   UNL     1       2.344   8.361  17.955  0.00  0.00    +0.000 A 
ATOM     25  C   UNL     1       1.589   8.684  19.088  0.00  0.00    +0.000 A 
ATOM     26  C   UNL     1       1.634   7.872  20.218  0.00  0.00    +0.000 A 
ATOM     27  C   UNL     1       2.377   6.693  20.175  0.00  0.00    +0.000 A 
BRANCH  26  28
ATOM     28  O   UNL     1       0.991   8.339  21.338  0.00  0.00    +0.000 OA
BRANCH  28  29
ATOM     29  C   UNL     1       0.943   9.768  21.448  0.00  0.00    +0.000 C 
BRANCH  29  30
ATOM     30  C   UNL     1      -0.508  10.249  21.459  0.00  0.00    +0.000 C 
BRANCH  30  31
ATOM     31  C   UNL     1      -0.683  11.386  22.473  0.00  0.00    +0.000 C 
BRANCH  31  32
ATOM     32  C   UNL     1      -2.107  11.947  22.470  0.00  0.00    +0.000 C 
BRANCH  32  33
ATOM     33  C   UNL     1      -2.324  13.027  23.528  0.00  0.00    +0.000 C 
BRANCH  33  34
ATOM     34  C   UNL     1      -3.675  12.929  24.193  0.00  0.00    +0.000 C 
ATOM     35  O   UNL     1      -4.289  11.880  24.339  0.00  0.00    +0.000 OA
BRANCH  34  36
ATOM     36  O   UNL     1      -4.133  14.109  24.664  0.00  0.00    +0.000 OA
ATOM     37  H   UNL     1      -4.503  14.695  23.979  0.00  0.00    +0.000 HD
ENDBRANCH  34  36
ENDBRANCH  33  34
ENDBRANCH  32  33
ENDBRANCH  31  32
ENDBRANCH  30  31
ENDBRANCH  29  30
ENDBRANCH  28  29
ENDBRANCH  26  28
ENDBRANCH  21  22
ENDBRANCH   1  21
TORSDOF 14
ENDMDL
MODEL 2
REMARK VINA RESULT:      -7.9      2.534      8.454
REMARK  Name = 
REMARK  16 active torsions:
REMARK  status: ('A' for Active; 'I' for Inactive)
REMARK    1  A    between atoms: C_1  and  C_2
REMARK    2  A    between atoms: C_2  and  C_3
REMARK    3  A    between atoms: C_2  and  N_4
REMARK    4  A    between atoms: N_4  and  C_5
REMARK    5  A    between atoms: C_5  and  C_6
REMARK    6  A    between atoms: C_10  and  O_11
REMARK    7  A    between atoms: O_11  and  C_12
REMARK    8  A    between atoms: C_12  and  C_13
REMARK    9  A    between atoms: C_13  and  C_14
REMARK   10  A    between atoms: C_14  and  C_15
REMARK   11  A    between atoms: C_15  and  C_16
REMARK   12  A    between atoms: C_16  and  C_17
REMARK   13  A    between atoms: C_17  and  O_19
REMARK   14  A    between atoms: C_21  and  C_23
REMARK   15  A    between atoms: C_26  and  C_27
REMARK   16  A    between atoms: C_31  and  O_32
REMARK                            x       y       z     vdW  Elec       q    Type
REMARK                         _______ _______ _______ _____ _____    ______ ____
ROOT
ATOM      1  N   UNL     1       3.035   4.631  18.946  0.00  0.00    +0.000 N 
ATOM      2  C   UNL     1       2.574   5.501  19.964  0.00  0.00    +0.000 C 
ATOM      3  O   UNL     1       2.503   5.173  21.148  0.00  0.00    +0.000 OA
ENDROOT
BRANCH   2   4
ATOM      4  C   UNL     1       2.172   6.905  19.665  0.00  0.00    +0.000 A 
ATOM      5  C   UNL     1       2.337   7.496  18.413  0.00  0.00    +0.000 A 
ATOM      6  C   UNL     1       1.983   8.825  18.200  0.00  0.00    +0.000 A 
ATOM      7  C   UNL     1       1.343   9.573  19.196  0.00  0.00    +0.000 A 
ATOM      8  C   UNL     1       1.091   8.939  20.424  0.00  0.00    +0.000 A 
ATOM      9  C   UNL     1       1.511   7.626  20.663  0.00  0.00    +0.000 A 
BRANCH   7  10
ATOM     10  C   UNL     1       0.926  10.962  18.931  0.00  0.00    +0.000 A 
ATOM     11  C   UNL     1       1.864  11.948  18.569  0.00  0.00    +0.000 A 
ATOM     12  C   UNL     1       1.469  13.258  18.310  0.00  0.00    +0.000 A 
ATOM     13  C   UNL     1       0.122  13.621  18.429  0.00  0.00    +0.000 A 
ATOM     14  C   UNL     1      -0.808  12.660  18.808  0.00  0.00    +0.000 A 
ATOM     15  C   UNL     1      -0.419  11.353  19.053  0.00  0.00    +0.000 A 
BRANCH  14  16
ATOM     16  O   UNL     1      -2.130  12.969  18.955  0.00  0.00    +0.000 OA
ATOM     17  H   UNL     1      -2.380  13.610  18.270  0.00  0.00    +0.000 HD
ENDBRANCH  14  16
ENDBRANCH   7  10
ENDBRANCH   2   4
BRANCH   1  19
ATOM     18  C   UNL     1       2.765   2.241  18.276  0.00  0.00    +0.000 C 
ATOM     19  C   UNL     1       3.324   3.230  19.306  0.00  0.00    +0.000 C 
ATOM     20  C   UNL     1       4.819   2.998  19.546  0.00  0.00    +0.000 C 
ENDBRANCH   1  19
BRANCH   1  21
ATOM     21  C   UNL     1       3.103   5.065  17.554  0.00  0.00    +0.000 C 
BRANCH  21  22
ATOM     22  C   UNL     1       4.359   5.020  16.725  0.00  0.00    +0.000 A 
ATOM     23  C   UNL     1       4.731   3.868  16.030  0.00  0.00    +0.000 A 
ATOM     24  C   UNL     1       6.036   3.741  15.548  0.00  0.00    +0.000 A 
ATOM     25  C   UNL     1       6.984   4.736  15.804  0.00  0.00    +0.000 A 
ATOM     26  C   UNL     1       6.626   5.884  16.507  0.00  0.00    +0.000 A 
ATOM     27  C   UNL     1       5.295   6.061  16.880  0.00  0.00    +0.000 A 
BRANCH  26  28
ATOM     28  O   UNL     1       7.646   6.737  16.853  0.00  0.00    +0.000 OA
BRANCH  28  29
ATOM     29  C   UNL     1       7.235   7.885  17.608  0.00  0.00    +0.000 C 
BRANCH  29  30
ATOM     30  C   UNL     1       8.412   8.439  18.410  0.00  0.00    +0.000 C 
BRANCH  30  31
ATOM     31  C   UNL     1       8.654   9.909  18.051  0.00  0.00    +0.000 C 
BRANCH  31  32
ATOM     32  C   UNL     1       9.563  10.608  19.065  0.00  0.00    +0.000 C 
BRANCH  32  33
ATOM     33  C   UNL     1      10.538  11.590  18.416  0.00  0.00    +0.000 C 
BRANCH  33  34
ATOM     34  C   UNL     1       9.990  12.994  18.343  0.00  0.00    +0.000 C 
ATOM     35  O   UNL     1      10.145  13.833  19.221  0.00  0.00    +0.000 OA
BRANCH  34  36
ATOM     36  O   UNL     1       9.346  13.264  17.188  0.00  0.00    +0.000 OA
ATOM     37  H   UNL     1       9.933  13.523  16.455  0.00  0.00    +0.000 HD
ENDBRANCH  34  36
ENDBRANCH  33  34
ENDBRANCH  32  33
ENDBRANCH  31  32
ENDBRANCH  30  31
ENDBRANCH  29  30
ENDBRANCH  28  29
ENDBRANCH  26  28
ENDBRANCH  21  22
ENDBRANCH   1  21
TORSDOF 14
ENDMDL
MODEL 3
REMARK VINA RESULT:      -7.8      2.021      2.382
REMARK  Name = 
REMARK  16 active torsions:
REMARK  status: ('A' for Active; 'I' for Inactive)
REMARK    1  A    between atoms: C_1  and  C_2
REMARK    2  A    between atoms: C_2  and  C_3
REMARK    3  A    between atoms: C_2  and  N_4
REMARK    4  A    between atoms: N_4  and  C_5
REMARK    5  A    between atoms: C_5  and  C_6
REMARK    6  A    between atoms: C_10  and  O_11
REMARK    7  A    between atoms: O_11  and  C_12
REMARK    8  A    between atoms: C_12  and  C_13
REMARK    9  A    between atoms: C_13  and  C_14
REMARK   10  A    between atoms: C_14  and  C_15
REMARK   11  A    between atoms: C_15  and  C_16
REMARK   12  A    between atoms: C_16  and  C_17
REMARK   13  A    between atoms: C_17  and  O_19
REMARK   14  A    between atoms: C_21  and  C_23
REMARK   15  A    between atoms: C_26  and  C_27
REMARK   16  A    between atoms: C_31  and  O_32
REMARK                            x       y       z     vdW  Elec       q    Type
REMARK                         _______ _______ _______ _____ _____    ______ ____
ROOT
ATOM      1  N   UNL     1       4.923   4.563  18.220  0.00  0.00    +0.000 N 
ATOM      2  C   UNL     1       6.064   4.943  17.472  0.00  0.00    +0.000 C 
ATOM      3  O   UNL     1       6.530   4.260  16.561  0.00  0.00    +0.000 OA
ENDROOT
BRANCH   2   4
ATOM      4  C   UNL     1       6.764   6.235  17.724  0.00  0.00    +0.000 A 
ATOM      5  C   UNL     1       6.403   7.432  17.107  0.00  0.00    +0.000 A 
ATOM      6  C   UNL     1       7.119   8.602  17.345  0.00  0.00    +0.000 A 
ATOM      7  C   UNL     1       8.144   8.642  18.297  0.00  0.00    +0.000 A 
ATOM      8  C   UNL     1       8.439   7.453  18.987  0.00  0.00    +0.000 A 
ATOM      9  C   UNL     1       7.767   6.260  18.697  0.00  0.00    +0.000 A 
BRANCH   7  10
ATOM     10  C   UNL     1       8.853   9.904  18.575  0.00  0.00    +0.000 A 
ATOM     11  C   UNL     1       9.607  10.074  19.751  0.00  0.00    +0.000 A 
ATOM     12  C   UNL     1      10.285  11.263  20.009  0.00  0.00    +0.000 A 
ATOM     13  C   UNL     1      10.206  12.325  19.101  0.00  0.00    +0.000 A 
ATOM     14  C   UNL     1       9.445  12.177  17.947  0.00  0.00    +0.000 A 
ATOM     15  C   UNL     1       8.781  10.989  17.683  0.00  0.00    +0.000 A 
BRANCH  14  16
ATOM     16  O   UNL     1       9.322  13.190  17.040  0.00  0.00    +0.000 OA
ATOM     17  H   UNL     1      10.192  13.599  16.907  0.00  0.00    +0.000 HD
ENDBRANCH  14  16
ENDBRANCH   7  10
ENDBRANCH   2   4
BRANCH   1  19
ATOM     18  C   UNL     1       4.073   2.468  19.278  0.00  0.00    +0.000 C 
ATOM     19  C   UNL     1       4.343   3.229  17.975  0.00  0.00    +0.000 C 
ATOM     20  C   UNL     1       3.087   3.302  17.102  0.00  0.00    +0.000 C 
ENDBRANCH   1  19
BRANCH   1  21
ATOM     21  C   UNL     1       4.406   5.407  19.292  0.00  0.00    +0.000 C 
BRANCH  21  22
ATOM     22  C   UNL     1       3.254   6.361  19.122  0.00  0.00    +0.000 A 
ATOM     23  C   UNL     1       3.105   7.123  17.962  0.00  0.00    +0.000 A 
ATOM     24  C   UNL     1       2.238   8.219  17.959  0.00  0.00    +0.000 A 
ATOM     25  C   UNL     1       1.560   8.587  19.126  0.00  0.00    +0.000 A 
ATOM     26  C   UNL     1       1.712   7.840  20.292  0.00  0.00    +0.000 A 
ATOM     27  C   UNL     1       2.482   6.679  20.257  0.00  0.00    +0.000 A 
BRANCH  26  28
ATOM     28  O   UNL     1       1.140   8.354  21.430  0.00  0.00    +0.000 OA
BRANCH  28  29
ATOM     29  C   UNL     1      -0.070   9.092  21.212  0.00  0.00    +0.000 C 
BRANCH  29  30
ATOM     30  C   UNL     1      -0.381   9.969  22.424  0.00  0.00    +0.000 C 
BRANCH  30  31
ATOM     31  C   UNL     1      -0.441  11.444  22.013  0.00  0.00    +0.000 C 
BRANCH  31  32
ATOM     32  C   UNL     1      -1.469  11.693  20.907  0.00  0.00    +0.000 C 
BRANCH  32  33
ATOM     33  C   UNL     1      -1.074  12.834  19.971  0.00  0.00    +0.000 C 
BRANCH  33  34
ATOM     34  C   UNL     1      -0.593  12.346  18.626  0.00  0.00    +0.000 C 
ATOM     35  O   UNL     1       0.016  11.298  18.459  0.00  0.00    +0.000 OA
BRANCH  34  36
ATOM     36  O   UNL     1      -0.938  13.156  17.602  0.00  0.00    +0.000 OA
ATOM     37  H   UNL     1      -0.181  13.564  17.144  0.00  0.00    +0.000 HD
ENDBRANCH  34  36
ENDBRANCH  33  34
ENDBRANCH  32  33
ENDBRANCH  31  32
ENDBRANCH  30  31
ENDBRANCH  29  30
ENDBRANCH  28  29
ENDBRANCH  26  28
ENDBRANCH  21  22
ENDBRANCH   1  21
TORSDOF 14
ENDMDL
MODEL 4
REMARK VINA RESULT:      -7.7      3.994      9.649
REMARK  Name = 
REMARK  16 active torsions:
REMARK  status: ('A' for Active; 'I' for Inactive)
REMARK    1  A    between atoms: C_1  and  C_2
REMARK    2  A    between atoms: C_2  and  C_3
REMARK    3  A    between atoms: C_2  and  N_4
REMARK    4  A    between atoms: N_4  and  C_5
REMARK    5  A    between atoms: C_5  and  C_6
REMARK    6  A    between atoms: C_10  and  O_11
REMARK    7  A    between atoms: O_11  and  C_12
REMARK    8  A    between atoms: C_12  and  C_13
REMARK    9  A    between atoms: C_13  and  C_14
REMARK   10  A    between atoms: C_14  and  C_15
REMARK   11  A    between atoms: C_15  and  C_16
REMARK   12  A    between atoms: C_16  and  C_17
REMARK   13  A    between atoms: C_17  and  O_19
REMARK   14  A    between atoms: C_21  and  C_23
REMARK   15  A    between atoms: C_26  and  C_27
REMARK   16  A    between atoms: C_31  and  O_32
REMARK                            x       y       z     vdW  Elec       q    Type
REMARK                         _______ _______ _______ _____ _____    ______ ____
ROOT
ATOM      1  N   UNL     1       3.382   3.920  19.411  0.00  0.00    +0.000 N 
ATOM      2  C   UNL     1       2.174   4.553  19.032  0.00  0.00    +0.000 C 
ATOM      3  O   UNL     1       1.185   3.934  18.639  0.00  0.00    +0.000 OA
ENDROOT
BRANCH   2   4
ATOM      4  C   UNL     1       2.008   6.032  19.119  0.00  0.00    +0.000 A 
ATOM      5  C   UNL     1       1.700   6.697  20.305  0.00  0.00    +0.000 A 
ATOM      6  C   UNL     1       1.515   8.077  20.322  0.00  0.00    +0.000 A 
ATOM      7  C   UNL     1       1.747   8.852  19.180  0.00  0.00    +0.000 A 
ATOM      8  C   UNL     1       2.152   8.185  18.011  0.00  0.00    +0.000 A 
ATOM      9  C   UNL     1       2.270   6.791  17.975  0.00  0.00    +0.000 A 
BRANCH   7  10
ATOM     10  C   UNL     1       1.598  10.318  19.233  0.00  0.00    +0.000 A 
ATOM     11  C   UNL     1       0.884  10.941  20.274  0.00  0.00    +0.000 A 
ATOM     12  C   UNL     1       0.751  12.326  20.330  0.00  0.00    +0.000 A 
ATOM     13  C   UNL     1       1.316  13.125  19.328  0.00  0.00    +0.000 A 
ATOM     14  C   UNL     1       2.004  12.519  18.283  0.00  0.00    +0.000 A 
ATOM     15  C   UNL     1       2.148  11.140  18.234  0.00  0.00    +0.000 A 
BRANCH  14  16
ATOM     16  O   UNL     1       2.556  13.252  17.273  0.00  0.00    +0.000 OA
ATOM     17  H   UNL     1       3.054  13.991  17.659  0.00  0.00    +0.000 HD
ENDBRANCH  14  16
ENDBRANCH   7  10
ENDBRANCH   2   4
BRANCH   1  19
ATOM     18  C   UNL     1       3.743   2.103  17.738  0.00  0.00    +0.000 C 
ATOM     19  C   UNL     1       3.499   2.464  19.208  0.00  0.00    +0.000 C 
ATOM     20  C   UNL     1       4.564   1.842  20.118  0.00  0.00    +0.000 C 
ENDBRANCH   1  19
BRANCH   1  21
ATOM     21  C   UNL     1       4.529   4.696  19.872  0.00  0.00    +0.000 C 
BRANCH  21  22
ATOM     22  C   UNL     1       5.701   5.054  18.997  0.00  0.00    +0.000 A 
ATOM     23  C   UNL     1       6.863   5.615  19.531  0.00  0.00    +0.000 A 
ATOM     24  C   UNL     1       7.786   6.231  18.683  0.00  0.00    +0.000 A 
ATOM     25  C   UNL     1       7.528   6.337  17.313  0.00  0.00    +0.000 A 
ATOM     26  C   UNL     1       6.366   5.791  16.773  0.00  0.00    +0.000 A 
ATOM     27  C   UNL     1       5.507   5.072  17.602  0.00  0.00    +0.000 A 
BRANCH  26  28
ATOM     28  O   UNL     1       6.110   6.072  15.453  0.00  0.00    +0.000 OA
BRANCH  28  29
ATOM     29  C   UNL     1       5.395   5.047  14.751  0.00  0.00    +0.000 C 
BRANCH  29  30
ATOM     30  C   UNL     1       6.372   4.029  14.163  0.00  0.00    +0.000 C 
BRANCH  30  31
ATOM     31  C   UNL     1       6.171   3.911  12.648  0.00  0.00    +0.000 C 
BRANCH  31  32
ATOM     32  C   UNL     1       5.074   2.907  12.288  0.00  0.00    +0.000 C 
BRANCH  32  33
ATOM     33  C   UNL     1       5.355   2.158  10.987  0.00  0.00    +0.000 C 
BRANCH  33  34
ATOM     34  C   UNL     1       6.325   1.016  11.167  0.00  0.00    +0.000 C 
ATOM     35  O   UNL     1       6.005  -0.165  11.121  0.00  0.00    +0.000 OA
BRANCH  34  36
ATOM     36  O   UNL     1       7.603   1.415  11.340  0.00  0.00    +0.000 OA
ATOM     37  H   UNL     1       8.192   1.200  10.594  0.00  0.00    +0.000 HD
ENDBRANCH  34  36
ENDBRANCH  33  34
ENDBRANCH  32  33
ENDBRANCH  31  32
ENDBRANCH  30  31
ENDBRANCH  29  30
ENDBRANCH  28  29
ENDBRANCH  26  28
ENDBRANCH  21  22
ENDBRANCH   1  21
TORSDOF 14
ENDMDL
MODEL 5
REMARK VINA RESULT:      -7.7      4.431      7.782
REMARK  Name = 
REMARK  16 active torsions:
REMARK  status: ('A' for Active; 'I' for Inactive)
REMARK    1  A    between atoms: C_1  and  C_2
REMARK    2  A    between atoms: C_2  and  C_3
REMARK    3  A    between atoms: C_2  and  N_4
REMARK    4  A    between atoms: N_4  and  C_5
REMARK    5  A    between atoms: C_5  and  C_6
REMARK    6  A    between atoms: C_10  and  O_11
REMARK    7  A    between atoms: O_11  and  C_12
REMARK    8  A    between atoms: C_12  and  C_13
REMARK    9  A    between atoms: C_13  and  C_14
REMARK   10  A    between atoms: C_14  and  C_15
REMARK   11  A    between atoms: C_15  and  C_16
REMARK   12  A    between atoms: C_16  and  C_17
REMARK   13  A    between atoms: C_17  and  O_19
REMARK   14  A    between atoms: C_21  and  C_23
REMARK   15  A    between atoms: C_26  and  C_27
REMARK   16  A    between atoms: C_31  and  O_32
REMARK                            x       y       z     vdW  Elec       q    Type
REMARK                         _______ _______ _______ _____ _____    ______ ____
ROOT
ATOM      1  N   UNL     1      -0.218  11.522  19.560  0.00  0.00    +0.000 N 
ATOM      2  C   UNL     1       1.148  11.170  19.435  0.00  0.00    +0.000 C 
ATOM      3  O   UNL     1       2.065  11.985  19.536  0.00  0.00    +0.000 OA
ENDROOT
BRANCH   2   4
ATOM      4  C   UNL     1       1.571   9.760  19.203  0.00  0.00    +0.000 A 
ATOM      5  C   UNL     1       1.523   8.777  20.191  0.00  0.00    +0.000 A 
ATOM      6  C   UNL     1       1.969   7.484  19.933  0.00  0.00    +0.000 A 
ATOM      7  C   UNL     1       2.368   7.099  18.647  0.00  0.00    +0.000 A 
ATOM      8  C   UNL     1       2.321   8.071  17.633  0.00  0.00    +0.000 A 
ATOM      9  C   UNL     1       1.940   9.388  17.907  0.00  0.00    +0.000 A 
BRANCH   7  10
ATOM     10  C   UNL     1       2.786   5.710  18.383  0.00  0.00    +0.000 A 
ATOM     11  C   UNL     1       1.899   4.778  17.810  0.00  0.00    +0.000 A 
ATOM     12  C   UNL     1       2.296   3.469  17.551  0.00  0.00    +0.000 A 
ATOM     13  C   UNL     1       3.591   3.051  17.881  0.00  0.00    +0.000 A 
ATOM     14  C   UNL     1       4.467   3.956  18.468  0.00  0.00    +0.000 A 
ATOM     15  C   UNL     1       4.078   5.264  18.714  0.00  0.00    +0.000 A 
BRANCH  14  16
ATOM     16  O   UNL     1       5.734   3.593  18.824  0.00  0.00    +0.000 OA
ATOM     17  H   UNL     1       5.848   2.645  18.649  0.00  0.00    +0.000 HD
ENDBRANCH  14  16
ENDBRANCH   7  10
ENDBRANCH   2   4
BRANCH   1  19
ATOM     18  C   UNL     1      -0.705  13.641  18.333  0.00  0.00    +0.000 C 
ATOM     19  C   UNL     1      -0.559  12.951  19.694  0.00  0.00    +0.000 C 
ATOM     20  C   UNL     1      -1.803  13.164  20.563  0.00  0.00    +0.000 C 
ENDBRANCH   1  19
BRANCH   1  21
ATOM     21  C   UNL     1      -1.271  10.520  19.433  0.00  0.00    +0.000 C 
BRANCH  21  22
ATOM     22  C   UNL     1      -2.264  10.491  18.301  0.00  0.00    +0.000 A 
ATOM     23  C   UNL     1      -1.884  10.116  17.011  0.00  0.00    +0.000 A 
ATOM     24  C   UNL     1      -2.722  10.407  15.931  0.00  0.00    +0.000 A 
ATOM     25  C   UNL     1      -3.910  11.117  16.129  0.00  0.00    +0.000 A 
ATOM     26  C   UNL     1      -4.291  11.505  17.411  0.00  0.00    +0.000 A 
ATOM     27  C   UNL     1      -3.514  11.107  18.498  0.00  0.00    +0.000 A 
BRANCH  26  28
ATOM     28  O   UNL     1      -5.386  12.330  17.504  0.00  0.00    +0.000 OA
BRANCH  28  29
ATOM     29  C   UNL     1      -6.639  11.648  17.647  0.00  0.00    +0.000 C 
BRANCH  29  30
ATOM     30  C   UNL     1      -7.029  11.563  19.123  0.00  0.00    +0.000 C 
BRANCH  30  31
ATOM     31  C   UNL     1      -6.526  12.798  19.878  0.00  0.00    +0.000 C 
BRANCH  31  32
ATOM     32  C   UNL     1      -5.795  12.426  21.170  0.00  0.00    +0.000 C 
BRANCH  32  33
ATOM     33  C   UNL     1      -5.541  13.627  22.079  0.00  0.00    +0.000 C 
BRANCH  33  34
ATOM     34  C   UNL     1      -5.645  13.283  23.544  0.00  0.00    +0.000 C 
ATOM     35  O   UNL     1      -5.209  12.251  24.036  0.00  0.00    +0.000 OA
BRANCH  34  36
ATOM     36  O   UNL     1      -6.229  14.249  24.286  0.00  0.00    +0.000 OA
ATOM     37  H   UNL     1      -5.767  15.107  24.258  0.00  0.00    +0.000 HD
ENDBRANCH  34  36
ENDBRANCH  33  34
ENDBRANCH  32  33
ENDBRANCH  31  32
ENDBRANCH  30  31
ENDBRANCH  29  30
ENDBRANCH  28  29
ENDBRANCH  26  28
ENDBRANCH  21  22
ENDBRANCH   1  21
TORSDOF 14
ENDMDL
MODEL 6
REMARK VINA RESULT:      -7.7      2.690      8.501
REMARK  Name = 
REMARK  16 active torsions:
REMARK  status: ('A' for Active; 'I' for Inactive)
REMARK    1  A    between atoms: C_1  and  C_2
REMARK    2  A    between atoms: C_2  and  C_3
REMARK    3  A    between atoms: C_2  and  N_4
REMARK    4  A    between atoms: N_4  and  C_5
REMARK    5  A    between atoms: C_5  and  C_6
REMARK    6  A    between atoms: C_10  and  O_11
REMARK    7  A    between atoms: O_11  and  C_12
REMARK    8  A    between atoms: C_12  and  C_13
REMARK    9  A    between atoms: C_13  and  C_14
REMARK   10  A    between atoms: C_14  and  C_15
REMARK   11  A    between atoms: C_15  and  C_16
REMARK   12  A    between atoms: C_16  and  C_17
REMARK   13  A    between atoms: C_17  and  O_19
REMARK   14  A    between atoms: C_21  and  C_23
REMARK   15  A    between atoms: C_26  and  C_27
REMARK   16  A    between atoms: C_31  and  O_32
REMARK                            x       y       z     vdW  Elec       q    Type
REMARK                         _______ _______ _______ _____ _____    ______ ____
ROOT
ATOM      1  N   UNL     1       3.131   4.432  18.833  0.00  0.00    +0.000 N 
ATOM      2  C   UNL     1       2.581   5.101  19.954  0.00  0.00    +0.000 C 
ATOM      3  O   UNL     1       2.465   4.576  21.061  0.00  0.00    +0.000 OA
ENDROOT
BRANCH   2   4
ATOM      4  C   UNL     1       2.131   6.520  19.870  0.00  0.00    +0.000 A 
ATOM      5  C   UNL     1       2.259   7.294  18.718  0.00  0.00    +0.000 A 
ATOM      6  C   UNL     1       1.860   8.628  18.707  0.00  0.00    +0.000 A 
ATOM      7  C   UNL     1       1.213   9.199  19.809  0.00  0.00    +0.000 A 
ATOM      8  C   UNL     1       0.999   8.383  20.933  0.00  0.00    +0.000 A 
ATOM      9  C   UNL     1       1.463   7.063  20.971  0.00  0.00    +0.000 A 
BRANCH   7  10
ATOM     10  C   UNL     1       0.749  10.598  19.757  0.00  0.00    +0.000 A 
ATOM     11  C   UNL     1       0.982  11.483  20.827  0.00  0.00    +0.000 A 
ATOM     12  C   UNL     1       0.553  12.807  20.775  0.00  0.00    +0.000 A 
ATOM     13  C   UNL     1      -0.143  13.274  19.653  0.00  0.00    +0.000 A 
ATOM     14  C   UNL     1      -0.399  12.402  18.601  0.00  0.00    +0.000 A 
ATOM     15  C   UNL     1       0.040  11.087  18.646  0.00  0.00    +0.000 A 
BRANCH  14  16
ATOM     16  O   UNL     1      -1.089  12.804  17.494  0.00  0.00    +0.000 OA
ATOM     17  H   UNL     1      -0.610  13.537  17.075  0.00  0.00    +0.000 HD
ENDBRANCH  14  16
ENDBRANCH   7  10
ENDBRANCH   2   4
BRANCH   1  19
ATOM     18  C   UNL     1       4.524   2.758  20.053  0.00  0.00    +0.000 C 
ATOM     19  C   UNL     1       3.465   3.002  18.971  0.00  0.00    +0.000 C 
ATOM     20  C   UNL     1       2.219   2.143  19.207  0.00  0.00    +0.000 C 
ENDBRANCH   1  19
BRANCH   1  21
ATOM     21  C   UNL     1       3.249   5.097  17.539  0.00  0.00    +0.000 C 
BRANCH  21  22
ATOM     22  C   UNL     1       4.493   5.061  16.693  0.00  0.00    +0.000 A 
ATOM     23  C   UNL     1       4.867   3.911  15.996  0.00  0.00    +0.000 A 
ATOM     24  C   UNL     1       6.166   3.795  15.496  0.00  0.00    +0.000 A 
ATOM     25  C   UNL     1       7.108   4.802  15.735  0.00  0.00    +0.000 A 
ATOM     26  C   UNL     1       6.748   5.948  16.439  0.00  0.00    +0.000 A 
ATOM     27  C   UNL     1       5.420   6.113  16.830  0.00  0.00    +0.000 A 
BRANCH  26  28
ATOM     28  O   UNL     1       7.763   6.813  16.767  0.00  0.00    +0.000 OA
BRANCH  28  29
ATOM     29  C   UNL     1       7.501   7.638  17.910  0.00  0.00    +0.000 C 
BRANCH  29  30
ATOM     30  C   UNL     1       8.103   9.028  17.708  0.00  0.00    +0.000 C 
BRANCH  30  31
ATOM     31  C   UNL     1       8.986   9.404  18.903  0.00  0.00    +0.000 C 
BRANCH  31  32
ATOM     32  C   UNL     1       9.253  10.909  18.972  0.00  0.00    +0.000 C 
BRANCH  32  33
ATOM     33  C   UNL     1      10.176  11.404  17.859  0.00  0.00    +0.000 C 
BRANCH  33  34
ATOM     34  C   UNL     1       9.990  12.870  17.554  0.00  0.00    +0.000 C 
ATOM     35  O   UNL     1      10.887  13.699  17.620  0.00  0.00    +0.000 OA
BRANCH  34  36
ATOM     36  O   UNL     1       8.740  13.183  17.149  0.00  0.00    +0.000 OA
ATOM     37  H   UNL     1       8.103  12.448  17.216  0.00  0.00    +0.000 HD
ENDBRANCH  34  36
ENDBRANCH  33  34
ENDBRANCH  32  33
ENDBRANCH  31  32
ENDBRANCH  30  31
ENDBRANCH  29  30
ENDBRANCH  28  29
ENDBRANCH  26  28
ENDBRANCH  21  22
ENDBRANCH   1  21
TORSDOF 14
ENDMDL
MODEL 7
REMARK VINA RESULT:      -7.6      2.611      3.121
REMARK  Name = 
REMARK  16 active torsions:
REMARK  status: ('A' for Active; 'I' for Inactive)
REMARK    1  A    between atoms: C_1  and  C_2
REMARK    2  A    between atoms: C_2  and  C_3
REMARK    3  A    between atoms: C_2  and  N_4
REMARK    4  A    between atoms: N_4  and  C_5
REMARK    5  A    between atoms: C_5  and  C_6
REMARK    6  A    between atoms: C_10  and  O_11
REMARK    7  A    between atoms: O_11  and  C_12
REMARK    8  A    between atoms: C_12  and  C_13
REMARK    9  A    between atoms: C_13  and  C_14
REMARK   10  A    between atoms: C_14  and  C_15
REMARK   11  A    between atoms: C_15  and  C_16
REMARK   12  A    between atoms: C_16  and  C_17
REMARK   13  A    between atoms: C_17  and  O_19
REMARK   14  A    between atoms: C_21  and  C_23
REMARK   15  A    between atoms: C_26  and  C_27
REMARK   16  A    between atoms: C_31  and  O_32
REMARK                            x       y       z     vdW  Elec       q    Type
REMARK                         _______ _______ _______ _____ _____    ______ ____
ROOT
ATOM      1  N   UNL     1       4.863   4.604  18.297  0.00  0.00    +0.000 N 
ATOM      2  C   UNL     1       6.111   4.865  17.680  0.00  0.00    +0.000 C 
ATOM      3  O   UNL     1       6.631   4.104  16.865  0.00  0.00    +0.000 OA
ENDROOT
BRANCH   2   4
ATOM      4  C   UNL     1       6.870   6.117  17.958  0.00  0.00    +0.000 A 
ATOM      5  C   UNL     1       7.860   6.208  18.936  0.00  0.00    +0.000 A 
ATOM      6  C   UNL     1       8.509   7.414  19.184  0.00  0.00    +0.000 A 
ATOM      7  C   UNL     1       8.276   8.539  18.384  0.00  0.00    +0.000 A 
ATOM      8  C   UNL     1       7.347   8.413  17.337  0.00  0.00    +0.000 A 
ATOM      9  C   UNL     1       6.642   7.221  17.133  0.00  0.00    +0.000 A 
BRANCH   7  10
ATOM     10  C   UNL     1       9.015   9.792  18.629  0.00  0.00    +0.000 A 
ATOM     11  C   UNL     1       9.525  10.557  17.563  0.00  0.00    +0.000 A 
ATOM     12  C   UNL     1      10.215  11.745  17.792  0.00  0.00    +0.000 A 
ATOM     13  C   UNL     1      10.431  12.187  19.103  0.00  0.00    +0.000 A 
ATOM     14  C   UNL     1       9.952  11.427  20.164  0.00  0.00    +0.000 A 
ATOM     15  C   UNL     1       9.253  10.251  19.936  0.00  0.00    +0.000 A 
BRANCH  14  16
ATOM     16  O   UNL     1      10.153  11.807  21.460  0.00  0.00    +0.000 OA
ATOM     17  H   UNL     1       9.467  11.402  22.014  0.00  0.00    +0.000 HD
ENDBRANCH  14  16
ENDBRANCH   7  10
ENDBRANCH   2   4
BRANCH   1  19
ATOM     18  C   UNL     1       3.877   2.561  19.339  0.00  0.00    +0.000 C 
ATOM     19  C   UNL     1       4.220   3.301  18.041  0.00  0.00    +0.000 C 
ATOM     20  C   UNL     1       2.991   3.437  17.136  0.00  0.00    +0.000 C 
ENDBRANCH   1  19
BRANCH   1  21
ATOM     21  C   UNL     1       4.285   5.537  19.258  0.00  0.00    +0.000 C 
BRANCH  21  22
ATOM     22  C   UNL     1       3.252   6.573  18.899  0.00  0.00    +0.000 A 
ATOM     23  C   UNL     1       3.264   7.213  17.659  0.00  0.00    +0.000 A 
ATOM     24  C   UNL     1       2.518   8.379  17.474  0.00  0.00    +0.000 A 
ATOM     25  C   UNL     1       1.802   8.937  18.539  0.00  0.00    +0.000 A 
ATOM     26  C   UNL     1       1.794   8.312  19.784  0.00  0.00    +0.000 A 
ATOM     27  C   UNL     1       2.440   7.086  19.930  0.00  0.00    +0.000 A 
BRANCH  26  28
ATOM     28  O   UNL     1       1.201   9.000  20.814  0.00  0.00    +0.000 OA
BRANCH  28  29
ATOM     29  C   UNL     1      -0.222   9.132  20.705  0.00  0.00    +0.000 C 
BRANCH  29  30
ATOM     30  C   UNL     1      -0.580  10.424  19.971  0.00  0.00    +0.000 C 
BRANCH  30  31
ATOM     31  C   UNL     1      -1.360  10.110  18.690  0.00  0.00    +0.000 C 
BRANCH  31  32
ATOM     32  C   UNL     1      -2.580  11.019  18.521  0.00  0.00    +0.000 C 
BRANCH  32  33
ATOM     33  C   UNL     1      -3.716  10.356  17.744  0.00  0.00    +0.000 C 
BRANCH  33  34
ATOM     34  C   UNL     1      -4.109  11.129  16.509  0.00  0.00    +0.000 C 
ATOM     35  O   UNL     1      -3.422  11.195  15.498  0.00  0.00    +0.000 OA
BRANCH  34  36
ATOM     36  O   UNL     1      -5.323  11.711  16.600  0.00  0.00    +0.000 OA
ATOM     37  H   UNL     1      -5.448  12.250  17.402  0.00  0.00    +0.000 HD
ENDBRANCH  34  36
ENDBRANCH  33  34
ENDBRANCH  32  33
ENDBRANCH  31  32
ENDBRANCH  30  31
ENDBRANCH  29  30
ENDBRANCH  28  29
ENDBRANCH  26  28
ENDBRANCH  21  22
ENDBRANCH   1  21
TORSDOF 14
ENDMDL
MODEL 8
REMARK VINA RESULT:      -7.6      3.157      8.134
REMARK  Name = 
REMARK  16 active torsions:
REMARK  status: ('A' for Active; 'I' for Inactive)
REMARK    1  A    between atoms: C_1  and  C_2
REMARK    2  A    between atoms: C_2  and  C_3
REMARK    3  A    between atoms: C_2  and  N_4
REMARK    4  A    between atoms: N_4  and  C_5
REMARK    5  A    between atoms: C_5  and  C_6
REMARK    6  A    between atoms: C_10  and  O_11
REMARK    7  A    between atoms: O_11  and  C_12
REMARK    8  A    between atoms: C_12  and  C_13
REMARK    9  A    between atoms: C_13  and  C_14
REMARK   10  A    between atoms: C_14  and  C_15
REMARK   11  A    between atoms: C_15  and  C_16
REMARK   12  A    between atoms: C_16  and  C_17
REMARK   13  A    between atoms: C_17  and  O_19
REMARK   14  A    between atoms: C_21  and  C_23
REMARK   15  A    between atoms: C_26  and  C_27
REMARK   16  A    between atoms: C_31  and  O_32
REMARK                            x       y       z     vdW  Elec       q    Type
REMARK                         _______ _______ _______ _____ _____    ______ ____
ROOT
ATOM      1  N   UNL     1       3.372   3.782  19.552  0.00  0.00    +0.000 N 
ATOM      2  C   UNL     1       2.098   4.385  19.693  0.00  0.00    +0.000 C 
ATOM      3  O   UNL     1       1.066   3.742  19.883  0.00  0.00    +0.000 OA
ENDROOT
BRANCH   2   4
ATOM      4  C   UNL     1       1.929   5.865  19.654  0.00  0.00    +0.000 A 
ATOM      5  C   UNL     1       1.601   6.626  20.776  0.00  0.00    +0.000 A 
ATOM      6  C   UNL     1       1.413   8.002  20.675  0.00  0.00    +0.000 A 
ATOM      7  C   UNL     1       1.663   8.680  19.477  0.00  0.00    +0.000 A 
ATOM      8  C   UNL     1       2.089   7.919  18.374  0.00  0.00    +0.000 A 
ATOM      9  C   UNL     1       2.209   6.528  18.456  0.00  0.00    +0.000 A 
BRANCH   7  10
ATOM     10  C   UNL     1       1.511  10.145  19.406  0.00  0.00    +0.000 A 
ATOM     11  C   UNL     1       0.825  10.856  20.408  0.00  0.00    +0.000 A 
ATOM     12  C   UNL     1       0.689  12.241  20.346  0.00  0.00    +0.000 A 
ATOM     13  C   UNL     1       1.223  12.950  19.262  0.00  0.00    +0.000 A 
ATOM     14  C   UNL     1       1.883  12.254  18.256  0.00  0.00    +0.000 A 
ATOM     15  C   UNL     1       2.030  10.877  18.323  0.00  0.00    +0.000 A 
BRANCH  14  16
ATOM     16  O   UNL     1       2.404  12.897  17.170  0.00  0.00    +0.000 OA
ATOM     17  H   UNL     1       3.220  12.446  16.901  0.00  0.00    +0.000 HD
ENDBRANCH  14  16
ENDBRANCH   7  10
ENDBRANCH   2   4
BRANCH   1  19
ATOM     18  C   UNL     1       3.228   1.762  18.092  0.00  0.00    +0.000 C 
ATOM     19  C   UNL     1       3.443   2.310  19.508  0.00  0.00    +0.000 C 
ATOM     20  C   UNL     1       4.746   1.781  20.118  0.00  0.00    +0.000 C 
ENDBRANCH   1  19
BRANCH   1  21
ATOM     21  C   UNL     1       4.568   4.587  19.328  0.00  0.00    +0.000 C 
BRANCH  21  22
ATOM     22  C   UNL     1       5.030   5.037  17.967  0.00  0.00    +0.000 A 
ATOM     23  C   UNL     1       4.816   4.255  16.831  0.00  0.00    +0.000 A 
ATOM     24  C   UNL     1       5.526   4.527  15.659  0.00  0.00    +0.000 A 
ATOM     25  C   UNL     1       6.486   5.543  15.635  0.00  0.00    +0.000 A 
ATOM     26  C   UNL     1       6.715   6.321  16.767  0.00  0.00    +0.000 A 
ATOM     27  C   UNL     1       5.920   6.126  17.895  0.00  0.00    +0.000 A 
BRANCH  26  28
ATOM     28  O   UNL     1       7.778   7.190  16.712  0.00  0.00    +0.000 OA
BRANCH  28  29
ATOM     29  C   UNL     1       7.640   8.358  17.533  0.00  0.00    +0.000 C 
BRANCH  29  30
ATOM     30  C   UNL     1       8.621   8.300  18.703  0.00  0.00    +0.000 C 
BRANCH  30  31
ATOM     31  C   UNL     1       9.009   9.717  19.141  0.00  0.00    +0.000 C 
BRANCH  31  32
ATOM     32  C   UNL     1       9.076  10.688  17.960  0.00  0.00    +0.000 C 
BRANCH  32  33
ATOM     33  C   UNL     1      10.356  11.523  17.946  0.00  0.00    +0.000 C 
BRANCH  33  34
ATOM     34  C   UNL     1      10.618  12.211  19.263  0.00  0.00    +0.000 C 
ATOM     35  O   UNL     1       9.890  13.071  19.740  0.00  0.00    +0.000 OA
BRANCH  34  36
ATOM     36  O   UNL     1      11.717  11.755  19.902  0.00  0.00    +0.000 OA
ATOM     37  H   UNL     1      11.915  12.218  20.736  0.00  0.00    +0.000 HD
ENDBRANCH  34  36
ENDBRANCH  33  34
ENDBRANCH  32  33
ENDBRANCH  31  32
ENDBRANCH  30  31
ENDBRANCH  29  30
ENDBRANCH  28  29
ENDBRANCH  26  28
ENDBRANCH  21  22
ENDBRANCH   1  21
TORSDOF 14
ENDMDL
MODEL 9
REMARK VINA RESULT:      -7.6      1.567      2.063
REMARK  Name = 
REMARK  16 active torsions:
REMARK  status: ('A' for Active; 'I' for Inactive)
REMARK    1  A    between atoms: C_1  and  C_2
REMARK    2  A    between atoms: C_2  and  C_3
REMARK    3  A    between atoms: C_2  and  N_4
REMARK    4  A    between atoms: N_4  and  C_5
REMARK    5  A    between atoms: C_5  and  C_6
REMARK    6  A    between atoms: C_10  and  O_11
REMARK    7  A    between atoms: O_11  and  C_12
REMARK    8  A    between atoms: C_12  and  C_13
REMARK    9  A    between atoms: C_13  and  C_14
REMARK   10  A    between atoms: C_14  and  C_15
REMARK   11  A    between atoms: C_15  and  C_16
REMARK   12  A    between atoms: C_16  and  C_17
REMARK   13  A    between atoms: C_17  and  O_19
REMARK   14  A    between atoms: C_21  and  C_23
REMARK   15  A    between atoms: C_26  and  C_27
REMARK   16  A    between atoms: C_31  and  O_32
REMARK                            x       y       z     vdW  Elec       q    Type
REMARK                         _______ _______ _______ _____ _____    ______ ____
ROOT
ATOM      1  N   UNL     1       4.877   4.541  18.165  0.00  0.00    +0.000 N 
ATOM      2  C   UNL     1       6.042   4.893  17.442  0.00  0.00    +0.000 C 
ATOM      3  O   UNL     1       6.498   4.210  16.525  0.00  0.00    +0.000 OA
ENDROOT
BRANCH   2   4
ATOM      4  C   UNL     1       6.784   6.154  17.727  0.00  0.00    +0.000 A 
ATOM      5  C   UNL     1       6.491   7.369  17.110  0.00  0.00    +0.000 A 
ATOM      6  C   UNL     1       7.243   8.508  17.382  0.00  0.00    +0.000 A 
ATOM      7  C   UNL     1       8.237   8.500  18.367  0.00  0.00    +0.000 A 
ATOM      8  C   UNL     1       8.463   7.296  19.055  0.00  0.00    +0.000 A 
ATOM      9  C   UNL     1       7.755   6.133  18.733  0.00  0.00    +0.000 A 
BRANCH   7  10
ATOM     10  C   UNL     1       8.986   9.732  18.678  0.00  0.00    +0.000 A 
ATOM     11  C   UNL     1       9.565  10.511  17.659  0.00  0.00    +0.000 A 
ATOM     12  C   UNL     1      10.264  11.679  17.951  0.00  0.00    +0.000 A 
ATOM     13  C   UNL     1      10.420  12.088  19.282  0.00  0.00    +0.000 A 
ATOM     14  C   UNL     1       9.871  11.314  20.298  0.00  0.00    +0.000 A 
ATOM     15  C   UNL     1       9.164  10.157  20.007  0.00  0.00    +0.000 A 
BRANCH  14  16
ATOM     16  O   UNL     1      10.012  11.659  21.611  0.00  0.00    +0.000 OA
ATOM     17  H   UNL     1       9.181  11.469  22.076  0.00  0.00    +0.000 HD
ENDBRANCH  14  16
ENDBRANCH   7  10
ENDBRANCH   2   4
BRANCH   1  19
ATOM     18  C   UNL     1       4.089   2.389  19.156  0.00  0.00    +0.000 C 
ATOM     19  C   UNL     1       4.254   3.233  17.887  0.00  0.00    +0.000 C 
ATOM     20  C   UNL     1       2.925   3.379  17.139  0.00  0.00    +0.000 C 
ENDBRANCH   1  19
BRANCH   1  21
ATOM     21  C   UNL     1       4.374   5.384  19.245  0.00  0.00    +0.000 C 
BRANCH  21  22
ATOM     22  C   UNL     1       3.255   6.378  19.076  0.00  0.00    +0.000 A 
ATOM     23  C   UNL     1       3.154   7.172  17.932  0.00  0.00    +0.000 A 
ATOM     24  C   UNL     1       2.322   8.294  17.939  0.00  0.00    +0.000 A 
ATOM     25  C   UNL     1       1.632   8.655  19.101  0.00  0.00    +0.000 A 
ATOM     26  C   UNL     1       1.737   7.877  20.251  0.00  0.00    +0.000 A 
ATOM     27  C   UNL     1       2.471   6.693  20.202  0.00  0.00    +0.000 A 
BRANCH  26  28
ATOM     28  O   UNL     1       1.159   8.381  21.390  0.00  0.00    +0.000 OA
BRANCH  28  29
ATOM     29  C   UNL     1       0.767   9.758  21.303  0.00  0.00    +0.000 C 
BRANCH  29  30
ATOM     30  C   UNL     1      -0.717   9.908  21.638  0.00  0.00    +0.000 C 
BRANCH  30  31
ATOM     31  C   UNL     1      -0.887  10.537  23.025  0.00  0.00    +0.000 C 
BRANCH  31  32
ATOM     32  C   UNL     1      -1.630  11.873  22.965  0.00  0.00    +0.000 C 
BRANCH  32  33
ATOM     33  C   UNL     1      -0.738  13.032  22.523  0.00  0.00    +0.000 C 
BRANCH  33  34
ATOM     34  C   UNL     1      -0.930  13.395  21.071  0.00  0.00    +0.000 C 
ATOM     35  O   UNL     1      -0.010  13.542  20.277  0.00  0.00    +0.000 OA
BRANCH  34  36
ATOM     36  O   UNL     1      -2.225  13.499  20.706  0.00  0.00    +0.000 OA
ATOM     37  H   UNL     1      -2.809  12.834  21.114  0.00  0.00    +0.000 HD
ENDBRANCH  34  36
ENDBRANCH  33  34
ENDBRANCH  32  33
ENDBRANCH  31  32
ENDBRANCH  30  31
ENDBRANCH  29  30
ENDBRANCH  28  29
ENDBRANCH  26  28
ENDBRANCH  21  22
ENDBRANCH   1  21
TORSDOF 14
ENDMDL
