MODEL 1
REMARK VINA RESULT:      -7.7      0.000      0.000
REMARK  Name = 
REMARK  3 active torsions:
REMARK  status: ('A' for Active; 'I' for Inactive)
REMARK    1  A    between atoms: C_2  and  C_10
REMARK    2  A    between atoms: N_3  and  N_4
REMARK    3  A    between atoms: N_12  and  C_13
REMARK                            x       y       z     vdW  Elec       q    Type
REMARK                         _______ _______ _______ _____ _____    ______ ____
ROOT
ATOM      1  C   UNL     1       0.038  10.967  21.622  0.00  0.00    +0.000 A 
ATOM      2  N   UNL     1      -1.160  10.944  22.220  0.00  0.00    +0.000 NA
ATOM      3  N   UNL     1      -1.696  12.186  22.053  0.00  0.00    +0.000 N 
ATOM      4  C   UNL     1      -0.838  13.012  21.313  0.00  0.00    +0.000 A 
ATOM      5  C   UNL     1       0.280  12.236  21.045  0.00  0.00    +0.000 A 
ATOM      6  C   UNL     1       1.446  12.718  20.261  0.00  0.00    +0.000 C 
ATOM      7  C   UNL     1       1.031  12.969  18.821  0.00  0.00    +0.000 C 
ATOM      8  C   UNL     1      -0.072  14.020  18.577  0.00  0.00    +0.000 C 
ATOM      9  C   UNL     1      -0.568  14.938  19.690  0.00  0.00    +0.000 A 
ATOM     10  C   UNL     1      -0.763  16.318  19.432  0.00  0.00    +0.000 A 
ATOM     11 CL   UNL     1      -0.375  17.058  17.913  0.00  0.00    +0.000 Cl
ATOM     12  C   UNL     1      -1.306  17.173  20.397  0.00  0.00    +0.000 A 
ATOM     13  C   UNL     1      -1.639  16.689  21.653  0.00  0.00    +0.000 A 
ATOM     14  C   UNL     1      -1.439  15.342  21.943  0.00  0.00    +0.000 A 
ATOM     15  C   UNL     1      -0.969  14.441  20.966  0.00  0.00    +0.000 A 
ENDROOT
BRANCH   3  16
ATOM     16  C   UNL     1      -3.010  12.470  22.558  0.00  0.00    +0.000 A 
ATOM     17  C   UNL     1      -3.228  12.471  23.950  0.00  0.00    +0.000 A 
ATOM     18  C   UNL     1      -4.511  12.632  24.481  0.00  0.00    +0.000 A 
ATOM     19  C   UNL     1      -5.588  12.843  23.631  0.00  0.00    +0.000 A 
ATOM     20 CL   UNL     1      -7.171  13.013  24.281  0.00  0.00    +0.000 Cl
ATOM     21  C   UNL     1      -5.388  12.906  22.255  0.00  0.00    +0.000 A 
ATOM     22  C   UNL     1      -4.108  12.720  21.709  0.00  0.00    +0.000 A 
ATOM     23 CL   UNL     1      -4.051  12.702  19.978  0.00  0.00    +0.000 Cl
ENDBRANCH   3  16
BRANCH   1  25
ATOM     24  O   UNL     1       1.626   9.462  22.555  0.00  0.00    +0.000 OA
ATOM     25  C   UNL     1       0.934   9.786  21.593  0.00  0.00    +0.000 C 
ATOM     26  N   UNL     1       0.928   9.103  20.381  0.00  0.00    +0.000 N 
ATOM     27  H   UNL     1       0.317   9.450  19.644  0.00  0.00    +0.000 HD
BRANCH  26  28
ATOM     28  N   UNL     1       1.768   7.984  20.200  0.00  0.00    +0.000 NA
ATOM     29  C   UNL     1       1.169   6.757  20.733  0.00  0.00    +0.000 C 
ATOM     30  C   UNL     1       2.137   5.578  20.620  0.00  0.00    +0.000 C 
ATOM     31  C   UNL     1       2.617   5.387  19.185  0.00  0.00    +0.000 C 
ATOM     32  C   UNL     1       3.189   6.691  18.640  0.00  0.00    +0.000 C 
ATOM     33  C   UNL     1       2.199   7.847  18.805  0.00  0.00    +0.000 C 
ENDBRANCH  26  28
ENDBRANCH   1  25
TORSDOF 3
ENDMDL
MODEL 2
REMARK VINA RESULT:      -7.1      2.639      3.070
REMARK  Name = 
REMARK  3 active torsions:
REMARK  status: ('A' for Active; 'I' for Inactive)
REMARK    1  A    between atoms: C_2  and  C_10
REMARK    2  A    between atoms: N_3  and  N_4
REMARK    3  A    between atoms: N_12  and  C_13
REMARK                            x       y       z     vdW  Elec       q    Type
REMARK                         _______ _______ _______ _____ _____    ______ ____
ROOT
ATOM      1  C   UNL     1       0.332  10.295  19.435  0.00  0.00    +0.000 A 
ATOM      2  N   UNL     1      -0.969  10.207  19.130  0.00  0.00    +0.000 NA
ATOM      3  N   UNL     1      -1.436  11.486  19.069  0.00  0.00    +0.000 N 
ATOM      4  C   UNL     1      -0.412  12.411  19.315  0.00  0.00    +0.000 A 
ATOM      5  C   UNL     1       0.721  11.650  19.560  0.00  0.00    +0.000 A 
ATOM      6  C   UNL     1       2.055  12.233  19.855  0.00  0.00    +0.000 C 
ATOM      7  C   UNL     1       2.577  12.971  18.633  0.00  0.00    +0.000 C 
ATOM      8  C   UNL     1       1.734  14.153  18.110  0.00  0.00    +0.000 C 
ATOM      9  C   UNL     1       0.557  14.714  18.902  0.00  0.00    +0.000 A 
ATOM     10  C   UNL     1       0.397  16.117  19.027  0.00  0.00    +0.000 A 
ATOM     11 CL   UNL     1       1.538  17.259  18.392  0.00  0.00    +0.000 Cl
ATOM     12  C   UNL     1      -0.719  16.672  19.664  0.00  0.00    +0.000 A 
ATOM     13  C   UNL     1      -1.686  15.850  20.221  0.00  0.00    +0.000 A 
ATOM     14  C   UNL     1      -1.545  14.468  20.133  0.00  0.00    +0.000 A 
ATOM     15  C   UNL     1      -0.474  13.882  19.428  0.00  0.00    +0.000 A 
ENDROOT
BRANCH   3  16
ATOM     16  C   UNL     1      -2.808  11.729  18.720  0.00  0.00    +0.000 A 
ATOM     17  C   UNL     1      -3.696  12.205  19.707  0.00  0.00    +0.000 A 
ATOM     18  C   UNL     1      -5.060  12.349  19.442  0.00  0.00    +0.000 A 
ATOM     19  C   UNL     1      -5.551  12.067  18.175  0.00  0.00    +0.000 A 
ATOM     20 CL   UNL     1      -7.234  12.218  17.855  0.00  0.00    +0.000 Cl
ATOM     21  C   UNL     1      -4.684  11.654  17.168  0.00  0.00    +0.000 A 
ATOM     22  C   UNL     1      -3.316  11.480  17.429  0.00  0.00    +0.000 A 
ATOM     23 CL   UNL     1      -2.398  10.841  16.106  0.00  0.00    +0.000 Cl
ENDBRANCH   3  16
BRANCH   1  25
ATOM     24  O   UNL     1       1.415   8.587  20.688  0.00  0.00    +0.000 OA
ATOM     25  C   UNL     1       1.194   9.099  19.593  0.00  0.00    +0.000 C 
ATOM     26  N   UNL     1       1.734   8.632  18.399  0.00  0.00    +0.000 N 
ATOM     27  H   UNL     1       1.488   9.124  17.542  0.00  0.00    +0.000 HD
BRANCH  26  28
ATOM     28  N   UNL     1       2.609   7.524  18.409  0.00  0.00    +0.000 NA
ATOM     29  C   UNL     1       1.888   6.256  18.268  0.00  0.00    +0.000 C 
ATOM     30  C   UNL     1       2.842   5.065  18.385  0.00  0.00    +0.000 C 
ATOM     31  C   UNL     1       3.988   5.171  17.383  0.00  0.00    +0.000 C 
ATOM     32  C   UNL     1       4.687   6.519  17.518  0.00  0.00    +0.000 C 
ATOM     33  C   UNL     1       3.689   7.676  17.429  0.00  0.00    +0.000 C 
ENDBRANCH  26  28
ENDBRANCH   1  25
TORSDOF 3
ENDMDL
MODEL 3
REMARK VINA RESULT:      -7.0      2.295      2.698
REMARK  Name = 
REMARK  3 active torsions:
REMARK  status: ('A' for Active; 'I' for Inactive)
REMARK    1  A    between atoms: C_2  and  C_10
REMARK    2  A    between atoms: N_3  and  N_4
REMARK    3  A    between atoms: N_12  and  C_13
REMARK                            x       y       z     vdW  Elec       q    Type
REMARK                         _______ _______ _______ _____ _____    ______ ____
ROOT
ATOM      1  C   UNL     1       0.234  10.563  20.255  0.00  0.00    +0.000 A 
ATOM      2  N   UNL     1      -1.051  10.444  19.897  0.00  0.00    +0.000 NA
ATOM      3  N   UNL     1      -1.480  11.699  19.584  0.00  0.00    +0.000 N 
ATOM      4  C   UNL     1      -0.447  12.636  19.721  0.00  0.00    +0.000 A 
ATOM      5  C   UNL     1       0.651  11.912  20.161  0.00  0.00    +0.000 A 
ATOM      6  C   UNL     1       1.983  12.516  20.423  0.00  0.00    +0.000 C 
ATOM      7  C   UNL     1       2.588  13.016  19.122  0.00  0.00    +0.000 C 
ATOM      8  C   UNL     1       1.805  14.100  18.351  0.00  0.00    +0.000 C 
ATOM      9  C   UNL     1       0.603  14.813  18.964  0.00  0.00    +0.000 A 
ATOM     10  C   UNL     1       0.473  16.218  18.829  0.00  0.00    +0.000 A 
ATOM     11 CL   UNL     1       1.676  17.209  18.069  0.00  0.00    +0.000 Cl
ATOM     12  C   UNL     1      -0.660  16.896  19.293  0.00  0.00    +0.000 A 
ATOM     13  C   UNL     1      -1.676  16.202  19.931  0.00  0.00    +0.000 A 
ATOM     14  C   UNL     1      -1.567  14.824  20.097  0.00  0.00    +0.000 A 
ATOM     15  C   UNL     1      -0.476  14.104  19.569  0.00  0.00    +0.000 A 
ENDROOT
BRANCH   3  16
ATOM     16  C   UNL     1      -2.825  11.898  19.121  0.00  0.00    +0.000 A 
ATOM     17  C   UNL     1      -3.776  12.469  19.991  0.00  0.00    +0.000 A 
ATOM     18  C   UNL     1      -5.119  12.580  19.622  0.00  0.00    +0.000 A 
ATOM     19  C   UNL     1      -5.524  12.166  18.360  0.00  0.00    +0.000 A 
ATOM     20 CL   UNL     1      -7.182  12.276  17.914  0.00  0.00    +0.000 Cl
ATOM     21  C   UNL     1      -4.592  11.655  17.462  0.00  0.00    +0.000 A 
ATOM     22  C   UNL     1      -3.245  11.516  17.831  0.00  0.00    +0.000 A 
ATOM     23 CL   UNL     1      -2.242  10.747  16.646  0.00  0.00    +0.000 Cl
ENDBRANCH   3  16
BRANCH   1  25
ATOM     24  O   UNL     1       1.433   9.243  21.829  0.00  0.00    +0.000 OA
ATOM     25  C   UNL     1       1.054   9.400  20.670  0.00  0.00    +0.000 C 
ATOM     26  N   UNL     1       1.363   8.529  19.632  0.00  0.00    +0.000 N 
ATOM     27  H   UNL     1       0.999   8.745  18.706  0.00  0.00    +0.000 HD
BRANCH  26  28
ATOM     28  N   UNL     1       2.176   7.401  19.877  0.00  0.00    +0.000 NA
ATOM     29  C   UNL     1       1.429   6.318  20.522  0.00  0.00    +0.000 C 
ATOM     30  C   UNL     1       2.349   5.147  20.873  0.00  0.00    +0.000 C 
ATOM     31  C   UNL     1       3.108   4.649  19.647  0.00  0.00    +0.000 C 
ATOM     32  C   UNL     1       3.835   5.806  18.969  0.00  0.00    +0.000 C 
ATOM     33  C   UNL     1       2.881   6.964  18.668  0.00  0.00    +0.000 C 
ENDBRANCH  26  28
ENDBRANCH   1  25
TORSDOF 3
ENDMDL
MODEL 4
REMARK VINA RESULT:      -6.8      3.157      7.500
REMARK  Name = 
REMARK  3 active torsions:
REMARK  status: ('A' for Active; 'I' for Inactive)
REMARK    1  A    between atoms: C_2  and  C_10
REMARK    2  A    between atoms: N_3  and  N_4
REMARK    3  A    between atoms: N_12  and  C_13
REMARK                            x       y       z     vdW  Elec       q    Type
REMARK                         _______ _______ _______ _____ _____    ______ ____
ROOT
ATOM      1  C   UNL     1      -2.124  12.430  20.196  0.00  0.00    +0.000 A 
ATOM      2  N   UNL     1      -1.604  11.219  19.957  0.00  0.00    +0.000 NA
ATOM      3  N   UNL     1      -0.277  11.412  19.716  0.00  0.00    +0.000 N 
ATOM      4  C   UNL     1       0.066  12.767  19.828  0.00  0.00    +0.000 A 
ATOM      5  C   UNL     1      -1.119  13.423  20.126  0.00  0.00    +0.000 A 
ATOM      6  C   UNL     1      -1.214  14.889  20.348  0.00  0.00    +0.000 C 
ATOM      7  C   UNL     1      -0.457  15.270  21.609  0.00  0.00    +0.000 C 
ATOM      8  C   UNL     1       1.054  14.960  21.646  0.00  0.00    +0.000 C 
ATOM      9  C   UNL     1       1.813  14.508  20.402  0.00  0.00    +0.000 A 
ATOM     10  C   UNL     1       3.079  15.072  20.106  0.00  0.00    +0.000 A 
ATOM     11 CL   UNL     1       3.793  16.340  21.049  0.00  0.00    +0.000 Cl
ATOM     12  C   UNL     1       3.849  14.617  19.029  0.00  0.00    +0.000 A 
ATOM     13  C   UNL     1       3.367  13.616  18.199  0.00  0.00    +0.000 A 
ATOM     14  C   UNL     1       2.117  13.059  18.453  0.00  0.00    +0.000 A 
ATOM     15  C   UNL     1       1.356  13.439  19.576  0.00  0.00    +0.000 A 
ENDROOT
BRANCH   3  16
ATOM     16  C   UNL     1       0.574  10.283  19.459  0.00  0.00    +0.000 A 
ATOM     17  C   UNL     1       0.967  10.005  18.135  0.00  0.00    +0.000 A 
ATOM     18  C   UNL     1       1.701   8.856  17.825  0.00  0.00    +0.000 A 
ATOM     19  C   UNL     1       2.094   7.994  18.839  0.00  0.00    +0.000 A 
ATOM     20 CL   UNL     1       2.973   6.567  18.457  0.00  0.00    +0.000 Cl
ATOM     21  C   UNL     1       1.769   8.281  20.162  0.00  0.00    +0.000 A 
ATOM     22  C   UNL     1       1.010   9.417  20.482  0.00  0.00    +0.000 A 
ATOM     23 CL   UNL     1       0.584   9.560  22.155  0.00  0.00    +0.000 Cl
ENDBRANCH   3  16
BRANCH   1  25
ATOM     24  O   UNL     1      -4.442  12.455  19.662  0.00  0.00    +0.000 OA
ATOM     25  C   UNL     1      -3.561  12.631  20.501  0.00  0.00    +0.000 C 
ATOM     26  N   UNL     1      -3.808  13.049  21.804  0.00  0.00    +0.000 N 
ATOM     27  H   UNL     1      -3.009  13.163  22.425  0.00  0.00    +0.000 HD
BRANCH  26  28
ATOM     28  N   UNL     1      -5.130  13.321  22.218  0.00  0.00    +0.000 NA
ATOM     29  C   UNL     1      -5.403  12.799  23.559  0.00  0.00    +0.000 C 
ATOM     30  C   UNL     1      -6.868  13.012  23.946  0.00  0.00    +0.000 C 
ATOM     31  C   UNL     1      -7.266  14.479  23.826  0.00  0.00    +0.000 C 
ATOM     32  C   UNL     1      -6.926  15.009  22.437  0.00  0.00    +0.000 C 
ATOM     33  C   UNL     1      -5.461  14.743  22.083  0.00  0.00    +0.000 C 
ENDBRANCH  26  28
ENDBRANCH   1  25
TORSDOF 3
ENDMDL
MODEL 5
REMARK VINA RESULT:      -6.8      2.940      5.798
REMARK  Name = 
REMARK  3 active torsions:
REMARK  status: ('A' for Active; 'I' for Inactive)
REMARK    1  A    between atoms: C_2  and  C_10
REMARK    2  A    between atoms: N_3  and  N_4
REMARK    3  A    between atoms: N_12  and  C_13
REMARK                            x       y       z     vdW  Elec       q    Type
REMARK                         _______ _______ _______ _____ _____    ______ ____
ROOT
ATOM      1  C   UNL     1       0.833  11.597  18.775  0.00  0.00    +0.000 A 
ATOM      2  N   UNL     1       1.991  12.269  18.744  0.00  0.00    +0.000 NA
ATOM      3  N   UNL     1       1.682  13.577  18.974  0.00  0.00    +0.000 N 
ATOM      4  C   UNL     1       0.305  13.743  19.181  0.00  0.00    +0.000 A 
ATOM      5  C   UNL     1      -0.243  12.476  19.044  0.00  0.00    +0.000 A 
ATOM      6  C   UNL     1      -1.691  12.186  19.203  0.00  0.00    +0.000 C 
ATOM      7  C   UNL     1      -2.111  12.426  20.643  0.00  0.00    +0.000 C 
ATOM      8  C   UNL     1      -1.929  13.852  21.203  0.00  0.00    +0.000 C 
ATOM      9  C   UNL     1      -1.566  15.029  20.303  0.00  0.00    +0.000 A 
ATOM     10  C   UNL     1      -2.239  16.267  20.455  0.00  0.00    +0.000 A 
ATOM     11 CL   UNL     1      -3.545  16.500  21.572  0.00  0.00    +0.000 Cl
ATOM     12  C   UNL     1      -1.872  17.396  19.715  0.00  0.00    +0.000 A 
ATOM     13  C   UNL     1      -0.850  17.317  18.782  0.00  0.00    +0.000 A 
ATOM     14  C   UNL     1      -0.184  16.109  18.595  0.00  0.00    +0.000 A 
ATOM     15  C   UNL     1      -0.478  14.978  19.382  0.00  0.00    +0.000 A 
ENDROOT
BRANCH   3  16
ATOM     16  C   UNL     1       2.730  14.557  19.039  0.00  0.00    +0.000 A 
ATOM     17  C   UNL     1       3.440  14.885  17.867  0.00  0.00    +0.000 A 
ATOM     18  C   UNL     1       4.539  15.748  17.904  0.00  0.00    +0.000 A 
ATOM     19  C   UNL     1       4.913  16.336  19.105  0.00  0.00    +0.000 A 
ATOM     20 CL   UNL     1       6.281  17.377  19.159  0.00  0.00    +0.000 Cl
ATOM     21  C   UNL     1       4.189  16.074  20.265  0.00  0.00    +0.000 A 
ATOM     22  C   UNL     1       3.101  15.188  20.244  0.00  0.00    +0.000 A 
ATOM     23 CL   UNL     1       2.388  14.874  21.791  0.00  0.00    +0.000 Cl
ENDBRANCH   3  16
BRANCH   1  25
ATOM     24  O   UNL     1      -0.079   9.615  17.828  0.00  0.00    +0.000 OA
ATOM     25  C   UNL     1       0.759  10.132  18.564  0.00  0.00    +0.000 C 
ATOM     26  N   UNL     1       1.705   9.410  19.283  0.00  0.00    +0.000 N 
ATOM     27  H   UNL     1       2.359   9.931  19.864  0.00  0.00    +0.000 HD
BRANCH  26  28
ATOM     28  N   UNL     1       1.720   8.000  19.209  0.00  0.00    +0.000 NA
ATOM     29  C   UNL     1       2.736   7.512  18.273  0.00  0.00    +0.000 C 
ATOM     30  C   UNL     1       2.666   5.990  18.129  0.00  0.00    +0.000 C 
ATOM     31  C   UNL     1       2.776   5.298  19.484  0.00  0.00    +0.000 C 
ATOM     32  C   UNL     1       1.740   5.860  20.452  0.00  0.00    +0.000 C 
ATOM     33  C   UNL     1       1.827   7.386  20.536  0.00  0.00    +0.000 C 
ENDBRANCH  26  28
ENDBRANCH   1  25
TORSDOF 3
ENDMDL
MODEL 6
REMARK VINA RESULT:      -6.7      2.055      2.759
REMARK  Name = 
REMARK  3 active torsions:
REMARK  status: ('A' for Active; 'I' for Inactive)
REMARK    1  A    between atoms: C_2  and  C_10
REMARK    2  A    between atoms: N_3  and  N_4
REMARK    3  A    between atoms: N_12  and  C_13
REMARK                            x       y       z     vdW  Elec       q    Type
REMARK                         _______ _______ _______ _____ _____    ______ ____
ROOT
ATOM      1  C   UNL     1       0.181  10.532  20.264  0.00  0.00    +0.000 A 
ATOM      2  N   UNL     1      -1.100  10.385  19.903  0.00  0.00    +0.000 NA
ATOM      3  N   UNL     1      -1.558  11.631  19.598  0.00  0.00    +0.000 N 
ATOM      4  C   UNL     1      -0.547  12.591  19.741  0.00  0.00    +0.000 A 
ATOM      5  C   UNL     1       0.567  11.890  20.178  0.00  0.00    +0.000 A 
ATOM      6  C   UNL     1       1.884  12.523  20.445  0.00  0.00    +0.000 C 
ATOM      7  C   UNL     1       2.479  13.046  19.148  0.00  0.00    +0.000 C 
ATOM      8  C   UNL     1       1.672  14.115  18.383  0.00  0.00    +0.000 C 
ATOM      9  C   UNL     1       0.453  14.796  18.998  0.00  0.00    +0.000 A 
ATOM     10  C   UNL     1       0.291  16.199  18.872  0.00  0.00    +0.000 A 
ATOM     11 CL   UNL     1       1.471  17.222  18.119  0.00  0.00    +0.000 Cl
ATOM     12  C   UNL     1      -0.858  16.847  19.339  0.00  0.00    +0.000 A 
ATOM     13  C   UNL     1      -1.859  16.127  19.972  0.00  0.00    +0.000 A 
ATOM     14  C   UNL     1      -1.718  14.751  20.129  0.00  0.00    +0.000 A 
ATOM     15  C   UNL     1      -0.610  14.059  19.598  0.00  0.00    +0.000 A 
ENDROOT
BRANCH   3  16
ATOM     16  C   UNL     1      -2.907  11.802  19.134  0.00  0.00    +0.000 A 
ATOM     17  C   UNL     1      -3.206  11.557  17.779  0.00  0.00    +0.000 A 
ATOM     18  C   UNL     1      -4.477  11.817  17.260  0.00  0.00    +0.000 A 
ATOM     19  C   UNL     1      -5.482  12.280  18.098  0.00  0.00    +0.000 A 
ATOM     20 CL   UNL     1      -7.040  12.627  17.456  0.00  0.00    +0.000 Cl
ATOM     21  C   UNL     1      -5.227  12.472  19.453  0.00  0.00    +0.000 A 
ATOM     22  C   UNL     1      -3.947  12.239  19.979  0.00  0.00    +0.000 A 
ATOM     23 CL   UNL     1      -3.764  12.646  21.653  0.00  0.00    +0.000 Cl
ENDBRANCH   3  16
BRANCH   1  25
ATOM     24  O   UNL     1       1.438   9.248  21.824  0.00  0.00    +0.000 OA
ATOM     25  C   UNL     1       1.028   9.386  20.673  0.00  0.00    +0.000 C 
ATOM     26  N   UNL     1       1.323   8.505  19.638  0.00  0.00    +0.000 N 
ATOM     27  H   UNL     1       0.933   8.704  18.719  0.00  0.00    +0.000 HD
BRANCH  26  28
ATOM     28  N   UNL     1       2.157   7.391  19.878  0.00  0.00    +0.000 NA
ATOM     29  C   UNL     1       1.433   6.293  20.523  0.00  0.00    +0.000 C 
ATOM     30  C   UNL     1       2.376   5.139  20.867  0.00  0.00    +0.000 C 
ATOM     31  C   UNL     1       3.139   4.658  19.637  0.00  0.00    +0.000 C 
ATOM     32  C   UNL     1       3.842   5.829  18.959  0.00  0.00    +0.000 C 
ATOM     33  C   UNL     1       2.865   6.971  18.664  0.00  0.00    +0.000 C 
ENDBRANCH  26  28
ENDBRANCH   1  25
TORSDOF 3
ENDMDL
MODEL 7
REMARK VINA RESULT:      -6.6      8.004     11.095
REMARK  Name = 
REMARK  3 active torsions:
REMARK  status: ('A' for Active; 'I' for Inactive)
REMARK    1  A    between atoms: C_2  and  C_10
REMARK    2  A    between atoms: N_3  and  N_4
REMARK    3  A    between atoms: N_12  and  C_13
REMARK                            x       y       z     vdW  Elec       q    Type
REMARK                         _______ _______ _______ _____ _____    ______ ____
ROOT
ATOM      1  C   UNL     1       6.065  16.260  20.481  0.00  0.00    +0.000 A 
ATOM      2  N   UNL     1       6.298  16.223  21.800  0.00  0.00    +0.000 NA
ATOM      3  N   UNL     1       7.295  15.312  21.987  0.00  0.00    +0.000 N 
ATOM      4  C   UNL     1       7.725  14.774  20.766  0.00  0.00    +0.000 A 
ATOM      5  C   UNL     1       6.930  15.373  19.800  0.00  0.00    +0.000 A 
ATOM      6  C   UNL     1       7.060  15.101  18.345  0.00  0.00    +0.000 C 
ATOM      7  C   UNL     1       8.399  15.612  17.841  0.00  0.00    +0.000 C 
ATOM      8  C   UNL     1       9.669  15.004  18.473  0.00  0.00    +0.000 C 
ATOM      9  C   UNL     1       9.608  13.786  19.389  0.00  0.00    +0.000 A 
ATOM     10  C   UNL     1      10.545  12.735  19.229  0.00  0.00    +0.000 A 
ATOM     11 CL   UNL     1      11.730  12.712  17.963  0.00  0.00    +0.000 Cl
ATOM     12  C   UNL     1      10.582  11.647  20.108  0.00  0.00    +0.000 A 
ATOM     13  C   UNL     1       9.669  11.557  21.147  0.00  0.00    +0.000 A 
ATOM     14  C   UNL     1       8.723  12.564  21.317  0.00  0.00    +0.000 A 
ATOM     15  C   UNL     1       8.713  13.711  20.497  0.00  0.00    +0.000 A 
ENDROOT
BRANCH   3  16
ATOM     16  C   UNL     1       7.802  15.070  23.309  0.00  0.00    +0.000 A 
ATOM     17  C   UNL     1       8.872  15.851  23.790  0.00  0.00    +0.000 A 
ATOM     18  C   UNL     1       9.469  15.578  25.024  0.00  0.00    +0.000 A 
ATOM     19  C   UNL     1       8.975  14.552  25.817  0.00  0.00    +0.000 A 
ATOM     20 CL   UNL     1       9.725  14.196  27.323  0.00  0.00    +0.000 Cl
ATOM     21  C   UNL     1       7.880  13.806  25.390  0.00  0.00    +0.000 A 
ATOM     22  C   UNL     1       7.289  14.054  24.141  0.00  0.00    +0.000 A 
ATOM     23 CL   UNL     1       6.021  12.958  23.705  0.00  0.00    +0.000 Cl
ENDBRANCH   3  16
BRANCH   1  25
ATOM     24  O   UNL     1       5.209  18.351  19.737  0.00  0.00    +0.000 OA
ATOM     25  C   UNL     1       5.035  17.143  19.882  0.00  0.00    +0.000 C 
ATOM     26  N   UNL     1       3.866  16.482  19.523  0.00  0.00    +0.000 N 
ATOM     27  H   UNL     1       3.820  15.477  19.682  0.00  0.00    +0.000 HD
BRANCH  26  28
ATOM     28  N   UNL     1       2.784  17.210  18.981  0.00  0.00    +0.000 NA
ATOM     29  C   UNL     1       2.675  17.029  17.531  0.00  0.00    +0.000 C 
ATOM     30  C   UNL     1       1.564  17.905  16.949  0.00  0.00    +0.000 C 
ATOM     31  C   UNL     1       0.232  17.649  17.645  0.00  0.00    +0.000 C 
ATOM     32  C   UNL     1       0.387  17.796  19.155  0.00  0.00    +0.000 C 
ATOM     33  C   UNL     1       1.530  16.927  19.685  0.00  0.00    +0.000 C 
ENDBRANCH  26  28
ENDBRANCH   1  25
TORSDOF 3
ENDMDL
MODEL 8
REMARK VINA RESULT:      -6.6      1.221      1.417
REMARK  Name = 
REMARK  3 active torsions:
REMARK  status: ('A' for Active; 'I' for Inactive)
REMARK    1  A    between atoms: C_2  and  C_10
REMARK    2  A    between atoms: N_3  and  N_4
REMARK    3  A    between atoms: N_12  and  C_13
REMARK                            x       y       z     vdW  Elec       q    Type
REMARK                         _______ _______ _______ _____ _____    ______ ____
ROOT
ATOM      1  C   UNL     1       0.294  10.864  21.028  0.00  0.00    +0.000 A 
ATOM      2  N   UNL     1      -1.042  10.847  21.127  0.00  0.00    +0.000 NA
ATOM      3  N   UNL     1      -1.461  12.121  20.887  0.00  0.00    +0.000 N 
ATOM      4  C   UNL     1      -0.377  12.965  20.604  0.00  0.00    +0.000 A 
ATOM      5  C   UNL     1       0.750  12.163  20.705  0.00  0.00    +0.000 A 
ATOM      6  C   UNL     1       2.132  12.653  20.465  0.00  0.00    +0.000 C 
ATOM      7  C   UNL     1       2.296  13.040  19.005  0.00  0.00    +0.000 C 
ATOM      8  C   UNL     1       1.380  14.157  18.463  0.00  0.00    +0.000 C 
ATOM      9  C   UNL     1       0.509  15.002  19.388  0.00  0.00    +0.000 A 
ATOM     10  C   UNL     1       0.443  16.406  19.205  0.00  0.00    +0.000 A 
ATOM     11 CL   UNL     1       1.386  17.250  18.019  0.00  0.00    +0.000 Cl
ATOM     12  C   UNL     1      -0.416  17.204  19.970  0.00  0.00    +0.000 A 
ATOM     13  C   UNL     1      -1.204  16.634  20.957  0.00  0.00    +0.000 A 
ATOM     14  C   UNL     1      -1.144  15.261  21.175  0.00  0.00    +0.000 A 
ATOM     15  C   UNL     1      -0.350  14.422  20.367  0.00  0.00    +0.000 A 
ENDROOT
BRANCH   3  16
ATOM     16  C   UNL     1      -2.865  12.423  20.884  0.00  0.00    +0.000 A 
ATOM     17  C   UNL     1      -3.490  12.802  22.089  0.00  0.00    +0.000 A 
ATOM     18  C   UNL     1      -4.873  12.996  22.156  0.00  0.00    +0.000 A 
ATOM     19  C   UNL     1      -5.645  12.863  21.010  0.00  0.00    +0.000 A 
ATOM     20 CL   UNL     1      -7.349  13.075  21.096  0.00  0.00    +0.000 Cl
ATOM     21  C   UNL     1      -5.041  12.549  19.796  0.00  0.00    +0.000 A 
ATOM     22  C   UNL     1      -3.657  12.326  19.722  0.00  0.00    +0.000 A 
ATOM     23 CL   UNL     1      -3.083  11.821  18.167  0.00  0.00    +0.000 Cl
ENDBRANCH   3  16
BRANCH   1  25
ATOM     24  O   UNL     1       1.702   9.417  22.286  0.00  0.00    +0.000 OA
ATOM     25  C   UNL     1       1.120   9.649  21.228  0.00  0.00    +0.000 C 
ATOM     26  N   UNL     1       1.185   8.821  20.113  0.00  0.00    +0.000 N 
ATOM     27  H   UNL     1       0.664   9.100  19.284  0.00  0.00    +0.000 HD
BRANCH  26  28
ATOM     28  N   UNL     1       1.974   7.651  20.151  0.00  0.00    +0.000 NA
ATOM     29  C   UNL     1       1.251   6.522  20.742  0.00  0.00    +0.000 C 
ATOM     30  C   UNL     1       2.156   5.294  20.868  0.00  0.00    +0.000 C 
ATOM     31  C   UNL     1       2.775   4.920  19.525  0.00  0.00    +0.000 C 
ATOM     32  C   UNL     1       3.477   6.126  18.911  0.00  0.00    +0.000 C 
ATOM     33  C   UNL     1       2.543   7.337  18.836  0.00  0.00    +0.000 C 
ENDBRANCH  26  28
ENDBRANCH   1  25
TORSDOF 3
ENDMDL
MODEL 9
REMARK VINA RESULT:      -6.6      1.269      1.654
REMARK  Name = 
REMARK  3 active torsions:
REMARK  status: ('A' for Active; 'I' for Inactive)
REMARK    1  A    between atoms: C_2  and  C_10
REMARK    2  A    between atoms: N_3  and  N_4
REMARK    3  A    between atoms: N_12  and  C_13
REMARK                            x       y       z     vdW  Elec       q    Type
REMARK                         _______ _______ _______ _____ _____    ______ ____
ROOT
ATOM      1  C   UNL     1       0.192  10.991  21.137  0.00  0.00    +0.000 A 
ATOM      2  N   UNL     1      -1.140  10.947  21.265  0.00  0.00    +0.000 NA
ATOM      3  N   UNL     1      -1.587  12.219  21.070  0.00  0.00    +0.000 N 
ATOM      4  C   UNL     1      -0.526  13.091  20.787  0.00  0.00    +0.000 A 
ATOM      5  C   UNL     1       0.617  12.307  20.840  0.00  0.00    +0.000 A 
ATOM      6  C   UNL     1       1.984  12.830  20.583  0.00  0.00    +0.000 C 
ATOM      7  C   UNL     1       2.108  13.260  19.131  0.00  0.00    +0.000 C 
ATOM      8  C   UNL     1       1.159  14.373  18.641  0.00  0.00    +0.000 C 
ATOM      9  C   UNL     1       0.295  15.176  19.608  0.00  0.00    +0.000 A 
ATOM     10  C   UNL     1       0.199  16.583  19.466  0.00  0.00    +0.000 A 
ATOM     11 CL   UNL     1       1.099  17.477  18.283  0.00  0.00    +0.000 Cl
ATOM     12  C   UNL     1      -0.656  17.344  20.272  0.00  0.00    +0.000 A 
ATOM     13  C   UNL     1      -1.411  16.733  21.261  0.00  0.00    +0.000 A 
ATOM     14  C   UNL     1      -1.322  15.355  21.438  0.00  0.00    +0.000 A 
ATOM     15  C   UNL     1      -0.531  14.554  20.590  0.00  0.00    +0.000 A 
ENDROOT
BRANCH   3  16
ATOM     16  C   UNL     1      -2.996  12.494  21.107  0.00  0.00    +0.000 A 
ATOM     17  C   UNL     1      -3.713  12.586  19.897  0.00  0.00    +0.000 A 
ATOM     18  C   UNL     1      -5.059  12.962  19.880  0.00  0.00    +0.000 A 
ATOM     19  C   UNL     1      -5.723  13.203  21.075  0.00  0.00    +0.000 A 
ATOM     20 CL   UNL     1      -7.371  13.692  21.056  0.00  0.00    +0.000 Cl
ATOM     21  C   UNL     1      -5.052  13.059  22.286  0.00  0.00    +0.000 A 
ATOM     22  C   UNL     1      -3.693  12.708  22.314  0.00  0.00    +0.000 A 
ATOM     23 CL   UNL     1      -2.977  12.696  23.891  0.00  0.00    +0.000 Cl
ENDBRANCH   3  16
BRANCH   1  25
ATOM     24  O   UNL     1       1.670   9.546  22.315  0.00  0.00    +0.000 OA
ATOM     25  C   UNL     1       1.045   9.788  21.284  0.00  0.00    +0.000 C 
ATOM     26  N   UNL     1       1.082   8.981  20.152  0.00  0.00    +0.000 N 
ATOM     27  H   UNL     1       0.527   9.265  19.348  0.00  0.00    +0.000 HD
BRANCH  26  28
ATOM     28  N   UNL     1       1.891   7.823  20.139  0.00  0.00    +0.000 NA
ATOM     29  C   UNL     1       1.202   6.668  20.720  0.00  0.00    +0.000 C 
ATOM     30  C   UNL     1       2.130   5.453  20.791  0.00  0.00    +0.000 C 
ATOM     31  C   UNL     1       2.719   5.123  19.424  0.00  0.00    +0.000 C 
ATOM     32  C   UNL     1       3.385   6.355  18.822  0.00  0.00    +0.000 C 
ATOM     33  C   UNL     1       2.430   7.552  18.803  0.00  0.00    +0.000 C 
ENDBRANCH  26  28
ENDBRANCH   1  25
TORSDOF 3
ENDMDL
