MODEL 1
REMARK VINA RESULT:      -7.3      0.000      0.000
REMARK  Name = 
REMARK  12 active torsions:
REMARK  status: ('A' for Active; 'I' for Inactive)
REMARK    1  A    between atoms: C_1  and  C_2
REMARK    2  A    between atoms: C_2  and  C_11
REMARK    3  A    between atoms: C_3  and  C_4
REMARK    4  A    between atoms: C_5  and  C_6
REMARK    5  A    between atoms: C_6  and  C_7
REMARK    6  A    between atoms: C_6  and  C_8
REMARK    7  A    between atoms: C_8  and  O_10
REMARK    8  A    between atoms: CA_14  and  C_15
REMARK    9  A    between atoms: C_15  and  OXT_17
REMARK   10  A    between atoms: C_18  and  C_19
REMARK   11  A    between atoms: C_19  and  C_20
REMARK   12  A    between atoms: C_20  and  O_22
REMARK                            x       y       z     vdW  Elec       q    Type
REMARK                         _______ _______ _______ _____ _____    ______ ____
ROOT
ATOM      1  C   UNL     1       5.407   5.001  17.793  0.00  0.00    +0.000 C 
ATOM      2  C   UNL     1       6.856   4.640  18.115  0.00  0.00    +0.000 C 
ATOM      3  N   UNL     1       7.664   5.443  17.172  0.00  0.00    +0.000 NA
ATOM      4  CA  UNL     1       6.945   6.761  17.077  0.00  0.00    +0.000 C 
ATOM      5  C   UNL     1       5.526   6.532  17.642  0.00  0.00    +0.000 C 
ATOM      6  H   UNL     1       7.580   5.007  16.249  0.00  0.00    +0.000 HD
ENDROOT
BRANCH   1   8
ATOM      7  C   UNL     1       5.517   4.051  15.331  0.00  0.00    +0.000 C 
ATOM      8  C   UNL     1       4.825   4.116  16.678  0.00  0.00    +0.000 C 
ATOM      9  C   UNL     1       3.755   3.330  16.867  0.00  0.00    +0.000 C 
BRANCH   9  10
ATOM     10  C   UNL     1       2.985   3.220  18.087  0.00  0.00    +0.000 C 
ATOM     11  C   UNL     1       1.981   4.051  18.408  0.00  0.00    +0.000 C 
BRANCH  11  12
ATOM     12  C   UNL     1       1.177   3.918  19.678  0.00  0.00    +0.000 C 
ATOM     13  C   UNL     1       0.503   2.546  19.752  0.00  0.00    +0.000 C 
BRANCH  12  14
ATOM     14  C   UNL     1       2.048   4.159  20.921  0.00  0.00    +0.000 C 
ATOM     15  O   UNL     1       2.445   3.299  21.687  0.00  0.00    +0.000 OA
BRANCH  14  16
ATOM     16  O   UNL     1       2.415   5.457  21.068  0.00  0.00    +0.000 OA
ATOM     17  H   UNL     1       2.940   5.825  20.333  0.00  0.00    +0.000 HD
ENDBRANCH  14  16
ENDBRANCH  12  14
ENDBRANCH  11  12
ENDBRANCH   9  10
ENDBRANCH   1   8
BRANCH   4  18
ATOM     18  C   UNL     1       7.748   7.800  17.887  0.00  0.00    +0.000 C 
ATOM     19  O   UNL     1       7.729   9.014  17.669  0.00  0.00    +0.000 OA
BRANCH  18  20
ATOM     20  OXT UNL     1       8.486   7.273  18.893  0.00  0.00    +0.000 OA
ATOM     21  HXT UNL     1       8.624   6.308  18.749  0.00  0.00    +0.000 HD
ENDBRANCH  18  20
ENDBRANCH   4  18
BRANCH   5  22
ATOM     22  C   UNL     1       4.404   7.294  16.924  0.00  0.00    +0.000 C 
BRANCH  22  23
ATOM     23  C   UNL     1       3.246   7.682  17.815  0.00  0.00    +0.000 C 
ATOM     24  O   UNL     1       2.985   7.158  18.904  0.00  0.00    +0.000 OA
BRANCH  23  25
ATOM     25  O   UNL     1       2.486   8.667  17.312  0.00  0.00    +0.000 OA
ATOM     26  H   UNL     1       2.355   9.421  17.918  0.00  0.00    +0.000 HD
ENDBRANCH  23  25
ENDBRANCH  22  23
ENDBRANCH   5  22
TORSDOF 10
ENDMDL
MODEL 2
REMARK VINA RESULT:      -7.3      2.651      3.541
REMARK  Name = 
REMARK  12 active torsions:
REMARK  status: ('A' for Active; 'I' for Inactive)
REMARK    1  A    between atoms: C_1  and  C_2
REMARK    2  A    between atoms: C_2  and  C_11
REMARK    3  A    between atoms: C_3  and  C_4
REMARK    4  A    between atoms: C_5  and  C_6
REMARK    5  A    between atoms: C_6  and  C_7
REMARK    6  A    between atoms: C_6  and  C_8
REMARK    7  A    between atoms: C_8  and  O_10
REMARK    8  A    between atoms: CA_14  and  C_15
REMARK    9  A    between atoms: C_15  and  OXT_17
REMARK   10  A    between atoms: C_18  and  C_19
REMARK   11  A    between atoms: C_19  and  C_20
REMARK   12  A    between atoms: C_20  and  O_22
REMARK                            x       y       z     vdW  Elec       q    Type
REMARK                         _______ _______ _______ _____ _____    ______ ____
ROOT
ATOM      1  C   UNL     1       4.169   5.635  17.084  0.00  0.00    +0.000 C 
ATOM      2  C   UNL     1       5.023   6.258  15.981  0.00  0.00    +0.000 C 
ATOM      3  N   UNL     1       6.274   6.666  16.657  0.00  0.00    +0.000 NA
ATOM      4  CA  UNL     1       6.545   5.575  17.655  0.00  0.00    +0.000 C 
ATOM      5  C   UNL     1       5.229   4.783  17.814  0.00  0.00    +0.000 C 
ATOM      6  H   UNL     1       6.064   7.506  17.205  0.00  0.00    +0.000 HD
ENDROOT
BRANCH   1   8
ATOM      7  C   UNL     1       3.593   8.162  17.599  0.00  0.00    +0.000 C 
ATOM      8  C   UNL     1       3.323   6.687  17.822  0.00  0.00    +0.000 C 
ATOM      9  C   UNL     1       2.292   6.356  18.613  0.00  0.00    +0.000 C 
BRANCH   9  10
ATOM     10  C   UNL     1       1.851   5.012  18.918  0.00  0.00    +0.000 C 
ATOM     11  C   UNL     1       1.355   4.646  20.110  0.00  0.00    +0.000 C 
BRANCH  11  12
ATOM     12  C   UNL     1       0.887   3.243  20.411  0.00  0.00    +0.000 C 
ATOM     13  C   UNL     1       1.122   2.324  19.211  0.00  0.00    +0.000 C 
BRANCH  12  14
ATOM     14  C   UNL     1       1.573   2.681  21.665  0.00  0.00    +0.000 C 
ATOM     15  O   UNL     1       2.771   2.698  21.887  0.00  0.00    +0.000 OA
BRANCH  14  16
ATOM     16  O   UNL     1       0.694   2.201  22.582  0.00  0.00    +0.000 OA
ATOM     17  H   UNL     1      -0.073   1.728  22.211  0.00  0.00    +0.000 HD
ENDBRANCH  14  16
ENDBRANCH  12  14
ENDBRANCH  11  12
ENDBRANCH   9  10
ENDBRANCH   1   8
BRANCH   4  18
ATOM     18  C   UNL     1       7.700   4.708  17.110  0.00  0.00    +0.000 C 
ATOM     19  O   UNL     1       8.461   4.042  17.817  0.00  0.00    +0.000 OA
BRANCH  18  20
ATOM     20  OXT UNL     1       7.813   4.717  15.760  0.00  0.00    +0.000 OA
ATOM     21  HXT UNL     1       8.470   5.394  15.475  0.00  0.00    +0.000 HD
ENDBRANCH  18  20
ENDBRANCH   4  18
BRANCH   5  22
ATOM     22  C   UNL     1       4.929   4.286  19.234  0.00  0.00    +0.000 C 
BRANCH  22  23
ATOM     23  C   UNL     1       4.813   2.784  19.358  0.00  0.00    +0.000 C 
ATOM     24  O   UNL     1       5.187   2.124  20.333  0.00  0.00    +0.000 OA
BRANCH  23  25
ATOM     25  O   UNL     1       4.264   2.197  18.283  0.00  0.00    +0.000 OA
ATOM     26  H   UNL     1       4.695   1.360  18.021  0.00  0.00    +0.000 HD
ENDBRANCH  23  25
ENDBRANCH  22  23
ENDBRANCH   5  22
TORSDOF 10
ENDMDL
MODEL 3
REMARK VINA RESULT:      -7.1      2.961      6.380
REMARK  Name = 
REMARK  12 active torsions:
REMARK  status: ('A' for Active; 'I' for Inactive)
REMARK    1  A    between atoms: C_1  and  C_2
REMARK    2  A    between atoms: C_2  and  C_11
REMARK    3  A    between atoms: C_3  and  C_4
REMARK    4  A    between atoms: C_5  and  C_6
REMARK    5  A    between atoms: C_6  and  C_7
REMARK    6  A    between atoms: C_6  and  C_8
REMARK    7  A    between atoms: C_8  and  O_10
REMARK    8  A    between atoms: CA_14  and  C_15
REMARK    9  A    between atoms: C_15  and  OXT_17
REMARK   10  A    between atoms: C_18  and  C_19
REMARK   11  A    between atoms: C_19  and  C_20
REMARK   12  A    between atoms: C_20  and  O_22
REMARK                            x       y       z     vdW  Elec       q    Type
REMARK                         _______ _______ _______ _____ _____    ______ ____
ROOT
ATOM      1  C   UNL     1       5.066   4.857  17.985  0.00  0.00    +0.000 C 
ATOM      2  C   UNL     1       5.482   5.246  19.402  0.00  0.00    +0.000 C 
ATOM      3  N   UNL     1       4.279   5.004  20.229  0.00  0.00    +0.000 NA
ATOM      4  CA  UNL     1       3.667   3.755  19.659  0.00  0.00    +0.000 C 
ATOM      5  C   UNL     1       4.300   3.547  18.266  0.00  0.00    +0.000 C 
ATOM      6  H   UNL     1       3.616   5.761  20.031  0.00  0.00    +0.000 HD
ENDROOT
BRANCH   1   8
ATOM      7  C   UNL     1       3.391   6.900  17.928  0.00  0.00    +0.000 C 
ATOM      8  C   UNL     1       4.420   6.032  17.230  0.00  0.00    +0.000 C 
ATOM      9  C   UNL     1       4.782   6.373  15.985  0.00  0.00    +0.000 C 
BRANCH   9  10
ATOM     10  C   UNL     1       5.769   5.699  15.170  0.00  0.00    +0.000 C 
ATOM     11  C   UNL     1       5.483   4.669  14.359  0.00  0.00    +0.000 C 
BRANCH  11  12
ATOM     12  C   UNL     1       6.521   3.982  13.505  0.00  0.00    +0.000 C 
ATOM     13  C   UNL     1       5.857   3.199  12.370  0.00  0.00    +0.000 C 
BRANCH  12  14
ATOM     14  C   UNL     1       7.540   4.986  12.945  0.00  0.00    +0.000 C 
ATOM     15  O   UNL     1       8.327   5.641  13.605  0.00  0.00    +0.000 OA
BRANCH  14  16
ATOM     16  O   UNL     1       7.542   5.040  11.589  0.00  0.00    +0.000 OA
ATOM     17  H   UNL     1       6.946   4.407  11.148  0.00  0.00    +0.000 HD
ENDBRANCH  14  16
ENDBRANCH  12  14
ENDBRANCH  11  12
ENDBRANCH   9  10
ENDBRANCH   1   8
BRANCH   4  18
ATOM     18  C   UNL     1       3.967   2.593  20.629  0.00  0.00    +0.000 C 
ATOM     19  O   UNL     1       4.921   1.820  20.511  0.00  0.00    +0.000 OA
BRANCH  18  20
ATOM     20  OXT UNL     1       3.092   2.487  21.658  0.00  0.00    +0.000 OA
ATOM     21  HXT UNL     1       3.113   1.577  22.035  0.00  0.00    +0.000 HD
ENDBRANCH  18  20
ENDBRANCH   4  18
BRANCH   5  22
ATOM     22  C   UNL     1       3.353   2.998  17.190  0.00  0.00    +0.000 C 
BRANCH  22  23
ATOM     23  C   UNL     1       1.887   3.087  17.546  0.00  0.00    +0.000 C 
ATOM     24  O   UNL     1       1.192   4.103  17.434  0.00  0.00    +0.000 OA
BRANCH  23  25
ATOM     25  O   UNL     1       1.379   1.940  18.023  0.00  0.00    +0.000 OA
ATOM     26  H   UNL     1       1.994   1.434  18.590  0.00  0.00    +0.000 HD
ENDBRANCH  23  25
ENDBRANCH  22  23
ENDBRANCH   5  22
TORSDOF 10
ENDMDL
MODEL 4
REMARK VINA RESULT:      -7.1      2.993      6.492
REMARK  Name = 
REMARK  12 active torsions:
REMARK  status: ('A' for Active; 'I' for Inactive)
REMARK    1  A    between atoms: C_1  and  C_2
REMARK    2  A    between atoms: C_2  and  C_11
REMARK    3  A    between atoms: C_3  and  C_4
REMARK    4  A    between atoms: C_5  and  C_6
REMARK    5  A    between atoms: C_6  and  C_7
REMARK    6  A    between atoms: C_6  and  C_8
REMARK    7  A    between atoms: C_8  and  O_10
REMARK    8  A    between atoms: CA_14  and  C_15
REMARK    9  A    between atoms: C_15  and  OXT_17
REMARK   10  A    between atoms: C_18  and  C_19
REMARK   11  A    between atoms: C_19  and  C_20
REMARK   12  A    between atoms: C_20  and  O_22
REMARK                            x       y       z     vdW  Elec       q    Type
REMARK                         _______ _______ _______ _____ _____    ______ ____
ROOT
ATOM      1  C   UNL     1       2.998   5.670  19.685  0.00  0.00    +0.000 C 
ATOM      2  C   UNL     1       1.793   5.824  20.610  0.00  0.00    +0.000 C 
ATOM      3  N   UNL     1       1.005   4.588  20.413  0.00  0.00    +0.000 NA
ATOM      4  CA  UNL     1       2.031   3.499  20.257  0.00  0.00    +0.000 C 
ATOM      5  C   UNL     1       3.374   4.198  19.955  0.00  0.00    +0.000 C 
ATOM      6  H   UNL     1       0.535   4.667  19.505  0.00  0.00    +0.000 HD
ENDROOT
BRANCH   1   8
ATOM      7  C   UNL     1       1.282   6.200  17.747  0.00  0.00    +0.000 C 
ATOM      8  C   UNL     1       2.707   6.188  18.266  0.00  0.00    +0.000 C 
ATOM      9  C   UNL     1       3.661   6.703  17.478  0.00  0.00    +0.000 C 
BRANCH   9  10
ATOM     10  C   UNL     1       5.066   6.817  17.805  0.00  0.00    +0.000 C 
ATOM     11  C   UNL     1       6.054   6.568  16.932  0.00  0.00    +0.000 C 
BRANCH  11  12
ATOM     12  C   UNL     1       7.516   6.703  17.283  0.00  0.00    +0.000 C 
ATOM     13  C   UNL     1       7.855   8.150  17.646  0.00  0.00    +0.000 C 
BRANCH  12  14
ATOM     14  C   UNL     1       7.908   5.753  18.426  0.00  0.00    +0.000 C 
ATOM     15  O   UNL     1       7.854   4.536  18.387  0.00  0.00    +0.000 OA
BRANCH  14  16
ATOM     16  O   UNL     1       8.406   6.402  19.508  0.00  0.00    +0.000 OA
ATOM     17  H   UNL     1       7.892   7.177  19.799  0.00  0.00    +0.000 HD
ENDBRANCH  14  16
ENDBRANCH  12  14
ENDBRANCH  11  12
ENDBRANCH   9  10
ENDBRANCH   1   8
BRANCH   4  18
ATOM     18  C   UNL     1       2.063   2.686  21.568  0.00  0.00    +0.000 C 
ATOM     19  O   UNL     1       3.091   2.229  22.075  0.00  0.00    +0.000 OA
BRANCH  18  20
ATOM     20  OXT UNL     1       0.851   2.516  22.148  0.00  0.00    +0.000 OA
ATOM     21  HXT UNL     1       0.565   3.346  22.596  0.00  0.00    +0.000 HD
ENDBRANCH  18  20
ENDBRANCH   4  18
BRANCH   5  22
ATOM     22  C   UNL     1       4.282   3.470  18.954  0.00  0.00    +0.000 C 
BRANCH  22  23
ATOM     23  C   UNL     1       4.320   1.969  19.126  0.00  0.00    +0.000 C 
ATOM     24  O   UNL     1       3.657   1.163  18.462  0.00  0.00    +0.000 OA
BRANCH  23  25
ATOM     25  O   UNL     1       5.150   1.558  20.097  0.00  0.00    +0.000 OA
ATOM     26  H   UNL     1       5.707   2.268  20.474  0.00  0.00    +0.000 HD
ENDBRANCH  23  25
ENDBRANCH  22  23
ENDBRANCH   5  22
TORSDOF 10
ENDMDL
MODEL 5
REMARK VINA RESULT:      -7.1      2.892      6.336
REMARK  Name = 
REMARK  12 active torsions:
REMARK  status: ('A' for Active; 'I' for Inactive)
REMARK    1  A    between atoms: C_1  and  C_2
REMARK    2  A    between atoms: C_2  and  C_11
REMARK    3  A    between atoms: C_3  and  C_4
REMARK    4  A    between atoms: C_5  and  C_6
REMARK    5  A    between atoms: C_6  and  C_7
REMARK    6  A    between atoms: C_6  and  C_8
REMARK    7  A    between atoms: C_8  and  O_10
REMARK    8  A    between atoms: CA_14  and  C_15
REMARK    9  A    between atoms: C_15  and  OXT_17
REMARK   10  A    between atoms: C_18  and  C_19
REMARK   11  A    between atoms: C_19  and  C_20
REMARK   12  A    between atoms: C_20  and  O_22
REMARK                            x       y       z     vdW  Elec       q    Type
REMARK                         _______ _______ _______ _____ _____    ______ ____
ROOT
ATOM      1  C   UNL     1       3.146   5.546  19.615  0.00  0.00    +0.000 C 
ATOM      2  C   UNL     1       2.032   5.858  20.612  0.00  0.00    +0.000 C 
ATOM      3  N   UNL     1       1.087   4.726  20.489  0.00  0.00    +0.000 NA
ATOM      4  CA  UNL     1       1.959   3.518  20.288  0.00  0.00    +0.000 C 
ATOM      5  C   UNL     1       3.356   4.042  19.888  0.00  0.00    +0.000 C 
ATOM      6  H   UNL     1       0.572   4.853  19.611  0.00  0.00    +0.000 HD
ENDROOT
BRANCH   1   8
ATOM      7  C   UNL     1       1.404   6.460  17.851  0.00  0.00    +0.000 C 
ATOM      8  C   UNL     1       2.828   6.081  18.208  0.00  0.00    +0.000 C 
ATOM      9  C   UNL     1       3.779   6.297  17.288  0.00  0.00    +0.000 C 
BRANCH   9  10
ATOM     10  C   UNL     1       5.194   6.039  17.450  0.00  0.00    +0.000 C 
ATOM     11  C   UNL     1       6.105   7.003  17.657  0.00  0.00    +0.000 C 
BRANCH  11  12
ATOM     12  C   UNL     1       7.576   6.719  17.837  0.00  0.00    +0.000 C 
ATOM     13  C   UNL     1       8.311   7.964  18.339  0.00  0.00    +0.000 C 
BRANCH  12  14
ATOM     14  C   UNL     1       7.806   5.535  18.789  0.00  0.00    +0.000 C 
ATOM     15  O   UNL     1       7.657   5.558  19.998  0.00  0.00    +0.000 OA
BRANCH  14  16
ATOM     16  O   UNL     1       8.138   4.389  18.142  0.00  0.00    +0.000 OA
ATOM     17  H   UNL     1       8.907   4.458  17.546  0.00  0.00    +0.000 HD
ENDBRANCH  14  16
ENDBRANCH  12  14
ENDBRANCH  11  12
ENDBRANCH   9  10
ENDBRANCH   1   8
BRANCH   4  18
ATOM     18  C   UNL     1       1.978   2.721  21.609  0.00  0.00    +0.000 C 
ATOM     19  O   UNL     1       0.984   2.521  22.313  0.00  0.00    +0.000 OA
BRANCH  18  20
ATOM     20  OXT UNL     1       3.194   2.228  21.945  0.00  0.00    +0.000 OA
ATOM     21  HXT UNL     1       3.378   2.385  22.900  0.00  0.00    +0.000 HD
ENDBRANCH  18  20
ENDBRANCH   4  18
BRANCH   5  22
ATOM     22  C   UNL     1       4.099   3.197  18.846  0.00  0.00    +0.000 C 
BRANCH  22  23
ATOM     23  C   UNL     1       3.204   2.319  18.001  0.00  0.00    +0.000 C 
ATOM     24  O   UNL     1       2.446   2.728  17.114  0.00  0.00    +0.000 OA
BRANCH  23  25
ATOM     25  O   UNL     1       3.287   1.015  18.305  0.00  0.00    +0.000 OA
ATOM     26  H   UNL     1       3.622   0.455  17.578  0.00  0.00    +0.000 HD
ENDBRANCH  23  25
ENDBRANCH  22  23
ENDBRANCH   5  22
TORSDOF 10
ENDMDL
MODEL 6
REMARK VINA RESULT:      -7.0      2.687      3.544
REMARK  Name = 
REMARK  12 active torsions:
REMARK  status: ('A' for Active; 'I' for Inactive)
REMARK    1  A    between atoms: C_1  and  C_2
REMARK    2  A    between atoms: C_2  and  C_11
REMARK    3  A    between atoms: C_3  and  C_4
REMARK    4  A    between atoms: C_5  and  C_6
REMARK    5  A    between atoms: C_6  and  C_7
REMARK    6  A    between atoms: C_6  and  C_8
REMARK    7  A    between atoms: C_8  and  O_10
REMARK    8  A    between atoms: CA_14  and  C_15
REMARK    9  A    between atoms: C_15  and  OXT_17
REMARK   10  A    between atoms: C_18  and  C_19
REMARK   11  A    between atoms: C_19  and  C_20
REMARK   12  A    between atoms: C_20  and  O_22
REMARK                            x       y       z     vdW  Elec       q    Type
REMARK                         _______ _______ _______ _____ _____    ______ ____
ROOT
ATOM      1  C   UNL     1       4.129   5.773  17.015  0.00  0.00    +0.000 C 
ATOM      2  C   UNL     1       4.999   6.420  15.939  0.00  0.00    +0.000 C 
ATOM      3  N   UNL     1       6.275   6.730  16.619  0.00  0.00    +0.000 NA
ATOM      4  CA  UNL     1       6.507   5.569  17.546  0.00  0.00    +0.000 C 
ATOM      5  C   UNL     1       5.157   4.830  17.677  0.00  0.00    +0.000 C 
ATOM      6  H   UNL     1       6.111   7.544  17.220  0.00  0.00    +0.000 HD
ENDROOT
BRANCH   1   8
ATOM      7  C   UNL     1       3.674   8.288  17.681  0.00  0.00    +0.000 C 
ATOM      8  C   UNL     1       3.342   6.816  17.826  0.00  0.00    +0.000 C 
ATOM      9  C   UNL     1       2.311   6.485  18.615  0.00  0.00    +0.000 C 
BRANCH   9  10
ATOM     10  C   UNL     1       1.816   5.146  18.852  0.00  0.00    +0.000 C 
ATOM     11  C   UNL     1       1.225   4.764  19.995  0.00  0.00    +0.000 C 
BRANCH  11  12
ATOM     12  C   UNL     1       0.702   3.367  20.224  0.00  0.00    +0.000 C 
ATOM     13  C   UNL     1       0.675   2.576  18.914  0.00  0.00    +0.000 C 
BRANCH  12  14
ATOM     14  C   UNL     1       1.529   2.626  21.286  0.00  0.00    +0.000 C 
ATOM     15  O   UNL     1       1.378   2.716  22.492  0.00  0.00    +0.000 OA
BRANCH  14  16
ATOM     16  O   UNL     1       2.438   1.772  20.751  0.00  0.00    +0.000 OA
ATOM     17  H   UNL     1       2.066   1.087  20.165  0.00  0.00    +0.000 HD
ENDBRANCH  14  16
ENDBRANCH  12  14
ENDBRANCH  11  12
ENDBRANCH   9  10
ENDBRANCH   1   8
BRANCH   4  18
ATOM     18  C   UNL     1       7.613   4.684  16.934  0.00  0.00    +0.000 C 
ATOM     19  O   UNL     1       7.824   4.576  15.723  0.00  0.00    +0.000 OA
BRANCH  18  20
ATOM     20  OXT UNL     1       8.369   4.027  17.846  0.00  0.00    +0.000 OA
ATOM     21  HXT UNL     1       7.803   3.673  18.571  0.00  0.00    +0.000 HD
ENDBRANCH  18  20
ENDBRANCH   4  18
BRANCH   5  22
ATOM     22  C   UNL     1       4.851   4.263  19.069  0.00  0.00    +0.000 C 
BRANCH  22  23
ATOM     23  C   UNL     1       4.590   2.775  19.092  0.00  0.00    +0.000 C 
ATOM     24  O   UNL     1       3.880   2.168  18.283  0.00  0.00    +0.000 OA
BRANCH  23  25
ATOM     25  O   UNL     1       5.201   2.137  20.103  0.00  0.00    +0.000 OA
ATOM     26  H   UNL     1       5.186   1.163  20.029  0.00  0.00    +0.000 HD
ENDBRANCH  23  25
ENDBRANCH  22  23
ENDBRANCH   5  22
TORSDOF 10
ENDMDL
MODEL 7
REMARK VINA RESULT:      -7.0      3.447      6.439
REMARK  Name = 
REMARK  12 active torsions:
REMARK  status: ('A' for Active; 'I' for Inactive)
REMARK    1  A    between atoms: C_1  and  C_2
REMARK    2  A    between atoms: C_2  and  C_11
REMARK    3  A    between atoms: C_3  and  C_4
REMARK    4  A    between atoms: C_5  and  C_6
REMARK    5  A    between atoms: C_6  and  C_7
REMARK    6  A    between atoms: C_6  and  C_8
REMARK    7  A    between atoms: C_8  and  O_10
REMARK    8  A    between atoms: CA_14  and  C_15
REMARK    9  A    between atoms: C_15  and  OXT_17
REMARK   10  A    between atoms: C_18  and  C_19
REMARK   11  A    between atoms: C_19  and  C_20
REMARK   12  A    between atoms: C_20  and  O_22
REMARK                            x       y       z     vdW  Elec       q    Type
REMARK                         _______ _______ _______ _____ _____    ______ ____
ROOT
ATOM      1  C   UNL     1       5.636   4.253  17.269  0.00  0.00    +0.000 C 
ATOM      2  C   UNL     1       6.498   4.337  18.527  0.00  0.00    +0.000 C 
ATOM      3  N   UNL     1       5.552   4.685  19.610  0.00  0.00    +0.000 NA
ATOM      4  CA  UNL     1       4.300   3.917  19.288  0.00  0.00    +0.000 C 
ATOM      5  C   UNL     1       4.419   3.477  17.813  0.00  0.00    +0.000 C 
ATOM      6  H   UNL     1       5.313   5.676  19.500  0.00  0.00    +0.000 HD
ENDROOT
BRANCH   1   8
ATOM      7  C   UNL     1       5.220   6.858  17.411  0.00  0.00    +0.000 C 
ATOM      8  C   UNL     1       5.488   5.620  16.579  0.00  0.00    +0.000 C 
ATOM      9  C   UNL     1       5.657   5.782  15.259  0.00  0.00    +0.000 C 
BRANCH   9  10
ATOM     10  C   UNL     1       5.957   4.736  14.304  0.00  0.00    +0.000 C 
ATOM     11  C   UNL     1       5.059   4.244  13.437  0.00  0.00    +0.000 C 
BRANCH  11  12
ATOM     12  C   UNL     1       5.388   3.162  12.437  0.00  0.00    +0.000 C 
ATOM     13  C   UNL     1       4.352   3.129  11.312  0.00  0.00    +0.000 C 
BRANCH  12  14
ATOM     14  C   UNL     1       6.802   3.340  11.864  0.00  0.00    +0.000 C 
ATOM     15  O   UNL     1       7.378   4.404  11.714  0.00  0.00    +0.000 OA
BRANCH  14  16
ATOM     16  O   UNL     1       7.416   2.162  11.588  0.00  0.00    +0.000 OA
ATOM     17  H   UNL     1       6.848   1.486  11.174  0.00  0.00    +0.000 HD
ENDBRANCH  14  16
ENDBRANCH  12  14
ENDBRANCH  11  12
ENDBRANCH   9  10
ENDBRANCH   1   8
BRANCH   4  18
ATOM     18  C   UNL     1       4.212   2.723  20.261  0.00  0.00    +0.000 C 
ATOM     19  O   UNL     1       3.277   2.534  21.045  0.00  0.00    +0.000 OA
BRANCH  18  20
ATOM     20  OXT UNL     1       5.255   1.862  20.182  0.00  0.00    +0.000 OA
ATOM     21  HXT UNL     1       5.644   1.875  19.277  0.00  0.00    +0.000 HD
ENDBRANCH  18  20
ENDBRANCH   4  18
BRANCH   5  22
ATOM     22  C   UNL     1       3.109   3.501  17.014  0.00  0.00    +0.000 C 
BRANCH  22  23
ATOM     23  C   UNL     1       1.934   2.868  17.724  0.00  0.00    +0.000 C 
ATOM     24  O   UNL     1       0.889   3.455  18.024  0.00  0.00    +0.000 OA
BRANCH  23  25
ATOM     25  O   UNL     1       2.122   1.574  18.028  0.00  0.00    +0.000 OA
ATOM     26  H   UNL     1       1.411   1.184  18.573  0.00  0.00    +0.000 HD
ENDBRANCH  23  25
ENDBRANCH  22  23
ENDBRANCH   5  22
TORSDOF 10
ENDMDL
MODEL 8
REMARK VINA RESULT:      -7.0      2.917      6.317
REMARK  Name = 
REMARK  12 active torsions:
REMARK  status: ('A' for Active; 'I' for Inactive)
REMARK    1  A    between atoms: C_1  and  C_2
REMARK    2  A    between atoms: C_2  and  C_11
REMARK    3  A    between atoms: C_3  and  C_4
REMARK    4  A    between atoms: C_5  and  C_6
REMARK    5  A    between atoms: C_6  and  C_7
REMARK    6  A    between atoms: C_6  and  C_8
REMARK    7  A    between atoms: C_8  and  O_10
REMARK    8  A    between atoms: CA_14  and  C_15
REMARK    9  A    between atoms: C_15  and  OXT_17
REMARK   10  A    between atoms: C_18  and  C_19
REMARK   11  A    between atoms: C_19  and  C_20
REMARK   12  A    between atoms: C_20  and  O_22
REMARK                            x       y       z     vdW  Elec       q    Type
REMARK                         _______ _______ _______ _____ _____    ______ ____
ROOT
ATOM      1  C   UNL     1       5.094   4.817  17.875  0.00  0.00    +0.000 C 
ATOM      2  C   UNL     1       5.614   5.154  19.272  0.00  0.00    +0.000 C 
ATOM      3  N   UNL     1       4.441   5.002  20.159  0.00  0.00    +0.000 NA
ATOM      4  CA  UNL     1       3.698   3.813  19.613  0.00  0.00    +0.000 C 
ATOM      5  C   UNL     1       4.238   3.571  18.187  0.00  0.00    +0.000 C 
ATOM      6  H   UNL     1       3.833   5.812  20.003  0.00  0.00    +0.000 HD
ENDROOT
BRANCH   1   8
ATOM      7  C   UNL     1       3.508   6.930  17.888  0.00  0.00    +0.000 C 
ATOM      8  C   UNL     1       4.508   6.050  17.165  0.00  0.00    +0.000 C 
ATOM      9  C   UNL     1       4.900   6.429  15.941  0.00  0.00    +0.000 C 
BRANCH   9  10
ATOM     10  C   UNL     1       5.869   5.748  15.108  0.00  0.00    +0.000 C 
ATOM     11  C   UNL     1       5.564   4.714  14.309  0.00  0.00    +0.000 C 
BRANCH  11  12
ATOM     12  C   UNL     1       6.581   4.021  13.436  0.00  0.00    +0.000 C 
ATOM     13  C   UNL     1       5.891   3.198  12.347  0.00  0.00    +0.000 C 
BRANCH  12  14
ATOM     14  C   UNL     1       7.563   5.026  12.813  0.00  0.00    +0.000 C 
ATOM     15  O   UNL     1       7.580   5.369  11.644  0.00  0.00    +0.000 OA
BRANCH  14  16
ATOM     16  O   UNL     1       8.405   5.579  13.722  0.00  0.00    +0.000 OA
ATOM     17  H   UNL     1       9.029   4.957  14.140  0.00  0.00    +0.000 HD
ENDBRANCH  14  16
ENDBRANCH  12  14
ENDBRANCH  11  12
ENDBRANCH   9  10
ENDBRANCH   1   8
BRANCH   4  18
ATOM     18  C   UNL     1       3.952   2.619  20.557  0.00  0.00    +0.000 C 
ATOM     19  O   UNL     1       3.288   2.382  21.569  0.00  0.00    +0.000 OA
BRANCH  18  20
ATOM     20  OXT UNL     1       4.976   1.818  20.178  0.00  0.00    +0.000 OA
ATOM     21  HXT UNL     1       5.106   1.865  19.202  0.00  0.00    +0.000 HD
ENDBRANCH  18  20
ENDBRANCH   4  18
BRANCH   5  22
ATOM     22  C   UNL     1       3.194   3.115  17.159  0.00  0.00    +0.000 C 
BRANCH  22  23
ATOM     23  C   UNL     1       1.764   3.206  17.641  0.00  0.00    +0.000 C 
ATOM     24  O   UNL     1       1.164   2.311  18.248  0.00  0.00    +0.000 OA
BRANCH  23  25
ATOM     25  O   UNL     1       1.167   4.369  17.339  0.00  0.00    +0.000 OA
ATOM     26  H   UNL     1       1.785   5.083  17.088  0.00  0.00    +0.000 HD
ENDBRANCH  23  25
ENDBRANCH  22  23
ENDBRANCH   5  22
TORSDOF 10
ENDMDL
MODEL 9
REMARK VINA RESULT:      -7.0      3.559      6.089
REMARK  Name = 
REMARK  12 active torsions:
REMARK  status: ('A' for Active; 'I' for Inactive)
REMARK    1  A    between atoms: C_1  and  C_2
REMARK    2  A    between atoms: C_2  and  C_11
REMARK    3  A    between atoms: C_3  and  C_4
REMARK    4  A    between atoms: C_5  and  C_6
REMARK    5  A    between atoms: C_6  and  C_7
REMARK    6  A    between atoms: C_6  and  C_8
REMARK    7  A    between atoms: C_8  and  O_10
REMARK    8  A    between atoms: CA_14  and  C_15
REMARK    9  A    between atoms: C_15  and  OXT_17
REMARK   10  A    between atoms: C_18  and  C_19
REMARK   11  A    between atoms: C_19  and  C_20
REMARK   12  A    between atoms: C_20  and  O_22
REMARK                            x       y       z     vdW  Elec       q    Type
REMARK                         _______ _______ _______ _____ _____    ______ ____
ROOT
ATOM      1  C   UNL     1       4.551   4.868  16.743  0.00  0.00    +0.000 C 
ATOM      2  C   UNL     1       4.671   3.470  17.348  0.00  0.00    +0.000 C 
ATOM      3  N   UNL     1       5.026   3.700  18.765  0.00  0.00    +0.000 NA
ATOM      4  CA  UNL     1       4.235   4.914  19.167  0.00  0.00    +0.000 C 
ATOM      5  C   UNL     1       3.768   5.591  17.860  0.00  0.00    +0.000 C 
ATOM      6  H   UNL     1       6.012   3.983  18.790  0.00  0.00    +0.000 HD
ENDROOT
BRANCH   1   8
ATOM      7  C   UNL     1       6.623   6.488  16.986  0.00  0.00    +0.000 C 
ATOM      8  C   UNL     1       5.901   5.392  16.227  0.00  0.00    +0.000 C 
ATOM      9  C   UNL     1       6.516   4.867  15.157  0.00  0.00    +0.000 C 
BRANCH   9  10
ATOM     10  C   UNL     1       6.012   3.793  14.328  0.00  0.00    +0.000 C 
ATOM     11  C   UNL     1       5.652   3.953  13.045  0.00  0.00    +0.000 C 
BRANCH  11  12
ATOM     12  C   UNL     1       5.139   2.822  12.188  0.00  0.00    +0.000 C 
ATOM     13  C   UNL     1       4.195   3.347  11.104  0.00  0.00    +0.000 C 
BRANCH  12  14
ATOM     14  C   UNL     1       6.295   2.027  11.559  0.00  0.00    +0.000 C 
ATOM     15  O   UNL     1       7.391   2.476  11.273  0.00  0.00    +0.000 OA
BRANCH  14  16
ATOM     16  O   UNL     1       6.010   0.710  11.402  0.00  0.00    +0.000 OA
ATOM     17  H   UNL     1       5.063   0.483  11.447  0.00  0.00    +0.000 HD
ENDBRANCH  14  16
ENDBRANCH  12  14
ENDBRANCH  11  12
ENDBRANCH   9  10
ENDBRANCH   1   8
BRANCH   4  18
ATOM     18  C   UNL     1       3.058   4.443  20.048  0.00  0.00    +0.000 C 
ATOM     19  O   UNL     1       2.510   3.343  19.943  0.00  0.00    +0.000 OA
BRANCH  18  20
ATOM     20  OXT UNL     1       2.667   5.344  20.981  0.00  0.00    +0.000 OA
ATOM     21  HXT UNL     1       3.370   6.019  21.123  0.00  0.00    +0.000 HD
ENDBRANCH  18  20
ENDBRANCH   4  18
BRANCH   5  22
ATOM     22  C   UNL     1       3.758   7.125  17.883  0.00  0.00    +0.000 C 
BRANCH  22  23
ATOM     23  C   UNL     1       2.484   7.732  18.425  0.00  0.00    +0.000 C 
ATOM     24  O   UNL     1       2.158   7.744  19.617  0.00  0.00    +0.000 OA
BRANCH  23  25
ATOM     25  O   UNL     1       1.697   8.266  17.478  0.00  0.00    +0.000 OA
ATOM     26  H   UNL     1       0.927   7.714  17.240  0.00  0.00    +0.000 HD
ENDBRANCH  23  25
ENDBRANCH  22  23
ENDBRANCH   5  22
TORSDOF 10
ENDMDL
