MODEL 1
REMARK VINA RESULT:      -8.1      0.000      0.000
REMARK  Name = 
REMARK  8 active torsions:
REMARK  status: ('A' for Active; 'I' for Inactive)
REMARK    1  A    between atoms: C_1  and  C_2
REMARK    2  A    between atoms: C_12  and  C_13
REMARK    3  A    between atoms: C_13  and  N_14
REMARK    4  A    between atoms: N_17  and  C_18
REMARK    5  A    between atoms: N_17  and  C_19
REMARK    6  A    between atoms: C_24  and  N_25
REMARK    7  A    between atoms: N_25  and  C_26
REMARK    8  A    between atoms: N_25  and  C_27
REMARK                            x       y       z     vdW  Elec       q    Type
REMARK                         _______ _______ _______ _____ _____    ______ ____
ROOT
ATOM      1  C   UNL     1      -1.393  12.263  19.676  0.00  0.00    +0.000 C 
ATOM      2  C   UNL     1      -0.460  11.103  19.781  0.00  0.00    +0.000 A 
ATOM      3  C   UNL     1       0.141  10.681  18.606  0.00  0.00    +0.000 A 
ATOM      4  N   UNL     1       0.949   9.632  18.494  0.00  0.00    +0.000 NA
ATOM      5  C   UNL     1       1.173   8.917  19.601  0.00  0.00    +0.000 A 
ATOM      6  N   UNL     1       1.989   7.815  19.486  0.00  0.00    +0.000 N 
ATOM      7  C   UNL     1       2.267   6.972  20.622  0.00  0.00    +0.000 C 
ATOM      8  C   UNL     1       1.661   5.594  20.393  0.00  0.00    +0.000 C 
ATOM      9  C   UNL     1       2.281   4.735  19.285  0.00  0.00    +0.000 C 
ATOM     10  N   UNL     1       3.423   5.245  18.555  0.00  0.00    +0.000 N 
ATOM     11  N   UNL     1       4.411   4.383  18.211  0.00  0.00    +0.000 NA
ATOM     12  C   UNL     1       5.247   5.113  17.458  0.00  0.00    +0.000 A 
ATOM     13  C   UNL     1       4.802   6.447  17.355  0.00  0.00    +0.000 A 
ATOM     14  C   UNL     1       3.619   6.504  18.054  0.00  0.00    +0.000 A 
ATOM     15  C   UNL     1       2.674   7.650  18.212  0.00  0.00    +0.000 C 
ATOM     16  N   UNL     1       0.613   9.250  20.791  0.00  0.00    +0.000 NA
ATOM     17  C   UNL     1      -0.175  10.343  20.916  0.00  0.00    +0.000 A 
ENDROOT
BRANCH  17  18
ATOM     18  N   UNL     1      -0.728  10.589  22.165  0.00  0.00    +0.000 N 
ATOM     19  C   UNL     1      -0.489   9.620  23.234  0.00  0.00    +0.000 C 
ATOM     20  C   UNL     1      -1.190  11.879  22.664  0.00  0.00    +0.000 C 
ENDBRANCH  17  18
BRANCH  12  21
ATOM     21  C   UNL     1       6.464   4.531  16.806  0.00  0.00    +0.000 C 
BRANCH  21  22
ATOM     22  N   UNL     1       6.152   4.127  15.445  0.00  0.00    +0.000 N 
ATOM     23  C   UNL     1       6.891   4.627  14.401  0.00  0.00    +0.000 C 
ATOM     24  O   UNL     1       7.843   5.367  14.603  0.00  0.00    +0.000 OA
ATOM     25  N   UNL     1       6.525   4.220  13.130  0.00  0.00    +0.000 N 
ATOM     26  C   UNL     1       5.408   3.363  12.765  0.00  0.00    +0.000 C 
ATOM     27  C   UNL     1       7.340   4.672  12.009  0.00  0.00    +0.000 C 
ATOM     28  H   UNL     1       5.266   3.681  15.311  0.00  0.00    +0.000 HD
ENDBRANCH  21  22
ENDBRANCH  12  21
TORSDOF 3
ENDMDL
MODEL 2
REMARK VINA RESULT:      -7.9      3.785     10.188
REMARK  Name = 
REMARK  8 active torsions:
REMARK  status: ('A' for Active; 'I' for Inactive)
REMARK    1  A    between atoms: C_1  and  C_2
REMARK    2  A    between atoms: C_12  and  C_13
REMARK    3  A    between atoms: C_13  and  N_14
REMARK    4  A    between atoms: N_17  and  C_18
REMARK    5  A    between atoms: N_17  and  C_19
REMARK    6  A    between atoms: C_24  and  N_25
REMARK    7  A    between atoms: N_25  and  C_26
REMARK    8  A    between atoms: N_25  and  C_27
REMARK                            x       y       z     vdW  Elec       q    Type
REMARK                         _______ _______ _______ _____ _____    ______ ____
ROOT
ATOM      1  C   UNL     1       3.961   2.635  19.519  0.00  0.00    +0.000 C 
ATOM      2  C   UNL     1       3.540   4.067  19.541  0.00  0.00    +0.000 A 
ATOM      3  C   UNL     1       2.527   4.403  20.423  0.00  0.00    +0.000 A 
ATOM      4  N   UNL     1       1.982   5.610  20.538  0.00  0.00    +0.000 NA
ATOM      5  C   UNL     1       2.434   6.561  19.715  0.00  0.00    +0.000 A 
ATOM      6  N   UNL     1       1.856   7.806  19.812  0.00  0.00    +0.000 N 
ATOM      7  C   UNL     1       2.264   8.886  18.950  0.00  0.00    +0.000 C 
ATOM      8  C   UNL     1       1.111   9.266  18.030  0.00  0.00    +0.000 C 
ATOM      9  C   UNL     1      -0.116   9.915  18.682  0.00  0.00    +0.000 C 
ATOM     10  N   UNL     1      -0.101  10.175  20.106  0.00  0.00    +0.000 N 
ATOM     11  N   UNL     1      -0.667  11.320  20.563  0.00  0.00    +0.000 NA
ATOM     12  C   UNL     1      -0.603  11.216  21.898  0.00  0.00    +0.000 A 
ATOM     13  C   UNL     1       0.035  10.019  22.284  0.00  0.00    +0.000 A 
ATOM     14  C   UNL     1       0.334   9.359  21.116  0.00  0.00    +0.000 A 
ATOM     15  C   UNL     1       0.942   8.008  20.928  0.00  0.00    +0.000 C 
ATOM     16  N   UNL     1       3.414   6.315  18.810  0.00  0.00    +0.000 NA
ATOM     17  C   UNL     1       4.001   5.098  18.722  0.00  0.00    +0.000 A 
ENDROOT
BRANCH  17  18
ATOM     18  N   UNL     1       4.974   4.930  17.747  0.00  0.00    +0.000 N 
ATOM     19  C   UNL     1       6.379   4.965  18.154  0.00  0.00    +0.000 C 
ATOM     20  C   UNL     1       4.781   4.334  16.431  0.00  0.00    +0.000 C 
ENDBRANCH  17  18
BRANCH  12  21
ATOM     21  C   UNL     1      -1.180  12.250  22.817  0.00  0.00    +0.000 C 
BRANCH  21  22
ATOM     22  N   UNL     1      -2.392  12.805  22.239  0.00  0.00    +0.000 N 
ATOM     23  C   UNL     1      -3.601  12.582  22.851  0.00  0.00    +0.000 C 
ATOM     24  O   UNL     1      -3.667  11.967  23.905  0.00  0.00    +0.000 OA
ATOM     25  N   UNL     1      -4.718  13.120  22.235  0.00  0.00    +0.000 N 
ATOM     26  C   UNL     1      -4.767  13.850  20.979  0.00  0.00    +0.000 C 
ATOM     27  C   UNL     1      -6.005  12.965  22.903  0.00  0.00    +0.000 C 
ATOM     28  H   UNL     1      -2.320  13.134  21.296  0.00  0.00    +0.000 HD
ENDBRANCH  21  22
ENDBRANCH  12  21
TORSDOF 3
ENDMDL
MODEL 3
REMARK VINA RESULT:      -7.6      3.773     10.048
REMARK  Name = 
REMARK  8 active torsions:
REMARK  status: ('A' for Active; 'I' for Inactive)
REMARK    1  A    between atoms: C_1  and  C_2
REMARK    2  A    between atoms: C_12  and  C_13
REMARK    3  A    between atoms: C_13  and  N_14
REMARK    4  A    between atoms: N_17  and  C_18
REMARK    5  A    between atoms: N_17  and  C_19
REMARK    6  A    between atoms: C_24  and  N_25
REMARK    7  A    between atoms: N_25  and  C_26
REMARK    8  A    between atoms: N_25  and  C_27
REMARK                            x       y       z     vdW  Elec       q    Type
REMARK                         _______ _______ _______ _____ _____    ______ ____
ROOT
ATOM      1  C   UNL     1       3.217   2.444  20.221  0.00  0.00    +0.000 C 
ATOM      2  C   UNL     1       2.988   3.908  20.044  0.00  0.00    +0.000 A 
ATOM      3  C   UNL     1       2.041   4.492  20.868  0.00  0.00    +0.000 A 
ATOM      4  N   UNL     1       1.661   5.765  20.814  0.00  0.00    +0.000 NA
ATOM      5  C   UNL     1       2.221   6.526  19.869  0.00  0.00    +0.000 A 
ATOM      6  N   UNL     1       1.813   7.838  19.792  0.00  0.00    +0.000 N 
ATOM      7  C   UNL     1       2.345   8.726  18.789  0.00  0.00    +0.000 C 
ATOM      8  C   UNL     1       1.237   9.125  17.823  0.00  0.00    +0.000 C 
ATOM      9  C   UNL     1       0.117  10.014  18.376  0.00  0.00    +0.000 C 
ATOM     10  N   UNL     1       0.188  10.463  19.750  0.00  0.00    +0.000 N 
ATOM     11  N   UNL     1      -0.216  11.724  20.043  0.00  0.00    +0.000 NA
ATOM     12  C   UNL     1      -0.145  11.797  21.380  0.00  0.00    +0.000 A 
ATOM     13  C   UNL     1       0.336  10.591  21.930  0.00  0.00    +0.000 A 
ATOM     14  C   UNL     1       0.528   9.742  20.864  0.00  0.00    +0.000 A 
ATOM     15  C   UNL     1       0.951   8.310  20.867  0.00  0.00    +0.000 C 
ATOM     16  N   UNL     1       3.146   6.032  19.009  0.00  0.00    +0.000 NA
ATOM     17  C   UNL     1       3.566   4.747  19.092  0.00  0.00    +0.000 A 
ENDROOT
BRANCH  17  18
ATOM     18  N   UNL     1       4.494   4.320  18.152  0.00  0.00    +0.000 N 
ATOM     19  C   UNL     1       4.001   3.798  16.877  0.00  0.00    +0.000 C 
ATOM     20  C   UNL     1       5.905   4.683  18.106  0.00  0.00    +0.000 C 
ENDBRANCH  17  18
BRANCH  12  21
ATOM     21  C   UNL     1      -0.567  13.014  22.146  0.00  0.00    +0.000 C 
BRANCH  21  22
ATOM     22  N   UNL     1      -1.790  12.738  22.880  0.00  0.00    +0.000 N 
ATOM     23  C   UNL     1      -3.005  13.049  22.319  0.00  0.00    +0.000 C 
ATOM     24  O   UNL     1      -3.075  13.506  21.188  0.00  0.00    +0.000 OA
ATOM     25  N   UNL     1      -4.128  12.780  23.082  0.00  0.00    +0.000 N 
ATOM     26  C   UNL     1      -4.170  12.256  24.438  0.00  0.00    +0.000 C 
ATOM     27  C   UNL     1      -5.434  13.027  22.482  0.00  0.00    +0.000 C 
ATOM     28  H   UNL     1      -1.684  12.543  23.856  0.00  0.00    +0.000 HD
ENDBRANCH  21  22
ENDBRANCH  12  21
TORSDOF 3
ENDMDL
MODEL 4
REMARK VINA RESULT:      -7.5      0.919      1.118
REMARK  Name = 
REMARK  8 active torsions:
REMARK  status: ('A' for Active; 'I' for Inactive)
REMARK    1  A    between atoms: C_1  and  C_2
REMARK    2  A    between atoms: C_12  and  C_13
REMARK    3  A    between atoms: C_13  and  N_14
REMARK    4  A    between atoms: N_17  and  C_18
REMARK    5  A    between atoms: N_17  and  C_19
REMARK    6  A    between atoms: C_24  and  N_25
REMARK    7  A    between atoms: N_25  and  C_26
REMARK    8  A    between atoms: N_25  and  C_27
REMARK                            x       y       z     vdW  Elec       q    Type
REMARK                         _______ _______ _______ _____ _____    ______ ____
ROOT
ATOM      1  C   UNL     1      -1.310  11.898  18.771  0.00  0.00    +0.000 C 
ATOM      2  C   UNL     1      -0.313  10.818  19.032  0.00  0.00    +0.000 A 
ATOM      3  C   UNL     1       0.403  10.358  17.940  0.00  0.00    +0.000 A 
ATOM      4  N   UNL     1       1.286   9.363  17.969  0.00  0.00    +0.000 NA
ATOM      5  C   UNL     1       1.470   8.749  19.141  0.00  0.00    +0.000 A 
ATOM      6  N   UNL     1       2.364   7.703  19.171  0.00  0.00    +0.000 N 
ATOM      7  C   UNL     1       2.608   6.966  20.385  0.00  0.00    +0.000 C 
ATOM      8  C   UNL     1       2.114   5.535  20.220  0.00  0.00    +0.000 C 
ATOM      9  C   UNL     1       2.873   4.644  19.230  0.00  0.00    +0.000 C 
ATOM     10  N   UNL     1       4.032   5.181  18.547  0.00  0.00    +0.000 N 
ATOM     11  N   UNL     1       5.099   4.370  18.342  0.00  0.00    +0.000 NA
ATOM     12  C   UNL     1       5.940   5.101  17.598  0.00  0.00    +0.000 A 
ATOM     13  C   UNL     1       5.417   6.390  17.360  0.00  0.00    +0.000 A 
ATOM     14  C   UNL     1       4.182   6.412  17.965  0.00  0.00    +0.000 A 
ATOM     15  C   UNL     1       3.154   7.495  17.965  0.00  0.00    +0.000 C 
ATOM     16  N   UNL     1       0.799   9.125  20.258  0.00  0.00    +0.000 NA
ATOM     17  C   UNL     1      -0.067  10.166  20.240  0.00  0.00    +0.000 A 
ENDROOT
BRANCH  17  18
ATOM     18  N   UNL     1      -0.730  10.461  21.423  0.00  0.00    +0.000 N 
ATOM     19  C   UNL     1      -0.588   9.538  22.549  0.00  0.00    +0.000 C 
ATOM     20  C   UNL     1      -1.236  11.769  21.825  0.00  0.00    +0.000 C 
ENDBRANCH  17  18
BRANCH  12  21
ATOM     21  C   UNL     1       7.240   4.563  17.083  0.00  0.00    +0.000 C 
BRANCH  21  22
ATOM     22  N   UNL     1       7.336   4.789  15.650  0.00  0.00    +0.000 N 
ATOM     23  C   UNL     1       6.580   4.030  14.790  0.00  0.00    +0.000 C 
ATOM     24  O   UNL     1       5.787   3.202  15.215  0.00  0.00    +0.000 OA
ATOM     25  N   UNL     1       6.737   4.281  13.438  0.00  0.00    +0.000 N 
ATOM     26  C   UNL     1       7.655   5.222  12.816  0.00  0.00    +0.000 C 
ATOM     27  C   UNL     1       5.891   3.545  12.506  0.00  0.00    +0.000 C 
ATOM     28  H   UNL     1       8.117   5.332  15.341  0.00  0.00    +0.000 HD
ENDBRANCH  21  22
ENDBRANCH  12  21
TORSDOF 3
ENDMDL
MODEL 5
REMARK VINA RESULT:      -7.4      3.628      9.285
REMARK  Name = 
REMARK  8 active torsions:
REMARK  status: ('A' for Active; 'I' for Inactive)
REMARK    1  A    between atoms: C_1  and  C_2
REMARK    2  A    between atoms: C_12  and  C_13
REMARK    3  A    between atoms: C_13  and  N_14
REMARK    4  A    between atoms: N_17  and  C_18
REMARK    5  A    between atoms: N_17  and  C_19
REMARK    6  A    between atoms: C_24  and  N_25
REMARK    7  A    between atoms: N_25  and  C_26
REMARK    8  A    between atoms: N_25  and  C_27
REMARK                            x       y       z     vdW  Elec       q    Type
REMARK                         _______ _______ _______ _____ _____    ______ ____
ROOT
ATOM      1  C   UNL     1       6.004   4.307  16.426  0.00  0.00    +0.000 C 
ATOM      2  C   UNL     1       4.892   5.033  17.106  0.00  0.00    +0.000 A 
ATOM      3  C   UNL     1       4.805   6.395  16.870  0.00  0.00    +0.000 A 
ATOM      4  N   UNL     1       3.921   7.214  17.434  0.00  0.00    +0.000 NA
ATOM      5  C   UNL     1       3.074   6.677  18.317  0.00  0.00    +0.000 A 
ATOM      6  N   UNL     1       2.174   7.524  18.922  0.00  0.00    +0.000 N 
ATOM      7  C   UNL     1       1.237   7.038  19.904  0.00  0.00    +0.000 C 
ATOM      8  C   UNL     1       1.560   7.649  21.261  0.00  0.00    +0.000 C 
ATOM      9  C   UNL     1       1.328   9.157  21.419  0.00  0.00    +0.000 C 
ATOM     10  N   UNL     1       0.779   9.905  20.307  0.00  0.00    +0.000 N 
ATOM     11  N   UNL     1      -0.114  10.891  20.566  0.00  0.00    +0.000 NA
ATOM     12  C   UNL     1      -0.339  11.462  19.374  0.00  0.00    +0.000 A 
ATOM     13  C   UNL     1       0.389  10.813  18.355  0.00  0.00    +0.000 A 
ATOM     14  C   UNL     1       1.113   9.826  18.981  0.00  0.00    +0.000 A 
ATOM     15  C   UNL     1       2.115   8.883  18.401  0.00  0.00    +0.000 C 
ATOM     16  N   UNL     1       3.099   5.355  18.618  0.00  0.00    +0.000 NA
ATOM     17  C   UNL     1       3.969   4.513  18.012  0.00  0.00    +0.000 A 
ENDROOT
BRANCH  17  18
ATOM     18  N   UNL     1       3.943   3.182  18.405  0.00  0.00    +0.000 N 
ATOM     19  C   UNL     1       4.490   2.833  19.716  0.00  0.00    +0.000 C 
ATOM     20  C   UNL     1       3.091   2.136  17.852  0.00  0.00    +0.000 C 
ENDBRANCH  17  18
BRANCH  12  21
ATOM     21  C   UNL     1      -1.231  12.655  19.205  0.00  0.00    +0.000 C 
BRANCH  21  22
ATOM     22  N   UNL     1      -2.502  12.244  18.632  0.00  0.00    +0.000 N 
ATOM     23  C   UNL     1      -3.630  12.236  19.417  0.00  0.00    +0.000 C 
ATOM     24  O   UNL     1      -3.591  12.620  20.577  0.00  0.00    +0.000 OA
ATOM     25  N   UNL     1      -4.802  11.812  18.815  0.00  0.00    +0.000 N 
ATOM     26  C   UNL     1      -4.969  11.320  17.457  0.00  0.00    +0.000 C 
ATOM     27  C   UNL     1      -6.029  11.867  19.600  0.00  0.00    +0.000 C 
ATOM     28  H   UNL     1      -2.456  11.768  17.753  0.00  0.00    +0.000 HD
ENDBRANCH  21  22
ENDBRANCH  12  21
TORSDOF 3
ENDMDL
MODEL 6
REMARK VINA RESULT:      -7.3      2.062      4.270
REMARK  Name = 
REMARK  8 active torsions:
REMARK  status: ('A' for Active; 'I' for Inactive)
REMARK    1  A    between atoms: C_1  and  C_2
REMARK    2  A    between atoms: C_12  and  C_13
REMARK    3  A    between atoms: C_13  and  N_14
REMARK    4  A    between atoms: N_17  and  C_18
REMARK    5  A    between atoms: N_17  and  C_19
REMARK    6  A    between atoms: C_24  and  N_25
REMARK    7  A    between atoms: N_25  and  C_26
REMARK    8  A    between atoms: N_25  and  C_27
REMARK                            x       y       z     vdW  Elec       q    Type
REMARK                         _______ _______ _______ _____ _____    ______ ____
ROOT
ATOM      1  C   UNL     1      -2.642  13.772  23.852  0.00  0.00    +0.000 C 
ATOM      2  C   UNL     1      -2.117  12.804  22.846  0.00  0.00    +0.000 A 
ATOM      3  C   UNL     1      -1.080  11.983  23.256  0.00  0.00    +0.000 A 
ATOM      4  N   UNL     1      -0.447  11.105  22.483  0.00  0.00    +0.000 NA
ATOM      5  C   UNL     1      -0.830  11.036  21.205  0.00  0.00    +0.000 A 
ATOM      6  N   UNL     1      -0.162  10.147  20.394  0.00  0.00    +0.000 N 
ATOM      7  C   UNL     1      -0.491  10.020  18.997  0.00  0.00    +0.000 C 
ATOM      8  C   UNL     1       0.684  10.494  18.152  0.00  0.00    +0.000 C 
ATOM      9  C   UNL     1       1.957   9.639  18.188  0.00  0.00    +0.000 C 
ATOM     10  N   UNL     1       1.964   8.420  18.970  0.00  0.00    +0.000 N 
ATOM     11  N   UNL     1       2.614   7.337  18.478  0.00  0.00    +0.000 NA
ATOM     12  C   UNL     1       2.545   6.428  19.461  0.00  0.00    +0.000 A 
ATOM     13  C   UNL     1       1.822   6.928  20.564  0.00  0.00    +0.000 A 
ATOM     14  C   UNL     1       1.473   8.216  20.232  0.00  0.00    +0.000 A 
ATOM     15  C   UNL     1       0.766   9.241  21.057  0.00  0.00    +0.000 C 
ATOM     16  N   UNL     1      -1.827  11.813  20.715  0.00  0.00    +0.000 NA
ATOM     17  C   UNL     1      -2.502  12.676  21.511  0.00  0.00    +0.000 A 
ENDROOT
BRANCH  17  18
ATOM     18  N   UNL     1      -3.487  13.452  20.917  0.00  0.00    +0.000 N 
ATOM     19  C   UNL     1      -3.208  14.868  20.681  0.00  0.00    +0.000 C 
ATOM     20  C   UNL     1      -4.619  12.962  20.139  0.00  0.00    +0.000 C 
ENDBRANCH  17  18
BRANCH  12  21
ATOM     21  C   UNL     1       3.198   5.083  19.366  0.00  0.00    +0.000 C 
BRANCH  21  22
ATOM     22  N   UNL     1       4.013   5.012  18.164  0.00  0.00    +0.000 N 
ATOM     23  C   UNL     1       5.371   4.840  18.273  0.00  0.00    +0.000 C 
ATOM     24  O   UNL     1       5.900   4.691  19.365  0.00  0.00    +0.000 OA
ATOM     25  N   UNL     1       6.090   4.805  17.090  0.00  0.00    +0.000 N 
ATOM     26  C   UNL     1       5.578   4.986  15.741  0.00  0.00    +0.000 C 
ATOM     27  C   UNL     1       7.522   4.545  17.171  0.00  0.00    +0.000 C 
ATOM     28  H   UNL     1       3.577   5.321  17.318  0.00  0.00    +0.000 HD
ENDBRANCH  21  22
ENDBRANCH  12  21
TORSDOF 3
ENDMDL
MODEL 7
REMARK VINA RESULT:      -7.3      3.811      9.992
REMARK  Name = 
REMARK  8 active torsions:
REMARK  status: ('A' for Active; 'I' for Inactive)
REMARK    1  A    between atoms: C_1  and  C_2
REMARK    2  A    between atoms: C_12  and  C_13
REMARK    3  A    between atoms: C_13  and  N_14
REMARK    4  A    between atoms: N_17  and  C_18
REMARK    5  A    between atoms: N_17  and  C_19
REMARK    6  A    between atoms: C_24  and  N_25
REMARK    7  A    between atoms: N_25  and  C_26
REMARK    8  A    between atoms: N_25  and  C_27
REMARK                            x       y       z     vdW  Elec       q    Type
REMARK                         _______ _______ _______ _____ _____    ______ ____
ROOT
ATOM      1  C   UNL     1       3.352   2.681  20.457  0.00  0.00    +0.000 C 
ATOM      2  C   UNL     1       3.095   4.117  20.144  0.00  0.00    +0.000 A 
ATOM      3  C   UNL     1       2.180   4.773  20.950  0.00  0.00    +0.000 A 
ATOM      4  N   UNL     1       1.780   6.031  20.786  0.00  0.00    +0.000 NA
ATOM      5  C   UNL     1       2.284   6.697  19.744  0.00  0.00    +0.000 A 
ATOM      6  N   UNL     1       1.855   7.991  19.554  0.00  0.00    +0.000 N 
ATOM      7  C   UNL     1       2.327   8.778  18.443  0.00  0.00    +0.000 C 
ATOM      8  C   UNL     1       1.170   9.066  17.496  0.00  0.00    +0.000 C 
ATOM      9  C   UNL     1       0.064   9.996  18.010  0.00  0.00    +0.000 C 
ATOM     10  N   UNL     1       0.194  10.583  19.327  0.00  0.00    +0.000 N 
ATOM     11  N   UNL     1      -0.214  11.863  19.511  0.00  0.00    +0.000 NA
ATOM     12  C   UNL     1      -0.081  12.072  20.828  0.00  0.00    +0.000 A 
ATOM     13  C   UNL     1       0.442  10.932  21.473  0.00  0.00    +0.000 A 
ATOM     14  C   UNL     1       0.595   9.982  20.490  0.00  0.00    +0.000 A 
ATOM     15  C   UNL     1       1.038   8.561  20.617  0.00  0.00    +0.000 C 
ATOM     16  N   UNL     1       3.174   6.126  18.895  0.00  0.00    +0.000 NA
ATOM     17  C   UNL     1       3.616   4.861  19.086  0.00  0.00    +0.000 A 
ENDROOT
BRANCH  17  18
ATOM     18  N   UNL     1       4.504   4.349  18.150  0.00  0.00    +0.000 N 
ATOM     19  C   UNL     1       5.938   4.457  18.420  0.00  0.00    +0.000 C 
ATOM     20  C   UNL     1       4.196   3.369  17.115  0.00  0.00    +0.000 C 
ENDBRANCH  17  18
BRANCH  12  21
ATOM     21  C   UNL     1      -0.483  13.356  21.487  0.00  0.00    +0.000 C 
BRANCH  21  22
ATOM     22  N   UNL     1      -1.907  13.338  21.780  0.00  0.00    +0.000 N 
ATOM     23  C   UNL     1      -2.344  12.890  23.002  0.00  0.00    +0.000 C 
ATOM     24  O   UNL     1      -1.550  12.556  23.869  0.00  0.00    +0.000 OA
ATOM     25  N   UNL     1      -3.713  12.878  23.206  0.00  0.00    +0.000 N 
ATOM     26  C   UNL     1      -4.751  13.233  22.251  0.00  0.00    +0.000 C 
ATOM     27  C   UNL     1      -4.203  12.481  24.520  0.00  0.00    +0.000 C 
ATOM     28  H   UNL     1      -2.519  13.439  20.994  0.00  0.00    +0.000 HD
ENDBRANCH  21  22
ENDBRANCH  12  21
TORSDOF 3
ENDMDL
MODEL 8
REMARK VINA RESULT:      -7.3      4.007     10.205
REMARK  Name = 
REMARK  8 active torsions:
REMARK  status: ('A' for Active; 'I' for Inactive)
REMARK    1  A    between atoms: C_1  and  C_2
REMARK    2  A    between atoms: C_12  and  C_13
REMARK    3  A    between atoms: C_13  and  N_14
REMARK    4  A    between atoms: N_17  and  C_18
REMARK    5  A    between atoms: N_17  and  C_19
REMARK    6  A    between atoms: C_24  and  N_25
REMARK    7  A    between atoms: N_25  and  C_26
REMARK    8  A    between atoms: N_25  and  C_27
REMARK                            x       y       z     vdW  Elec       q    Type
REMARK                         _______ _______ _______ _____ _____    ______ ____
ROOT
ATOM      1  C   UNL     1       2.787   2.492  20.394  0.00  0.00    +0.000 C 
ATOM      2  C   UNL     1       2.661   3.955  20.130  0.00  0.00    +0.000 A 
ATOM      3  C   UNL     1       1.815   4.665  20.966  0.00  0.00    +0.000 A 
ATOM      4  N   UNL     1       1.531   5.959  20.846  0.00  0.00    +0.000 NA
ATOM      5  C   UNL     1       2.088   6.610  19.821  0.00  0.00    +0.000 A 
ATOM      6  N   UNL     1       1.778   7.943  19.677  0.00  0.00    +0.000 N 
ATOM      7  C   UNL     1       2.313   8.720  18.587  0.00  0.00    +0.000 C 
ATOM      8  C   UNL     1       1.181   9.144  17.661  0.00  0.00    +0.000 C 
ATOM      9  C   UNL     1       0.169  10.154  18.215  0.00  0.00    +0.000 C 
ATOM     10  N   UNL     1       0.361  10.683  19.550  0.00  0.00    +0.000 N 
ATOM     11  N   UNL     1       0.074  11.988  19.778  0.00  0.00    +0.000 NA
ATOM     12  C   UNL     1       0.233  12.141  21.101  0.00  0.00    +0.000 A 
ATOM     13  C   UNL     1       0.654  10.937  21.703  0.00  0.00    +0.000 A 
ATOM     14  C   UNL     1       0.713  10.009  20.689  0.00  0.00    +0.000 A 
ATOM     15  C   UNL     1       1.024   8.551  20.765  0.00  0.00    +0.000 C 
ATOM     16  N   UNL     1       2.916   5.989  18.945  0.00  0.00    +0.000 NA
ATOM     17  C   UNL     1       3.242   4.682  19.091  0.00  0.00    +0.000 A 
ENDROOT
BRANCH  17  18
ATOM     18  N   UNL     1       4.072   4.123  18.131  0.00  0.00    +0.000 N 
ATOM     19  C   UNL     1       5.519   4.185  18.342  0.00  0.00    +0.000 C 
ATOM     20  C   UNL     1       3.689   3.135  17.129  0.00  0.00    +0.000 C 
ENDBRANCH  17  18
BRANCH  12  21
ATOM     21  C   UNL     1      -0.044  13.434  21.804  0.00  0.00    +0.000 C 
BRANCH  21  22
ATOM     22  N   UNL     1      -1.291  13.336  22.546  0.00  0.00    +0.000 N 
ATOM     23  C   UNL     1      -1.499  14.147  23.635  0.00  0.00    +0.000 C 
ATOM     24  O   UNL     1      -0.674  14.988  23.959  0.00  0.00    +0.000 OA
ATOM     25  N   UNL     1      -2.698  13.985  24.309  0.00  0.00    +0.000 N 
ATOM     26  C   UNL     1      -3.743  13.014  24.030  0.00  0.00    +0.000 C 
ATOM     27  C   UNL     1      -2.980  14.885  25.420  0.00  0.00    +0.000 C 
ATOM     28  H   UNL     1      -1.847  12.523  22.367  0.00  0.00    +0.000 HD
ENDBRANCH  21  22
ENDBRANCH  12  21
TORSDOF 3
ENDMDL
MODEL 9
REMARK VINA RESULT:      -7.2      3.508      9.657
REMARK  Name = 
REMARK  8 active torsions:
REMARK  status: ('A' for Active; 'I' for Inactive)
REMARK    1  A    between atoms: C_1  and  C_2
REMARK    2  A    between atoms: C_12  and  C_13
REMARK    3  A    between atoms: C_13  and  N_14
REMARK    4  A    between atoms: N_17  and  C_18
REMARK    5  A    between atoms: N_17  and  C_19
REMARK    6  A    between atoms: C_24  and  N_25
REMARK    7  A    between atoms: N_25  and  C_26
REMARK    8  A    between atoms: N_25  and  C_27
REMARK                            x       y       z     vdW  Elec       q    Type
REMARK                         _______ _______ _______ _____ _____    ______ ____
ROOT
ATOM      1  C   UNL     1       3.656   2.564  19.772  0.00  0.00    +0.000 C 
ATOM      2  C   UNL     1       3.311   4.015  19.709  0.00  0.00    +0.000 A 
ATOM      3  C   UNL     1       2.326   4.456  20.576  0.00  0.00    +0.000 A 
ATOM      4  N   UNL     1       1.846   5.696  20.621  0.00  0.00    +0.000 NA
ATOM      5  C   UNL     1       2.340   6.570  19.739  0.00  0.00    +0.000 A 
ATOM      6  N   UNL     1       1.829   7.848  19.764  0.00  0.00    +0.000 N 
ATOM      7  C   UNL     1       2.285   8.851  18.835  0.00  0.00    +0.000 C 
ATOM      8  C   UNL     1       1.144   9.235  17.902  0.00  0.00    +0.000 C 
ATOM      9  C   UNL     1      -0.040   9.987  18.521  0.00  0.00    +0.000 C 
ATOM     10  N   UNL     1       0.003  10.331  19.927  0.00  0.00    +0.000 N 
ATOM     11  N   UNL     1      -0.498  11.530  20.317  0.00  0.00    +0.000 NA
ATOM     12  C   UNL     1      -0.426  11.504  21.656  0.00  0.00    +0.000 A 
ATOM     13  C   UNL     1       0.152  10.300  22.110  0.00  0.00    +0.000 A 
ATOM     14  C   UNL     1       0.404   9.555  20.981  0.00  0.00    +0.000 A 
ATOM     15  C   UNL     1       0.939   8.165  20.872  0.00  0.00    +0.000 C 
ATOM     16  N   UNL     1       3.296   6.219  18.844  0.00  0.00    +0.000 NA
ATOM     17  C   UNL     1       3.817   4.969  18.827  0.00  0.00    +0.000 A 
ENDROOT
BRANCH  17  18
ATOM     18  N   UNL     1       4.770   4.691  17.857  0.00  0.00    +0.000 N 
ATOM     19  C   UNL     1       6.181   4.708  18.243  0.00  0.00    +0.000 C 
ATOM     20  C   UNL     1       4.538   4.000  16.593  0.00  0.00    +0.000 C 
ENDBRANCH  17  18
BRANCH  12  21
ATOM     21  C   UNL     1      -0.937  12.620  22.514  0.00  0.00    +0.000 C 
BRANCH  21  22
ATOM     22  N   UNL     1      -0.994  13.851  21.743  0.00  0.00    +0.000 N 
ATOM     23  C   UNL     1       0.051  14.741  21.805  0.00  0.00    +0.000 C 
ATOM     24  O   UNL     1       1.053  14.488  22.458  0.00  0.00    +0.000 OA
ATOM     25  N   UNL     1      -0.079  15.903  21.064  0.00  0.00    +0.000 N 
ATOM     26  C   UNL     1      -1.222  16.320  20.268  0.00  0.00    +0.000 C 
ATOM     27  C   UNL     1       1.047  16.829  21.049  0.00  0.00    +0.000 C 
ATOM     28  H   UNL     1      -1.892  14.102  21.380  0.00  0.00    +0.000 HD
ENDBRANCH  21  22
ENDBRANCH  12  21
TORSDOF 3
ENDMDL
