MODEL 1
REMARK VINA RESULT:      -8.3      0.000      0.000
REMARK  Name = 
REMARK  9 active torsions:
REMARK  status: ('A' for Active; 'I' for Inactive)
REMARK    1  A    between atoms: C_1  and  O_2
REMARK    2  A    between atoms: O_2  and  C_3
REMARK    3  A    between atoms: C_10  and  C_11
REMARK    4  A    between atoms: C_11  and  O_12
REMARK    5  A    between atoms: C_11  and  C_13
REMARK    6  A    between atoms: C_13  and  N_14
REMARK    7  A    between atoms: C_17  and  N_18
REMARK    8  A    between atoms: N_18  and  C_19
REMARK    9  A    between atoms: C_19  and  C_20
REMARK                            x       y       z     vdW  Elec       q    Type
REMARK                         _______ _______ _______ _____ _____    ______ ____
ROOT
ATOM      1  N   UNL     1       0.584   9.679  19.072  0.00  0.00    +0.000 NA
ATOM      2  C   UNL     1      -0.036   9.758  20.410  0.00  0.00    +0.000 C 
ATOM      3  C   UNL     1       0.633  10.756  21.363  0.00  0.00    +0.000 C 
ATOM      4  C   UNL     1       0.655  12.178  20.782  0.00  0.00    +0.000 C 
ATOM      5  C   UNL     1       1.358  12.089  19.406  0.00  0.00    +0.000 C 
ATOM      6  F   UNL     1       1.352  13.303  18.792  0.00  0.00    +0.000 F 
ATOM      7  C   UNL     1       0.672  11.049  18.496  0.00  0.00    +0.000 C 
ENDROOT
BRANCH   4   8
ATOM      8  N   UNL     1      -0.684  12.786  20.664  0.00  0.00    +0.000 NA
ATOM      9  H   UNL     1      -1.231  12.315  19.945  0.00  0.00    +0.000 HD
BRANCH   8  10
ATOM     10  C   UNL     1      -1.445  12.829  21.906  0.00  0.00    +0.000 C 
BRANCH  10  11
ATOM     11  C   UNL     1      -2.916  12.744  21.604  0.00  0.00    +0.000 A 
ATOM     12  C   UNL     1      -3.849  12.582  22.622  0.00  0.00    +0.000 A 
ATOM     13  N   UNL     1      -5.179  12.473  22.418  0.00  0.00    +0.000 NA
ATOM     14  C   UNL     1      -5.614  12.522  21.138  0.00  0.00    +0.000 A 
ATOM     15  C   UNL     1      -4.754  12.676  20.046  0.00  0.00    +0.000 A 
ATOM     16  C   UNL     1      -3.388  12.789  20.290  0.00  0.00    +0.000 A 
ATOM     17  N   UNL     1      -5.193  12.656  18.716  0.00  0.00    +0.000 N 
ATOM     18  C   UNL     1      -6.500  12.698  18.314  0.00  0.00    +0.000 C 
ATOM     19  O   UNL     1      -6.776  12.539  17.123  0.00  0.00    +0.000 OA
ATOM     20  C   UNL     1      -7.545  13.102  19.330  0.00  0.00    +0.000 C 
ATOM     21  S   UNL     1      -7.356  12.259  20.914  0.00  0.00    +0.000 S 
ATOM     22  H   UNL     1      -4.515  12.543  17.971  0.00  0.00    +0.000 HD
ENDBRANCH  10  11
ENDBRANCH   8  10
ENDBRANCH   4   8
BRANCH   1  23
ATOM     23  C   UNL     1       1.930   9.046  19.062  0.00  0.00    +0.000 C 
BRANCH  23  24
ATOM     24  C   UNL     1       2.011   7.502  19.278  0.00  0.00    +0.000 C 
BRANCH  24  32
ATOM     25  C   UNL     1       2.194   2.999  19.104  0.00  0.00    +0.000 A 
ATOM     26  C   UNL     1       2.992   2.414  18.136  0.00  0.00    +0.000 A 
ATOM     27  C   UNL     1       3.803   3.223  17.340  0.00  0.00    +0.000 A 
ATOM     28  C   UNL     1       3.812   4.605  17.457  0.00  0.00    +0.000 A 
ATOM     29  N   UNL     1       4.625   5.269  16.631  0.00  0.00    +0.000 NA
ATOM     30  C   UNL     1       4.648   6.609  16.706  0.00  0.00    +0.000 A 
ATOM     31  C   UNL     1       3.844   7.335  17.559  0.00  0.00    +0.000 A 
ATOM     32  C   UNL     1       2.948   6.665  18.412  0.00  0.00    +0.000 A 
ATOM     33  C   UNL     1       2.965   5.236  18.404  0.00  0.00    +0.000 A 
ATOM     34  C   UNL     1       2.200   4.391  19.248  0.00  0.00    +0.000 A 
BRANCH  25  36
ATOM     35  C   UNL     1       1.324   2.752  21.287  0.00  0.00    +0.000 C 
ATOM     36  O   UNL     1       1.330   2.329  19.927  0.00  0.00    +0.000 OA
ENDBRANCH  25  36
ENDBRANCH  24  32
BRANCH  24  37
ATOM     37  O   UNL     1       2.311   7.308  20.674  0.00  0.00    +0.000 OA
ATOM     38  H   UNL     1       1.442   7.293  21.123  0.00  0.00    +0.000 HD
ENDBRANCH  24  37
ENDBRANCH  23  24
ENDBRANCH   1  23
TORSDOF 8
ENDMDL
MODEL 2
REMARK VINA RESULT:      -8.2      3.140     10.462
REMARK  Name = 
REMARK  9 active torsions:
REMARK  status: ('A' for Active; 'I' for Inactive)
REMARK    1  A    between atoms: C_1  and  O_2
REMARK    2  A    between atoms: O_2  and  C_3
REMARK    3  A    between atoms: C_10  and  C_11
REMARK    4  A    between atoms: C_11  and  O_12
REMARK    5  A    between atoms: C_11  and  C_13
REMARK    6  A    between atoms: C_13  and  N_14
REMARK    7  A    between atoms: C_17  and  N_18
REMARK    8  A    between atoms: N_18  and  C_19
REMARK    9  A    between atoms: C_19  and  C_20
REMARK                            x       y       z     vdW  Elec       q    Type
REMARK                         _______ _______ _______ _____ _____    ______ ____
ROOT
ATOM      1  N   UNL     1      -0.140  11.653  20.988  0.00  0.00    +0.000 NA
ATOM      2  C   UNL     1      -0.653  10.305  20.671  0.00  0.00    +0.000 C 
ATOM      3  C   UNL     1      -0.675   9.967  19.176  0.00  0.00    +0.000 C 
ATOM      4  C   UNL     1       0.717  10.089  18.539  0.00  0.00    +0.000 C 
ATOM      5  C   UNL     1       1.218  11.524  18.830  0.00  0.00    +0.000 C 
ATOM      6  F   UNL     1       2.484  11.689  18.358  0.00  0.00    +0.000 F 
ATOM      7  C   UNL     1       1.190  11.829  20.342  0.00  0.00    +0.000 C 
ENDROOT
BRANCH   4   8
ATOM      8  N   UNL     1       1.675   9.077  19.022  0.00  0.00    +0.000 NA
ATOM      9  H   UNL     1       1.191   8.330  19.518  0.00  0.00    +0.000 HD
BRANCH   8  10
ATOM     10  C   UNL     1       2.528   8.503  17.989  0.00  0.00    +0.000 C 
BRANCH  10  11
ATOM     11  C   UNL     1       2.833   7.068  18.320  0.00  0.00    +0.000 A 
ATOM     12  C   UNL     1       3.625   6.291  17.482  0.00  0.00    +0.000 A 
ATOM     13  N   UNL     1       3.916   4.992  17.707  0.00  0.00    +0.000 NA
ATOM     14  C   UNL     1       3.392   4.425  18.817  0.00  0.00    +0.000 A 
ATOM     15  C   UNL     1       2.578   5.121  19.718  0.00  0.00    +0.000 A 
ATOM     16  C   UNL     1       2.300   6.461  19.459  0.00  0.00    +0.000 A 
ATOM     17  N   UNL     1       1.976   4.519  20.830  0.00  0.00    +0.000 N 
ATOM     18  C   UNL     1       2.260   3.266  21.300  0.00  0.00    +0.000 C 
ATOM     19  O   UNL     1       1.573   2.786  22.205  0.00  0.00    +0.000 OA
ATOM     20  C   UNL     1       3.512   2.583  20.798  0.00  0.00    +0.000 C 
ATOM     21  S   UNL     1       3.707   2.688  19.008  0.00  0.00    +0.000 S 
ATOM     22  H   UNL     1       1.227   5.002  21.311  0.00  0.00    +0.000 HD
ENDBRANCH  10  11
ENDBRANCH   8  10
ENDBRANCH   4   8
BRANCH   1  23
ATOM     23  C   UNL     1      -1.045  12.760  20.578  0.00  0.00    +0.000 C 
BRANCH  23  24
ATOM     24  C   UNL     1      -2.580  12.476  20.557  0.00  0.00    +0.000 C 
BRANCH  24  32
ATOM     25  C   UNL     1      -7.032  11.883  20.976  0.00  0.00    +0.000 A 
ATOM     26  C   UNL     1      -7.623  12.204  22.186  0.00  0.00    +0.000 A 
ATOM     27  C   UNL     1      -6.856  12.813  23.179  0.00  0.00    +0.000 A 
ATOM     28  C   UNL     1      -5.505  13.077  23.014  0.00  0.00    +0.000 A 
ATOM     29  N   UNL     1      -4.879  13.655  24.043  0.00  0.00    +0.000 NA
ATOM     30  C   UNL     1      -3.566  13.912  23.923  0.00  0.00    +0.000 A 
ATOM     31  C   UNL     1      -2.825  13.568  22.813  0.00  0.00    +0.000 A 
ATOM     32  C   UNL     1      -3.448  12.921  21.730  0.00  0.00    +0.000 A 
ATOM     33  C   UNL     1      -4.860  12.711  21.805  0.00  0.00    +0.000 A 
ATOM     34  C   UNL     1      -5.672  12.155  20.784  0.00  0.00    +0.000 A 
BRANCH  25  36
ATOM     35  C   UNL     1      -6.890  10.254  19.270  0.00  0.00    +0.000 C 
ATOM     36  O   UNL     1      -7.656  11.255  19.933  0.00  0.00    +0.000 OA
ENDBRANCH  25  36
ENDBRANCH  24  32
BRANCH  24  37
ATOM     37  O   UNL     1      -3.074  13.037  19.326  0.00  0.00    +0.000 OA
ATOM     38  H   UNL     1      -2.281  13.180  18.772  0.00  0.00    +0.000 HD
ENDBRANCH  24  37
ENDBRANCH  23  24
ENDBRANCH   1  23
TORSDOF 8
ENDMDL
MODEL 3
REMARK VINA RESULT:      -8.1      3.751     10.482
REMARK  Name = 
REMARK  9 active torsions:
REMARK  status: ('A' for Active; 'I' for Inactive)
REMARK    1  A    between atoms: C_1  and  O_2
REMARK    2  A    between atoms: O_2  and  C_3
REMARK    3  A    between atoms: C_10  and  C_11
REMARK    4  A    between atoms: C_11  and  O_12
REMARK    5  A    between atoms: C_11  and  C_13
REMARK    6  A    between atoms: C_13  and  N_14
REMARK    7  A    between atoms: C_17  and  N_18
REMARK    8  A    between atoms: N_18  and  C_19
REMARK    9  A    between atoms: C_19  and  C_20
REMARK                            x       y       z     vdW  Elec       q    Type
REMARK                         _______ _______ _______ _____ _____    ______ ____
ROOT
ATOM      1  N   UNL     1      -1.657  11.659  20.443  0.00  0.00    +0.000 NA
ATOM      2  C   UNL     1      -1.235  11.530  19.033  0.00  0.00    +0.000 C 
ATOM      3  C   UNL     1       0.261  11.765  18.793  0.00  0.00    +0.000 C 
ATOM      4  C   UNL     1       1.132  10.809  19.622  0.00  0.00    +0.000 C 
ATOM      5  C   UNL     1       0.718  10.996  21.101  0.00  0.00    +0.000 C 
ATOM      6  F   UNL     1       1.398  10.126  21.896  0.00  0.00    +0.000 F 
ATOM      7  C   UNL     1      -0.798  10.784  21.288  0.00  0.00    +0.000 C 
ENDROOT
BRANCH   4   8
ATOM      8  N   UNL     1       1.018   9.399  19.205  0.00  0.00    +0.000 NA
ATOM      9  H   UNL     1       0.045   9.095  19.224  0.00  0.00    +0.000 HD
BRANCH   8  10
ATOM     10  C   UNL     1       1.596   9.099  17.902  0.00  0.00    +0.000 C 
BRANCH  10  11
ATOM     11  C   UNL     1       2.573   7.963  18.027  0.00  0.00    +0.000 A 
ATOM     12  C   UNL     1       2.449   7.018  19.039  0.00  0.00    +0.000 A 
ATOM     13  N   UNL     1       3.304   5.990  19.223  0.00  0.00    +0.000 NA
ATOM     14  C   UNL     1       4.344   5.890  18.364  0.00  0.00    +0.000 A 
ATOM     15  C   UNL     1       4.558   6.793  17.318  0.00  0.00    +0.000 A 
ATOM     16  C   UNL     1       3.655   7.841  17.153  0.00  0.00    +0.000 A 
ATOM     17  N   UNL     1       5.672   6.734  16.470  0.00  0.00    +0.000 N 
ATOM     18  C   UNL     1       6.563   5.698  16.407  0.00  0.00    +0.000 C 
ATOM     19  O   UNL     1       7.580   5.813  15.721  0.00  0.00    +0.000 OA
ATOM     20  C   UNL     1       6.179   4.388  17.056  0.00  0.00    +0.000 C 
ATOM     21  S   UNL     1       5.502   4.591  18.716  0.00  0.00    +0.000 S 
ATOM     22  H   UNL     1       5.894   7.532  15.887  0.00  0.00    +0.000 HD
ENDBRANCH  10  11
ENDBRANCH   8  10
ENDBRANCH   4   8
BRANCH   1  23
ATOM     23  C   UNL     1      -1.618  13.051  20.964  0.00  0.00    +0.000 C 
BRANCH  23  24
ATOM     24  C   UNL     1      -2.919  13.907  20.856  0.00  0.00    +0.000 C 
BRANCH  24  32
ATOM     25  C   UNL     1      -5.582  11.644  18.003  0.00  0.00    +0.000 A 
ATOM     26  C   UNL     1      -6.693  10.998  18.519  0.00  0.00    +0.000 A 
ATOM     27  C   UNL     1      -7.020  11.172  19.864  0.00  0.00    +0.000 A 
ATOM     28  C   UNL     1      -6.248  11.943  20.719  0.00  0.00    +0.000 A 
ATOM     29  N   UNL     1      -6.661  12.024  21.987  0.00  0.00    +0.000 NA
ATOM     30  C   UNL     1      -5.929  12.751  22.847  0.00  0.00    +0.000 A 
ATOM     31  C   UNL     1      -4.752  13.377  22.500  0.00  0.00    +0.000 A 
ATOM     32  C   UNL     1      -4.270  13.276  21.182  0.00  0.00    +0.000 A 
ATOM     33  C   UNL     1      -5.075  12.574  20.232  0.00  0.00    +0.000 A 
ATOM     34  C   UNL     1      -4.798  12.439  18.847  0.00  0.00    +0.000 A 
BRANCH  25  36
ATOM     35  C   UNL     1      -3.994  10.694  16.533  0.00  0.00    +0.000 C 
ATOM     36  O   UNL     1      -5.131  11.534  16.716  0.00  0.00    +0.000 OA
ENDBRANCH  25  36
ENDBRANCH  24  32
BRANCH  24  37
ATOM     37  O   UNL     1      -2.701  15.075  21.671  0.00  0.00    +0.000 OA
ATOM     38  H   UNL     1      -3.396  15.708  21.403  0.00  0.00    +0.000 HD
ENDBRANCH  24  37
ENDBRANCH  23  24
ENDBRANCH   1  23
TORSDOF 8
ENDMDL
MODEL 4
REMARK VINA RESULT:      -8.1      3.768     10.377
REMARK  Name = 
REMARK  9 active torsions:
REMARK  status: ('A' for Active; 'I' for Inactive)
REMARK    1  A    between atoms: C_1  and  O_2
REMARK    2  A    between atoms: O_2  and  C_3
REMARK    3  A    between atoms: C_10  and  C_11
REMARK    4  A    between atoms: C_11  and  O_12
REMARK    5  A    between atoms: C_11  and  C_13
REMARK    6  A    between atoms: C_13  and  N_14
REMARK    7  A    between atoms: C_17  and  N_18
REMARK    8  A    between atoms: N_18  and  C_19
REMARK    9  A    between atoms: C_19  and  C_20
REMARK                            x       y       z     vdW  Elec       q    Type
REMARK                         _______ _______ _______ _____ _____    ______ ____
ROOT
ATOM      1  N   UNL     1      -0.262  12.651  20.656  0.00  0.00    +0.000 NA
ATOM      2  C   UNL     1       0.722  11.724  21.250  0.00  0.00    +0.000 C 
ATOM      3  C   UNL     1       0.330  10.243  21.174  0.00  0.00    +0.000 C 
ATOM      4  C   UNL     1       0.086   9.789  19.727  0.00  0.00    +0.000 C 
ATOM      5  C   UNL     1      -0.988  10.733  19.136  0.00  0.00    +0.000 C 
ATOM      6  F   UNL     1      -1.207  10.439  17.825  0.00  0.00    +0.000 F 
ATOM      7  C   UNL     1      -0.565  12.210  19.266  0.00  0.00    +0.000 C 
ENDROOT
BRANCH   4   8
ATOM      8  N   UNL     1       1.308   9.779  18.900  0.00  0.00    +0.000 NA
ATOM      9  H   UNL     1       2.135   9.656  19.481  0.00  0.00    +0.000 HD
BRANCH   8  10
ATOM     10  C   UNL     1       1.312   8.789  17.831  0.00  0.00    +0.000 C 
BRANCH  10  11
ATOM     11  C   UNL     1       2.423   7.801  18.056  0.00  0.00    +0.000 A 
ATOM     12  C   UNL     1       2.427   6.967  19.169  0.00  0.00    +0.000 A 
ATOM     13  N   UNL     1       3.404   6.077  19.444  0.00  0.00    +0.000 NA
ATOM     14  C   UNL     1       4.439   6.009  18.576  0.00  0.00    +0.000 A 
ATOM     15  C   UNL     1       4.529   6.809  17.432  0.00  0.00    +0.000 A 
ATOM     16  C   UNL     1       3.503   7.714  17.175  0.00  0.00    +0.000 A 
ATOM     17  N   UNL     1       5.633   6.792  16.569  0.00  0.00    +0.000 N 
ATOM     18  C   UNL     1       6.644   5.871  16.598  0.00  0.00    +0.000 C 
ATOM     19  O   UNL     1       7.633   6.030  15.879  0.00  0.00    +0.000 OA
ATOM     20  C   UNL     1       6.432   4.604  17.396  0.00  0.00    +0.000 C 
ATOM     21  S   UNL     1       5.753   4.908  19.040  0.00  0.00    +0.000 S 
ATOM     22  H   UNL     1       5.749   7.541  15.897  0.00  0.00    +0.000 HD
ENDBRANCH  10  11
ENDBRANCH   8  10
ENDBRANCH   4   8
BRANCH   1  23
ATOM     23  C   UNL     1      -1.527  12.771  21.429  0.00  0.00    +0.000 C 
BRANCH  23  24
ATOM     24  C   UNL     1      -2.710  13.553  20.775  0.00  0.00    +0.000 C 
BRANCH  24  32
ATOM     25  C   UNL     1      -5.353  11.019  18.141  0.00  0.00    +0.000 A 
ATOM     26  C   UNL     1      -6.573  10.601  18.647  0.00  0.00    +0.000 A 
ATOM     27  C   UNL     1      -6.994  11.077  19.889  0.00  0.00    +0.000 A 
ATOM     28  C   UNL     1      -6.218  11.929  20.658  0.00  0.00    +0.000 A 
ATOM     29  N   UNL     1      -6.729  12.306  21.833  0.00  0.00    +0.000 NA
ATOM     30  C   UNL     1      -5.997  13.120  22.611  0.00  0.00    +0.000 A 
ATOM     31  C   UNL     1      -4.729  13.547  22.281  0.00  0.00    +0.000 A 
ATOM     32  C   UNL     1      -4.147  13.133  21.068  0.00  0.00    +0.000 A 
ATOM     33  C   UNL     1      -4.941  12.332  20.189  0.00  0.00    +0.000 A 
ATOM     34  C   UNL     1      -4.561  11.892  18.896  0.00  0.00    +0.000 A 
BRANCH  25  36
ATOM     35  C   UNL     1      -3.974  11.558  16.300  0.00  0.00    +0.000 C 
ATOM     36  O   UNL     1      -4.806  10.607  16.957  0.00  0.00    +0.000 OA
ENDBRANCH  25  36
ENDBRANCH  24  32
BRANCH  24  37
ATOM     37  O   UNL     1      -2.512  14.938  21.116  0.00  0.00    +0.000 OA
ATOM     38  H   UNL     1      -1.543  15.050  21.182  0.00  0.00    +0.000 HD
ENDBRANCH  24  37
ENDBRANCH  23  24
ENDBRANCH   1  23
TORSDOF 8
ENDMDL
MODEL 5
REMARK VINA RESULT:      -8.1      3.330      5.104
REMARK  Name = 
REMARK  9 active torsions:
REMARK  status: ('A' for Active; 'I' for Inactive)
REMARK    1  A    between atoms: C_1  and  O_2
REMARK    2  A    between atoms: O_2  and  C_3
REMARK    3  A    between atoms: C_10  and  C_11
REMARK    4  A    between atoms: C_11  and  O_12
REMARK    5  A    between atoms: C_11  and  C_13
REMARK    6  A    between atoms: C_13  and  N_14
REMARK    7  A    between atoms: C_17  and  N_18
REMARK    8  A    between atoms: N_18  and  C_19
REMARK    9  A    between atoms: C_19  and  C_20
REMARK                            x       y       z     vdW  Elec       q    Type
REMARK                         _______ _______ _______ _____ _____    ______ ____
ROOT
ATOM      1  N   UNL     1       1.912   4.854  19.064  0.00  0.00    +0.000 NA
ATOM      2  C   UNL     1       1.395   5.753  20.116  0.00  0.00    +0.000 C 
ATOM      3  C   UNL     1       2.312   6.935  20.451  0.00  0.00    +0.000 C 
ATOM      4  C   UNL     1       2.610   7.798  19.215  0.00  0.00    +0.000 C 
ATOM      5  C   UNL     1       3.203   6.854  18.142  0.00  0.00    +0.000 C 
ATOM      6  F   UNL     1       3.427   7.533  16.985  0.00  0.00    +0.000 F 
ATOM      7  C   UNL     1       2.263   5.663  17.865  0.00  0.00    +0.000 C 
ENDROOT
BRANCH   4   8
ATOM      8  N   UNL     1       1.429   8.519  18.703  0.00  0.00    +0.000 NA
ATOM      9  H   UNL     1       0.650   7.878  18.558  0.00  0.00    +0.000 HD
BRANCH   8  10
ATOM     10  C   UNL     1       0.993   9.637  19.529  0.00  0.00    +0.000 C 
BRANCH  10  11
ATOM     11  C   UNL     1      -0.322  10.162  19.021  0.00  0.00    +0.000 A 
ATOM     12  C   UNL     1      -1.128  10.970  19.816  0.00  0.00    +0.000 A 
ATOM     13  N   UNL     1      -2.328  11.452  19.431  0.00  0.00    +0.000 NA
ATOM     14  C   UNL     1      -2.762  11.116  18.195  0.00  0.00    +0.000 A 
ATOM     15  C   UNL     1      -2.027  10.305  17.324  0.00  0.00    +0.000 A 
ATOM     16  C   UNL     1      -0.791   9.826  17.749  0.00  0.00    +0.000 A 
ATOM     17  N   UNL     1      -2.505   9.897  16.072  0.00  0.00    +0.000 N 
ATOM     18  C   UNL     1      -3.620  10.389  15.452  0.00  0.00    +0.000 C 
ATOM     19  O   UNL     1      -4.021   9.862  14.412  0.00  0.00    +0.000 OA
ATOM     20  C   UNL     1      -4.224  11.669  15.984  0.00  0.00    +0.000 C 
ATOM     21  S   UNL     1      -4.394  11.680  17.779  0.00  0.00    +0.000 S 
ATOM     22  H   UNL     1      -2.040   9.138  15.587  0.00  0.00    +0.000 HD
ENDBRANCH  10  11
ENDBRANCH   8  10
ENDBRANCH   4   8
BRANCH   1  23
ATOM     23  C   UNL     1       3.087   4.043  19.481  0.00  0.00    +0.000 C 
BRANCH  23  24
ATOM     24  C   UNL     1       4.036   3.506  18.365  0.00  0.00    +0.000 C 
BRANCH  24  32
ATOM     25  C   UNL     1       5.899   4.094  14.299  0.00  0.00    +0.000 A 
ATOM     26  C   UNL     1       6.998   4.931  14.198  0.00  0.00    +0.000 A 
ATOM     27  C   UNL     1       7.564   5.456  15.360  0.00  0.00    +0.000 A 
ATOM     28  C   UNL     1       7.042   5.200  16.618  0.00  0.00    +0.000 A 
ATOM     29  N   UNL     1       7.669   5.769  17.652  0.00  0.00    +0.000 NA
ATOM     30  C   UNL     1       7.182   5.555  18.885  0.00  0.00    +0.000 A 
ATOM     31  C   UNL     1       6.044   4.818  19.133  0.00  0.00    +0.000 A 
ATOM     32  C   UNL     1       5.339   4.240  18.061  0.00  0.00    +0.000 A 
ATOM     33  C   UNL     1       5.885   4.389  16.749  0.00  0.00    +0.000 A 
ATOM     34  C   UNL     1       5.366   3.812  15.562  0.00  0.00    +0.000 A 
BRANCH  25  36
ATOM     35  C   UNL     1       6.013   3.284  12.082  0.00  0.00    +0.000 C 
ATOM     36  O   UNL     1       5.228   3.540  13.243  0.00  0.00    +0.000 OA
ENDBRANCH  25  36
ENDBRANCH  24  32
BRANCH  24  37
ATOM     37  O   UNL     1       4.300   2.128  18.691  0.00  0.00    +0.000 OA
ATOM     38  H   UNL     1       4.714   1.750  17.890  0.00  0.00    +0.000 HD
ENDBRANCH  24  37
ENDBRANCH  23  24
ENDBRANCH   1  23
TORSDOF 8
ENDMDL
MODEL 6
REMARK VINA RESULT:      -8.0      3.681      5.692
REMARK  Name = 
REMARK  9 active torsions:
REMARK  status: ('A' for Active; 'I' for Inactive)
REMARK    1  A    between atoms: C_1  and  O_2
REMARK    2  A    between atoms: O_2  and  C_3
REMARK    3  A    between atoms: C_10  and  C_11
REMARK    4  A    between atoms: C_11  and  O_12
REMARK    5  A    between atoms: C_11  and  C_13
REMARK    6  A    between atoms: C_13  and  N_14
REMARK    7  A    between atoms: C_17  and  N_18
REMARK    8  A    between atoms: N_18  and  C_19
REMARK    9  A    between atoms: C_19  and  C_20
REMARK                            x       y       z     vdW  Elec       q    Type
REMARK                         _______ _______ _______ _____ _____    ______ ____
ROOT
ATOM      1  N   UNL     1       1.842   4.254  18.912  0.00  0.00    +0.000 NA
ATOM      2  C   UNL     1       1.274   4.575  20.237  0.00  0.00    +0.000 C 
ATOM      3  C   UNL     1       2.117   5.546  21.072  0.00  0.00    +0.000 C 
ATOM      4  C   UNL     1       2.356   6.875  20.340  0.00  0.00    +0.000 C 
ATOM      5  C   UNL     1       3.003   6.526  18.978  0.00  0.00    +0.000 C 
ATOM      6  F   UNL     1       3.180   7.652  18.235  0.00  0.00    +0.000 F 
ATOM      7  C   UNL     1       2.138   5.522  18.190  0.00  0.00    +0.000 C 
ENDROOT
BRANCH   4   8
ATOM      8  N   UNL     1       1.130   7.677  20.162  0.00  0.00    +0.000 NA
ATOM      9  H   UNL     1       0.547   7.287  19.424  0.00  0.00    +0.000 HD
BRANCH   8  10
ATOM     10  C   UNL     1       0.334   7.850  21.371  0.00  0.00    +0.000 C 
BRANCH  10  11
ATOM     11  C   UNL     1       0.073   9.312  21.604  0.00  0.00    +0.000 A 
ATOM     12  C   UNL     1      -0.283   9.786  22.861  0.00  0.00    +0.000 A 
ATOM     13  N   UNL     1      -0.556  11.080  23.132  0.00  0.00    +0.000 NA
ATOM     14  C   UNL     1      -0.478  11.957  22.105  0.00  0.00    +0.000 A 
ATOM     15  C   UNL     1      -0.134  11.576  20.803  0.00  0.00    +0.000 A 
ATOM     16  C   UNL     1       0.145  10.235  20.557  0.00  0.00    +0.000 A 
ATOM     17  N   UNL     1      -0.122  12.468  19.723  0.00  0.00    +0.000 N 
ATOM     18  C   UNL     1      -0.228  13.829  19.819  0.00  0.00    +0.000 C 
ATOM     19  O   UNL     1      -0.340  14.504  18.794  0.00  0.00    +0.000 OA
ATOM     20  C   UNL     1      -0.040  14.463  21.178  0.00  0.00    +0.000 C 
ATOM     21  S   UNL     1      -0.957  13.624  22.485  0.00  0.00    +0.000 S 
ATOM     22  H   UNL     1      -0.090  12.102  18.778  0.00  0.00    +0.000 HD
ENDBRANCH  10  11
ENDBRANCH   8  10
ENDBRANCH   4   8
BRANCH   1  23
ATOM     23  C   UNL     1       3.067   3.412  18.965  0.00  0.00    +0.000 C 
BRANCH  23  24
ATOM     24  C   UNL     1       3.858   3.190  17.637  0.00  0.00    +0.000 C 
BRANCH  24  32
ATOM     25  C   UNL     1       5.845   3.977  13.665  0.00  0.00    +0.000 A 
ATOM     26  C   UNL     1       6.958   4.800  13.643  0.00  0.00    +0.000 A 
ATOM     27  C   UNL     1       7.498   5.250  14.848  0.00  0.00    +0.000 A 
ATOM     28  C   UNL     1       6.937   4.931  16.075  0.00  0.00    +0.000 A 
ATOM     29  N   UNL     1       7.542   5.431  17.156  0.00  0.00    +0.000 NA
ATOM     30  C   UNL     1       7.017   5.155  18.361  0.00  0.00    +0.000 A 
ATOM     31  C   UNL     1       5.861   4.424  18.535  0.00  0.00    +0.000 A 
ATOM     32  C   UNL     1       5.179   3.919  17.413  0.00  0.00    +0.000 A 
ATOM     33  C   UNL     1       5.765   4.133  16.127  0.00  0.00    +0.000 A 
ATOM     34  C   UNL     1       5.272   3.632  14.895  0.00  0.00    +0.000 A 
BRANCH  25  36
ATOM     35  C   UNL     1       5.916   2.529  11.799  0.00  0.00    +0.000 C 
ATOM     36  O   UNL     1       5.197   3.494  12.561  0.00  0.00    +0.000 OA
ENDBRANCH  25  36
ENDBRANCH  24  32
BRANCH  24  37
ATOM     37  O   UNL     1       4.042   1.767  17.513  0.00  0.00    +0.000 OA
ATOM     38  H   UNL     1       3.799   1.556  16.590  0.00  0.00    +0.000 HD
ENDBRANCH  24  37
ENDBRANCH  23  24
ENDBRANCH   1  23
TORSDOF 8
ENDMDL
MODEL 7
REMARK VINA RESULT:      -8.0      3.251     10.032
REMARK  Name = 
REMARK  9 active torsions:
REMARK  status: ('A' for Active; 'I' for Inactive)
REMARK    1  A    between atoms: C_1  and  O_2
REMARK    2  A    between atoms: O_2  and  C_3
REMARK    3  A    between atoms: C_10  and  C_11
REMARK    4  A    between atoms: C_11  and  O_12
REMARK    5  A    between atoms: C_11  and  C_13
REMARK    6  A    between atoms: C_13  and  N_14
REMARK    7  A    between atoms: C_17  and  N_18
REMARK    8  A    between atoms: N_18  and  C_19
REMARK    9  A    between atoms: C_19  and  C_20
REMARK                            x       y       z     vdW  Elec       q    Type
REMARK                         _______ _______ _______ _____ _____    ______ ____
ROOT
ATOM      1  N   UNL     1       0.139  11.681  21.354  0.00  0.00    +0.000 NA
ATOM      2  C   UNL     1      -0.400  10.318  21.172  0.00  0.00    +0.000 C 
ATOM      3  C   UNL     1      -0.653   9.924  19.712  0.00  0.00    +0.000 C 
ATOM      4  C   UNL     1       0.620  10.032  18.859  0.00  0.00    +0.000 C 
ATOM      5  C   UNL     1       1.141  11.481  19.015  0.00  0.00    +0.000 C 
ATOM      6  F   UNL     1       2.314  11.637  18.343  0.00  0.00    +0.000 F 
ATOM      7  C   UNL     1       1.347  11.843  20.500  0.00  0.00    +0.000 C 
ENDROOT
BRANCH   4   8
ATOM      8  N   UNL     1       1.656   9.046  19.221  0.00  0.00    +0.000 NA
ATOM      9  H   UNL     1       1.265   8.312  19.809  0.00  0.00    +0.000 HD
BRANCH   8  10
ATOM     10  C   UNL     1       2.348   8.446  18.088  0.00  0.00    +0.000 C 
BRANCH  10  11
ATOM     11  C   UNL     1       2.727   7.028  18.416  0.00  0.00    +0.000 A 
ATOM     12  C   UNL     1       3.597   6.311  17.603  0.00  0.00    +0.000 A 
ATOM     13  N   UNL     1       3.958   5.030  17.825  0.00  0.00    +0.000 NA
ATOM     14  C   UNL     1       3.426   4.418  18.908  0.00  0.00    +0.000 A 
ATOM     15  C   UNL     1       2.537   5.052  19.783  0.00  0.00    +0.000 A 
ATOM     16  C   UNL     1       2.188   6.375  19.527  0.00  0.00    +0.000 A 
ATOM     17  N   UNL     1       1.930   4.400  20.864  0.00  0.00    +0.000 N 
ATOM     18  C   UNL     1       2.271   3.160  21.332  0.00  0.00    +0.000 C 
ATOM     19  O   UNL     1       1.580   2.629  22.204  0.00  0.00    +0.000 OA
ATOM     20  C   UNL     1       3.581   2.561  20.874  0.00  0.00    +0.000 C 
ATOM     21  S   UNL     1       3.839   2.700  19.094  0.00  0.00    +0.000 S 
ATOM     22  H   UNL     1       1.134   4.831  21.320  0.00  0.00    +0.000 HD
ENDBRANCH  10  11
ENDBRANCH   8  10
ENDBRANCH   4   8
BRANCH   1  23
ATOM     23  C   UNL     1      -0.835  12.764  21.053  0.00  0.00    +0.000 C 
BRANCH  23  24
ATOM     24  C   UNL     1      -1.708  13.307  22.227  0.00  0.00    +0.000 C 
BRANCH  24  32
ATOM     25  C   UNL     1      -4.166  11.896  18.717  0.00  0.00    +0.000 A 
ATOM     26  C   UNL     1      -5.504  11.612  18.929  0.00  0.00    +0.000 A 
ATOM     27  C   UNL     1      -6.072  11.891  20.172  0.00  0.00    +0.000 A 
ATOM     28  C   UNL     1      -5.334  12.411  21.223  0.00  0.00    +0.000 A 
ATOM     29  N   UNL     1      -5.991  12.625  22.367  0.00  0.00    +0.000 NA
ATOM     30  C   UNL     1      -5.304  13.114  23.411  0.00  0.00    +0.000 A 
ATOM     31  C   UNL     1      -3.948  13.361  23.378  0.00  0.00    +0.000 A 
ATOM     32  C   UNL     1      -3.221  13.106  22.201  0.00  0.00    +0.000 A 
ATOM     33  C   UNL     1      -3.948  12.662  21.053  0.00  0.00    +0.000 A 
ATOM     34  C   UNL     1      -3.406  12.434  19.762  0.00  0.00    +0.000 A 
BRANCH  25  36
ATOM     35  C   UNL     1      -3.431  10.276  17.162  0.00  0.00    +0.000 C 
ATOM     36  O   UNL     1      -3.477  11.642  17.563  0.00  0.00    +0.000 OA
ENDBRANCH  25  36
ENDBRANCH  24  32
BRANCH  24  37
ATOM     37  O   UNL     1      -1.149  12.753  23.433  0.00  0.00    +0.000 OA
ATOM     38  H   UNL     1      -0.438  13.371  23.694  0.00  0.00    +0.000 HD
ENDBRANCH  24  37
ENDBRANCH  23  24
ENDBRANCH   1  23
TORSDOF 8
ENDMDL
MODEL 8
REMARK VINA RESULT:      -8.0      3.520      9.860
REMARK  Name = 
REMARK  9 active torsions:
REMARK  status: ('A' for Active; 'I' for Inactive)
REMARK    1  A    between atoms: C_1  and  O_2
REMARK    2  A    between atoms: O_2  and  C_3
REMARK    3  A    between atoms: C_10  and  C_11
REMARK    4  A    between atoms: C_11  and  O_12
REMARK    5  A    between atoms: C_11  and  C_13
REMARK    6  A    between atoms: C_13  and  N_14
REMARK    7  A    between atoms: C_17  and  N_18
REMARK    8  A    between atoms: N_18  and  C_19
REMARK    9  A    between atoms: C_19  and  C_20
REMARK                            x       y       z     vdW  Elec       q    Type
REMARK                         _______ _______ _______ _____ _____    ______ ____
ROOT
ATOM      1  N   UNL     1       0.394  11.551  21.247  0.00  0.00    +0.000 NA
ATOM      2  C   UNL     1       0.990  10.311  21.785  0.00  0.00    +0.000 C 
ATOM      3  C   UNL     1       0.474   9.022  21.134  0.00  0.00    +0.000 C 
ATOM      4  C   UNL     1       0.698   9.018  19.614  0.00  0.00    +0.000 C 
ATOM      5  C   UNL     1       0.021  10.293  19.058  0.00  0.00    +0.000 C 
ATOM      6  F   UNL     1       0.239  10.400  17.719  0.00  0.00    +0.000 F 
ATOM      7  C   UNL     1       0.546  11.559  19.766  0.00  0.00    +0.000 C 
ENDROOT
BRANCH   4   8
ATOM      8  N   UNL     1       2.121   8.955  19.230  0.00  0.00    +0.000 NA
ATOM      9  H   UNL     1       2.687   8.602  20.000  0.00  0.00    +0.000 HD
BRANCH   8  10
ATOM     10  C   UNL     1       2.394   8.176  18.029  0.00  0.00    +0.000 C 
BRANCH  10  11
ATOM     11  C   UNL     1       2.779   6.772  18.409  0.00  0.00    +0.000 A 
ATOM     12  C   UNL     1       3.704   6.054  17.660  0.00  0.00    +0.000 A 
ATOM     13  N   UNL     1       4.073   4.784  17.931  0.00  0.00    +0.000 NA
ATOM     14  C   UNL     1       3.495   4.186  18.997  0.00  0.00    +0.000 A 
ATOM     15  C   UNL     1       2.550   4.823  19.809  0.00  0.00    +0.000 A 
ATOM     16  C   UNL     1       2.193   6.134  19.505  0.00  0.00    +0.000 A 
ATOM     17  N   UNL     1       1.897   4.184  20.871  0.00  0.00    +0.000 N 
ATOM     18  C   UNL     1       2.233   2.962  21.385  0.00  0.00    +0.000 C 
ATOM     19  O   UNL     1       1.506   2.437  22.230  0.00  0.00    +0.000 OA
ATOM     20  C   UNL     1       3.576   2.377  21.010  0.00  0.00    +0.000 C 
ATOM     21  S   UNL     1       3.927   2.482  19.244  0.00  0.00    +0.000 S 
ATOM     22  H   UNL     1       1.070   4.611  21.273  0.00  0.00    +0.000 HD
ENDBRANCH  10  11
ENDBRANCH   8  10
ENDBRANCH   4   8
BRANCH   1  23
ATOM     23  C   UNL     1      -1.036  11.742  21.605  0.00  0.00    +0.000 C 
BRANCH  23  24
ATOM     24  C   UNL     1      -1.817  12.895  20.899  0.00  0.00    +0.000 C 
BRANCH  24  32
ATOM     25  C   UNL     1      -3.435  11.318  16.995  0.00  0.00    +0.000 A 
ATOM     26  C   UNL     1      -4.792  11.056  16.908  0.00  0.00    +0.000 A 
ATOM     27  C   UNL     1      -5.623  11.404  17.973  0.00  0.00    +0.000 A 
ATOM     28  C   UNL     1      -5.134  11.973  19.138  0.00  0.00    +0.000 A 
ATOM     29  N   UNL     1      -6.030  12.252  20.089  0.00  0.00    +0.000 NA
ATOM     30  C   UNL     1      -5.590  12.790  21.238  0.00  0.00    +0.000 A 
ATOM     31  C   UNL     1      -4.258  13.025  21.503  0.00  0.00    +0.000 A 
ATOM     32  C   UNL     1      -3.287  12.704  20.538  0.00  0.00    +0.000 A 
ATOM     33  C   UNL     1      -3.742  12.205  19.278  0.00  0.00    +0.000 A 
ATOM     34  C   UNL     1      -2.924  11.906  18.158  0.00  0.00    +0.000 A 
BRANCH  25  36
ATOM     35  C   UNL     1      -2.992  10.240  14.939  0.00  0.00    +0.000 C 
ATOM     36  O   UNL     1      -2.506  11.000  16.043  0.00  0.00    +0.000 OA
ENDBRANCH  25  36
ENDBRANCH  24  32
BRANCH  24  37
ATOM     37  O   UNL     1      -1.652  14.060  21.731  0.00  0.00    +0.000 OA
ATOM     38  H   UNL     1      -0.728  14.019  22.048  0.00  0.00    +0.000 HD
ENDBRANCH  24  37
ENDBRANCH  23  24
ENDBRANCH   1  23
TORSDOF 8
ENDMDL
MODEL 9
REMARK VINA RESULT:      -8.0      3.366     10.473
REMARK  Name = 
REMARK  9 active torsions:
REMARK  status: ('A' for Active; 'I' for Inactive)
REMARK    1  A    between atoms: C_1  and  O_2
REMARK    2  A    between atoms: O_2  and  C_3
REMARK    3  A    between atoms: C_10  and  C_11
REMARK    4  A    between atoms: C_11  and  O_12
REMARK    5  A    between atoms: C_11  and  C_13
REMARK    6  A    between atoms: C_13  and  N_14
REMARK    7  A    between atoms: C_17  and  N_18
REMARK    8  A    between atoms: N_18  and  C_19
REMARK    9  A    between atoms: C_19  and  C_20
REMARK                            x       y       z     vdW  Elec       q    Type
REMARK                         _______ _______ _______ _____ _____    ______ ____
ROOT
ATOM      1  N   UNL     1      -1.449  10.788  19.806  0.00  0.00    +0.000 NA
ATOM      2  C   UNL     1      -0.828  10.954  18.476  0.00  0.00    +0.000 C 
ATOM      3  C   UNL     1       0.684  11.207  18.507  0.00  0.00    +0.000 C 
ATOM      4  C   UNL     1       1.440  10.083  19.231  0.00  0.00    +0.000 C 
ATOM      5  C   UNL     1       0.816   9.959  20.641  0.00  0.00    +0.000 C 
ATOM      6  F   UNL     1       1.386   8.928  21.323  0.00  0.00    +0.000 F 
ATOM      7  C   UNL     1      -0.709   9.740  20.560  0.00  0.00    +0.000 C 
ENDROOT
BRANCH   4   8
ATOM      8  N   UNL     1       1.405   8.794  18.513  0.00  0.00    +0.000 NA
ATOM      9  H   UNL     1       0.691   8.806  17.785  0.00  0.00    +0.000 HD
BRANCH   8  10
ATOM     10  C   UNL     1       2.679   8.382  17.938  0.00  0.00    +0.000 C 
BRANCH  10  11
ATOM     11  C   UNL     1       2.966   6.953  18.308  0.00  0.00    +0.000 A 
ATOM     12  C   UNL     1       3.798   6.162  17.525  0.00  0.00    +0.000 A 
ATOM     13  N   UNL     1       4.076   4.867  17.786  0.00  0.00    +0.000 NA
ATOM     14  C   UNL     1       3.498   4.319  18.879  0.00  0.00    +0.000 A 
ATOM     15  C   UNL     1       2.641   5.031  19.726  0.00  0.00    +0.000 A 
ATOM     16  C   UNL     1       2.377   6.366  19.431  0.00  0.00    +0.000 A 
ATOM     17  N   UNL     1       1.985   4.448  20.817  0.00  0.00    +0.000 N 
ATOM     18  C   UNL     1       2.243   3.203  21.323  0.00  0.00    +0.000 C 
ATOM     19  O   UNL     1       1.513   2.739  22.201  0.00  0.00    +0.000 OA
ATOM     20  C   UNL     1       3.518   2.512  20.895  0.00  0.00    +0.000 C 
ATOM     21  S   UNL     1       3.802   2.586  19.115  0.00  0.00    +0.000 S 
ATOM     22  H   UNL     1       1.212   4.939  21.252  0.00  0.00    +0.000 HD
ENDBRANCH  10  11
ENDBRANCH   8  10
ENDBRANCH   4   8
BRANCH   1  23
ATOM     23  C   UNL     1      -1.504  12.038  20.610  0.00  0.00    +0.000 C 
BRANCH  23  24
ATOM     24  C   UNL     1      -2.543  13.127  20.196  0.00  0.00    +0.000 C 
BRANCH  24  32
ATOM     25  C   UNL     1      -6.629  11.218  20.131  0.00  0.00    +0.000 A 
ATOM     26  C   UNL     1      -7.508  11.521  21.157  0.00  0.00    +0.000 A 
ATOM     27  C   UNL     1      -7.154  12.491  22.094  0.00  0.00    +0.000 A 
ATOM     28  C   UNL     1      -5.931  13.143  22.059  0.00  0.00    +0.000 A 
ATOM     29  N   UNL     1      -5.707  14.045  23.019  0.00  0.00    +0.000 NA
ATOM     30  C   UNL     1      -4.527  14.685  23.025  0.00  0.00    +0.000 A 
ATOM     31  C   UNL     1      -3.519  14.425  22.121  0.00  0.00    +0.000 A 
ATOM     32  C   UNL     1      -3.710  13.451  21.124  0.00  0.00    +0.000 A 
ATOM     33  C   UNL     1      -4.989  12.816  21.051  0.00  0.00    +0.000 A 
ATOM     34  C   UNL     1      -5.395  11.876  20.070  0.00  0.00    +0.000 A 
BRANCH  25  36
ATOM     35  C   UNL     1      -7.205   8.978  19.647  0.00  0.00    +0.000 C 
ATOM     36  O   UNL     1      -6.835  10.268  19.168  0.00  0.00    +0.000 OA
ENDBRANCH  25  36
ENDBRANCH  24  32
BRANCH  24  37
ATOM     37  O   UNL     1      -1.783  14.318  19.910  0.00  0.00    +0.000 OA
ATOM     38  H   UNL     1      -1.421  14.603  20.772  0.00  0.00    +0.000 HD
ENDBRANCH  24  37
ENDBRANCH  23  24
ENDBRANCH   1  23
TORSDOF 8
ENDMDL
