MODEL 1
REMARK VINA RESULT:      -7.2      0.000      0.000
REMARK  Name = 
REMARK  14 active torsions:
REMARK  status: ('A' for Active; 'I' for Inactive)
REMARK    1  A    between atoms: C_1  and  O_2
REMARK    2  A    between atoms: O_2  and  C_3
REMARK    3  A    between atoms: C_5  and  O_6
REMARK    4  A    between atoms: O_6  and  C_7
REMARK    5  A    between atoms: C_8  and  C_9
REMARK    6  A    between atoms: C_14  and  O_15
REMARK    7  A    between atoms: C_16  and  O_17
REMARK    8  A    between atoms: O_17  and  C_18
REMARK    9  A    between atoms: C_19  and  O_20
REMARK   10  A    between atoms: O_20  and  C_21
REMARK   11  A    between atoms: C_22  and  O_23
REMARK   12  A    between atoms: O_23  and  C_24
REMARK   13  A    between atoms: C_28  and  O_29
REMARK   14  A    between atoms: O_29  and  C_30
REMARK                            x       y       z     vdW  Elec       q    Type
REMARK                         _______ _______ _______ _____ _____    ______ ____
ROOT
ATOM      1  C   UNL     1       2.014   7.949  19.225  0.00  0.00    +0.000 A 
ATOM      2  C   UNL     1       2.006   8.600  18.067  0.00  0.00    +0.000 A 
ATOM      3  C   UNL     1       1.859  10.030  18.129  0.00  0.00    +0.000 A 
ATOM      4  O   UNL     1       2.408  10.754  17.312  0.00  0.00    +0.000 OA
ATOM      5  C   UNL     1       1.013  10.540  19.193  0.00  0.00    +0.000 A 
ATOM      6  C   UNL     1       0.439  11.793  18.981  0.00  0.00    +0.000 A 
ATOM      7  C   UNL     1      -0.522  12.257  19.854  0.00  0.00    +0.000 A 
ATOM      8  C   UNL     1      -0.885  11.462  20.958  0.00  0.00    +0.000 A 
ATOM      9  C   UNL     1      -0.249  10.190  21.201  0.00  0.00    +0.000 A 
ATOM     10  C   UNL     1       0.720   9.709  20.286  0.00  0.00    +0.000 A 
ATOM     11  O   UNL     1       1.406   8.483  20.402  0.00  0.00    +0.000 OA
ENDROOT
BRANCH   1  15
ATOM     12  C   UNL     1       3.571   3.880  18.945  0.00  0.00    +0.000 A 
ATOM     13  C   UNL     1       4.212   4.913  18.265  0.00  0.00    +0.000 A 
ATOM     14  C   UNL     1       3.802   6.244  18.414  0.00  0.00    +0.000 A 
ATOM     15  C   UNL     1       2.667   6.595  19.216  0.00  0.00    +0.000 A 
ATOM     16  C   UNL     1       2.077   5.552  19.938  0.00  0.00    +0.000 A 
ATOM     17  C   UNL     1       2.483   4.205  19.783  0.00  0.00    +0.000 A 
BRANCH  12  19
ATOM     18  C   UNL     1       3.170   1.798  17.848  0.00  0.00    +0.000 C 
ATOM     19  O   UNL     1       3.921   2.565  18.787  0.00  0.00    +0.000 OA
ENDBRANCH  12  19
BRANCH  14  20
ATOM     20  O   UNL     1       4.462   7.081  17.540  0.00  0.00    +0.000 OA
ATOM     21  C   UNL     1       5.029   6.481  16.375  0.00  0.00    +0.000 C 
ENDBRANCH  14  20
BRANCH  17  22
ATOM     22  O   UNL     1       1.719   3.350  20.534  0.00  0.00    +0.000 OA
ATOM     23  C   UNL     1       2.212   2.932  21.800  0.00  0.00    +0.000 C 
ENDBRANCH  17  22
ENDBRANCH   1  15
BRANCH   6  24
ATOM     24  O   UNL     1       0.792  12.591  17.915  0.00  0.00    +0.000 OA
ATOM     25  H   UNL     1       0.346  12.266  17.102  0.00  0.00    +0.000 HD
ENDBRANCH   6  24
BRANCH   7  26
ATOM     26  O   UNL     1      -1.138  13.412  19.432  0.00  0.00    +0.000 OA
ATOM     27  C   UNL     1      -0.627  14.648  19.893  0.00  0.00    +0.000 C 
ENDBRANCH   7  26
BRANCH   8  28
ATOM     28  O   UNL     1      -1.788  12.046  21.818  0.00  0.00    +0.000 OA
ATOM     29  C   UNL     1      -1.286  12.801  22.913  0.00  0.00    +0.000 C 
ENDBRANCH   8  28
BRANCH   9  30
ATOM     30  O   UNL     1      -0.715   9.586  22.335  0.00  0.00    +0.000 OA
ATOM     31  C   UNL     1       0.073   9.449  23.499  0.00  0.00    +0.000 C 
ENDBRANCH   9  30
TORSDOF 8
ENDMDL
MODEL 2
REMARK VINA RESULT:      -7.0      1.133      2.407
REMARK  Name = 
REMARK  14 active torsions:
REMARK  status: ('A' for Active; 'I' for Inactive)
REMARK    1  A    between atoms: C_1  and  O_2
REMARK    2  A    between atoms: O_2  and  C_3
REMARK    3  A    between atoms: C_5  and  O_6
REMARK    4  A    between atoms: O_6  and  C_7
REMARK    5  A    between atoms: C_8  and  C_9
REMARK    6  A    between atoms: C_14  and  O_15
REMARK    7  A    between atoms: C_16  and  O_17
REMARK    8  A    between atoms: O_17  and  C_18
REMARK    9  A    between atoms: C_19  and  O_20
REMARK   10  A    between atoms: O_20  and  C_21
REMARK   11  A    between atoms: C_22  and  O_23
REMARK   12  A    between atoms: O_23  and  C_24
REMARK   13  A    between atoms: C_28  and  O_29
REMARK   14  A    between atoms: O_29  and  C_30
REMARK                            x       y       z     vdW  Elec       q    Type
REMARK                         _______ _______ _______ _____ _____    ______ ____
ROOT
ATOM      1  C   UNL     1       2.192   7.787  19.094  0.00  0.00    +0.000 A 
ATOM      2  C   UNL     1       2.157   8.466  17.953  0.00  0.00    +0.000 A 
ATOM      3  C   UNL     1       1.971   9.890  18.052  0.00  0.00    +0.000 A 
ATOM      4  O   UNL     1       2.493  10.649  17.250  0.00  0.00    +0.000 OA
ATOM      5  C   UNL     1       1.118  10.349  19.134  0.00  0.00    +0.000 A 
ATOM      6  C   UNL     1       0.508  11.590  18.958  0.00  0.00    +0.000 A 
ATOM      7  C   UNL     1      -0.460  12.004  19.848  0.00  0.00    +0.000 A 
ATOM      8  C   UNL     1      -0.792  11.172  20.934  0.00  0.00    +0.000 A 
ATOM      9  C   UNL     1      -0.119   9.913  21.141  0.00  0.00    +0.000 A 
ATOM     10  C   UNL     1       0.857   9.483  20.208  0.00  0.00    +0.000 A 
ATOM     11  O   UNL     1       1.577   8.274  20.288  0.00  0.00    +0.000 OA
ENDROOT
BRANCH   1  15
ATOM     12  C   UNL     1       4.452   4.057  19.292  0.00  0.00    +0.000 A 
ATOM     13  C   UNL     1       3.129   4.087  19.729  0.00  0.00    +0.000 A 
ATOM     14  C   UNL     1       2.345   5.239  19.585  0.00  0.00    +0.000 A 
ATOM     15  C   UNL     1       2.882   6.453  19.047  0.00  0.00    +0.000 A 
ATOM     16  C   UNL     1       4.191   6.382  18.558  0.00  0.00    +0.000 A 
ATOM     17  C   UNL     1       4.991   5.224  18.708  0.00  0.00    +0.000 A 
BRANCH  12  19
ATOM     18  C   UNL     1       4.791   1.933  20.327  0.00  0.00    +0.000 C 
ATOM     19  O   UNL     1       5.257   2.961  19.456  0.00  0.00    +0.000 OA
ENDBRANCH  12  19
BRANCH  14  20
ATOM     20  O   UNL     1       1.127   5.107  20.220  0.00  0.00    +0.000 OA
ATOM     21  C   UNL     1       0.668   3.778  20.467  0.00  0.00    +0.000 C 
ENDBRANCH  14  20
BRANCH  17  22
ATOM     22  O   UNL     1       6.258   5.408  18.219  0.00  0.00    +0.000 OA
ATOM     23  C   UNL     1       7.293   5.750  19.130  0.00  0.00    +0.000 C 
ENDBRANCH  17  22
ENDBRANCH   1  15
BRANCH   6  24
ATOM     24  O   UNL     1       0.829  12.424  17.910  0.00  0.00    +0.000 OA
ATOM     25  H   UNL     1       0.029  12.587  17.365  0.00  0.00    +0.000 HD
ENDBRANCH   6  24
BRANCH   7  26
ATOM     26  O   UNL     1      -1.112  13.151  19.459  0.00  0.00    +0.000 OA
ATOM     27  C   UNL     1      -0.588  14.394  19.888  0.00  0.00    +0.000 C 
ENDBRANCH   7  26
BRANCH   8  28
ATOM     28  O   UNL     1      -1.705  11.709  21.815  0.00  0.00    +0.000 OA
ATOM     29  C   UNL     1      -1.228  12.564  22.845  0.00  0.00    +0.000 C 
ENDBRANCH   8  28
BRANCH   9  30
ATOM     30  O   UNL     1      -0.559   9.268  22.262  0.00  0.00    +0.000 OA
ATOM     31  C   UNL     1       0.110   9.360  23.502  0.00  0.00    +0.000 C 
ENDBRANCH   9  30
TORSDOF 8
ENDMDL
MODEL 3
REMARK VINA RESULT:      -6.7      1.611      3.952
REMARK  Name = 
REMARK  14 active torsions:
REMARK  status: ('A' for Active; 'I' for Inactive)
REMARK    1  A    between atoms: C_1  and  O_2
REMARK    2  A    between atoms: O_2  and  C_3
REMARK    3  A    between atoms: C_5  and  O_6
REMARK    4  A    between atoms: O_6  and  C_7
REMARK    5  A    between atoms: C_8  and  C_9
REMARK    6  A    between atoms: C_14  and  O_15
REMARK    7  A    between atoms: C_16  and  O_17
REMARK    8  A    between atoms: O_17  and  C_18
REMARK    9  A    between atoms: C_19  and  O_20
REMARK   10  A    between atoms: O_20  and  C_21
REMARK   11  A    between atoms: C_22  and  O_23
REMARK   12  A    between atoms: O_23  and  C_24
REMARK   13  A    between atoms: C_28  and  O_29
REMARK   14  A    between atoms: O_29  and  C_30
REMARK                            x       y       z     vdW  Elec       q    Type
REMARK                         _______ _______ _______ _____ _____    ______ ____
ROOT
ATOM      1  C   UNL     1       2.149   7.876  19.045  0.00  0.00    +0.000 A 
ATOM      2  C   UNL     1       1.942   7.491  20.299  0.00  0.00    +0.000 A 
ATOM      3  C   UNL     1       0.838   8.102  20.991  0.00  0.00    +0.000 A 
ATOM      4  O   UNL     1       0.192   7.477  21.818  0.00  0.00    +0.000 OA
ATOM      5  C   UNL     1       0.567   9.490  20.661  0.00  0.00    +0.000 A 
ATOM      6  C   UNL     1      -0.099  10.238  21.631  0.00  0.00    +0.000 A 
ATOM      7  C   UNL     1      -0.221  11.602  21.472  0.00  0.00    +0.000 A 
ATOM      8  C   UNL     1       0.309  12.206  20.316  0.00  0.00    +0.000 A 
ATOM      9  C   UNL     1       0.949  11.419  19.291  0.00  0.00    +0.000 A 
ATOM     10  C   UNL     1       1.093  10.021  19.473  0.00  0.00    +0.000 A 
ATOM     11  O   UNL     1       1.705   9.143  18.556  0.00  0.00    +0.000 OA
ENDROOT
BRANCH   1  15
ATOM     12  C   UNL     1       4.679   5.073  16.855  0.00  0.00    +0.000 A 
ATOM     13  C   UNL     1       3.462   4.641  17.378  0.00  0.00    +0.000 A 
ATOM     14  C   UNL     1       2.580   5.537  17.996  0.00  0.00    +0.000 A 
ATOM     15  C   UNL     1       2.916   6.919  18.179  0.00  0.00    +0.000 A 
ATOM     16  C   UNL     1       4.113   7.342  17.591  0.00  0.00    +0.000 A 
ATOM     17  C   UNL     1       5.011   6.439  16.973  0.00  0.00    +0.000 A 
BRANCH  12  19
ATOM     18  C   UNL     1       5.651   4.198  14.858  0.00  0.00    +0.000 C 
ATOM     19  O   UNL     1       5.581   4.215  16.282  0.00  0.00    +0.000 OA
ENDBRANCH  12  19
BRANCH  14  20
ATOM     20  O   UNL     1       1.516   4.882  18.579  0.00  0.00    +0.000 OA
ATOM     21  C   UNL     1       1.733   3.532  18.987  0.00  0.00    +0.000 C 
ENDBRANCH  14  20
BRANCH  17  22
ATOM     22  O   UNL     1       6.148   7.067  16.534  0.00  0.00    +0.000 OA
ATOM     23  C   UNL     1       7.272   7.119  17.402  0.00  0.00    +0.000 C 
ENDBRANCH  17  22
ENDBRANCH   1  15
BRANCH   6  24
ATOM     24  O   UNL     1      -0.636   9.663  22.762  0.00  0.00    +0.000 OA
ATOM     25  H   UNL     1      -0.200  10.038  23.558  0.00  0.00    +0.000 HD
ENDBRANCH   6  24
BRANCH   7  26
ATOM     26  O   UNL     1      -0.727  12.243  22.579  0.00  0.00    +0.000 OA
ATOM     27  C   UNL     1      -2.099  12.592  22.579  0.00  0.00    +0.000 C 
ENDBRANCH   7  26
BRANCH   8  28
ATOM     28  O   UNL     1       0.062  13.557  20.205  0.00  0.00    +0.000 OA
ATOM     29  C   UNL     1       0.978  14.463  20.807  0.00  0.00    +0.000 C 
ENDBRANCH   8  28
BRANCH   9  30
ATOM     30  O   UNL     1       1.368  12.182  18.237  0.00  0.00    +0.000 OA
ATOM     31  C   UNL     1       2.712  12.585  18.080  0.00  0.00    +0.000 C 
ENDBRANCH   9  30
TORSDOF 8
ENDMDL
MODEL 4
REMARK VINA RESULT:      -6.7      1.412      3.095
REMARK  Name = 
REMARK  14 active torsions:
REMARK  status: ('A' for Active; 'I' for Inactive)
REMARK    1  A    between atoms: C_1  and  O_2
REMARK    2  A    between atoms: O_2  and  C_3
REMARK    3  A    between atoms: C_5  and  O_6
REMARK    4  A    between atoms: O_6  and  C_7
REMARK    5  A    between atoms: C_8  and  C_9
REMARK    6  A    between atoms: C_14  and  O_15
REMARK    7  A    between atoms: C_16  and  O_17
REMARK    8  A    between atoms: O_17  and  C_18
REMARK    9  A    between atoms: C_19  and  O_20
REMARK   10  A    between atoms: O_20  and  C_21
REMARK   11  A    between atoms: C_22  and  O_23
REMARK   12  A    between atoms: O_23  and  C_24
REMARK   13  A    between atoms: C_28  and  O_29
REMARK   14  A    between atoms: O_29  and  C_30
REMARK                            x       y       z     vdW  Elec       q    Type
REMARK                         _______ _______ _______ _____ _____    ______ ____
ROOT
ATOM      1  C   UNL     1       1.387   8.206  20.443  0.00  0.00    +0.000 A 
ATOM      2  C   UNL     1       1.205   8.315  21.754  0.00  0.00    +0.000 A 
ATOM      3  C   UNL     1       0.287   9.331  22.198  0.00  0.00    +0.000 A 
ATOM      4  O   UNL     1      -0.401   9.163  23.194  0.00  0.00    +0.000 OA
ATOM      5  C   UNL     1       0.253  10.550  21.412  0.00  0.00    +0.000 A 
ATOM      6  C   UNL     1      -0.189  11.698  22.067  0.00  0.00    +0.000 A 
ATOM      7  C   UNL     1      -0.068  12.924  21.447  0.00  0.00    +0.000 A 
ATOM      8  C   UNL     1       0.478  12.985  20.151  0.00  0.00    +0.000 A 
ATOM      9  C   UNL     1       0.883  11.787  19.457  0.00  0.00    +0.000 A 
ATOM     10  C   UNL     1       0.780  10.534  20.110  0.00  0.00    +0.000 A 
ATOM     11  O   UNL     1       1.150   9.295  19.549  0.00  0.00    +0.000 OA
ENDROOT
BRANCH   1  15
ATOM     12  C   UNL     1       2.466   4.285  18.856  0.00  0.00    +0.000 A 
ATOM     13  C   UNL     1       2.985   5.435  18.266  0.00  0.00    +0.000 A 
ATOM     14  C   UNL     1       2.742   6.702  18.812  0.00  0.00    +0.000 A 
ATOM     15  C   UNL     1       1.898   6.879  19.956  0.00  0.00    +0.000 A 
ATOM     16  C   UNL     1       1.439   5.708  20.569  0.00  0.00    +0.000 A 
ATOM     17  C   UNL     1       1.675   4.426  20.016  0.00  0.00    +0.000 A 
BRANCH  12  19
ATOM     18  C   UNL     1       3.802   2.310  18.748  0.00  0.00    +0.000 C 
ATOM     19  O   UNL     1       2.651   3.036  18.324  0.00  0.00    +0.000 OA
ENDBRANCH  12  19
BRANCH  14  20
ATOM     20  O   UNL     1       3.211   7.707  17.992  0.00  0.00    +0.000 OA
ATOM     21  C   UNL     1       4.311   7.387  17.141  0.00  0.00    +0.000 C 
ENDBRANCH  14  20
BRANCH  17  22
ATOM     22  O   UNL     1       1.072   3.435  20.746  0.00  0.00    +0.000 OA
ATOM     23  C   UNL     1       1.804   2.829  21.802  0.00  0.00    +0.000 C 
ENDBRANCH  17  22
ENDBRANCH   1  15
BRANCH   6  24
ATOM     24  O   UNL     1      -0.738  11.657  23.330  0.00  0.00    +0.000 OA
ATOM     25  H   UNL     1      -1.697  11.862  23.275  0.00  0.00    +0.000 HD
ENDBRANCH   6  24
BRANCH   7  26
ATOM     26  O   UNL     1      -0.364  13.988  22.268  0.00  0.00    +0.000 OA
ATOM     27  C   UNL     1      -1.622  14.618  22.116  0.00  0.00    +0.000 C 
ENDBRANCH   7  26
BRANCH   8  28
ATOM     28  O   UNL     1       0.477  14.240  19.583  0.00  0.00    +0.000 OA
ATOM     29  C   UNL     1       1.600  15.083  19.806  0.00  0.00    +0.000 C 
ENDBRANCH   8  28
BRANCH   9  30
ATOM     30  O   UNL     1       1.358  12.050  18.203  0.00  0.00    +0.000 OA
ATOM     31  C   UNL     1       2.738  12.106  17.910  0.00  0.00    +0.000 C 
ENDBRANCH   9  30
TORSDOF 8
ENDMDL
MODEL 5
REMARK VINA RESULT:      -6.6      1.445      3.870
REMARK  Name = 
REMARK  14 active torsions:
REMARK  status: ('A' for Active; 'I' for Inactive)
REMARK    1  A    between atoms: C_1  and  O_2
REMARK    2  A    between atoms: O_2  and  C_3
REMARK    3  A    between atoms: C_5  and  O_6
REMARK    4  A    between atoms: O_6  and  C_7
REMARK    5  A    between atoms: C_8  and  C_9
REMARK    6  A    between atoms: C_14  and  O_15
REMARK    7  A    between atoms: C_16  and  O_17
REMARK    8  A    between atoms: O_17  and  C_18
REMARK    9  A    between atoms: C_19  and  O_20
REMARK   10  A    between atoms: O_20  and  C_21
REMARK   11  A    between atoms: C_22  and  O_23
REMARK   12  A    between atoms: O_23  and  C_24
REMARK   13  A    between atoms: C_28  and  O_29
REMARK   14  A    between atoms: O_29  and  C_30
REMARK                            x       y       z     vdW  Elec       q    Type
REMARK                         _______ _______ _______ _____ _____    ______ ____
ROOT
ATOM      1  C   UNL     1       1.566   8.252  19.884  0.00  0.00    +0.000 A 
ATOM      2  C   UNL     1       1.235   8.069  21.157  0.00  0.00    +0.000 A 
ATOM      3  C   UNL     1       0.139   8.853  21.662  0.00  0.00    +0.000 A 
ATOM      4  O   UNL     1      -0.617   8.404  22.510  0.00  0.00    +0.000 OA
ATOM      5  C   UNL     1       0.012  10.194  21.121  0.00  0.00    +0.000 A 
ATOM      6  C   UNL     1      -0.658  11.122  21.918  0.00  0.00    +0.000 A 
ATOM      7  C   UNL     1      -0.651  12.454  21.561  0.00  0.00    +0.000 A 
ATOM      8  C   UNL     1       0.011  12.844  20.382  0.00  0.00    +0.000 A 
ATOM      9  C   UNL     1       0.655  11.871  19.534  0.00  0.00    +0.000 A 
ATOM     10  C   UNL     1       0.667  10.508  19.920  0.00  0.00    +0.000 A 
ATOM     11  O   UNL     1       1.269   9.463  19.188  0.00  0.00    +0.000 OA
ENDROOT
BRANCH   1  15
ATOM     12  C   UNL     1       4.089   5.113  18.200  0.00  0.00    +0.000 A 
ATOM     13  C   UNL     1       3.111   4.784  19.136  0.00  0.00    +0.000 A 
ATOM     14  C   UNL     1       2.218   5.749  19.619  0.00  0.00    +0.000 A 
ATOM     15  C   UNL     1       2.311   7.125  19.227  0.00  0.00    +0.000 A 
ATOM     16  C   UNL     1       3.259   7.420  18.241  0.00  0.00    +0.000 A 
ATOM     17  C   UNL     1       4.169   6.450  17.756  0.00  0.00    +0.000 A 
BRANCH  12  19
ATOM     18  C   UNL     1       4.836   3.727  16.406  0.00  0.00    +0.000 C 
ATOM     19  O   UNL     1       5.004   4.203  17.740  0.00  0.00    +0.000 OA
ENDBRANCH  12  19
BRANCH  14  20
ATOM     20  O   UNL     1       1.440   5.254  20.645  0.00  0.00    +0.000 OA
ATOM     21  C   UNL     1       1.299   3.835  20.721  0.00  0.00    +0.000 C 
ENDBRANCH  14  20
BRANCH  17  22
ATOM     22  O   UNL     1       5.050   6.982  16.851  0.00  0.00    +0.000 OA
ATOM     23  C   UNL     1       6.411   7.127  17.233  0.00  0.00    +0.000 C 
ENDBRANCH  17  22
ENDBRANCH   1  15
BRANCH   6  24
ATOM     24  O   UNL     1      -1.323  10.758  23.068  0.00  0.00    +0.000 OA
ATOM     25  H   UNL     1      -1.874  11.510  23.378  0.00  0.00    +0.000 HD
ENDBRANCH   6  24
BRANCH   7  26
ATOM     26  O   UNL     1      -1.182  13.284  22.522  0.00  0.00    +0.000 OA
ATOM     27  C   UNL     1      -2.494  13.777  22.327  0.00  0.00    +0.000 C 
ENDBRANCH   7  26
BRANCH   8  28
ATOM     28  O   UNL     1      -0.112  14.179  20.065  0.00  0.00    +0.000 OA
ATOM     29  C   UNL     1       0.853  15.087  20.580  0.00  0.00    +0.000 C 
ENDBRANCH   8  28
BRANCH   9  30
ATOM     30  O   UNL     1       1.214  12.441  18.424  0.00  0.00    +0.000 OA
ATOM     31  C   UNL     1       2.602  12.676  18.310  0.00  0.00    +0.000 C 
ENDBRANCH   9  30
TORSDOF 8
ENDMDL
MODEL 6
REMARK VINA RESULT:      -6.5      1.624      7.826
REMARK  Name = 
REMARK  14 active torsions:
REMARK  status: ('A' for Active; 'I' for Inactive)
REMARK    1  A    between atoms: C_1  and  O_2
REMARK    2  A    between atoms: O_2  and  C_3
REMARK    3  A    between atoms: C_5  and  O_6
REMARK    4  A    between atoms: O_6  and  C_7
REMARK    5  A    between atoms: C_8  and  C_9
REMARK    6  A    between atoms: C_14  and  O_15
REMARK    7  A    between atoms: C_16  and  O_17
REMARK    8  A    between atoms: O_17  and  C_18
REMARK    9  A    between atoms: C_19  and  O_20
REMARK   10  A    between atoms: O_20  and  C_21
REMARK   11  A    between atoms: C_22  and  O_23
REMARK   12  A    between atoms: O_23  and  C_24
REMARK   13  A    between atoms: C_28  and  O_29
REMARK   14  A    between atoms: O_29  and  C_30
REMARK                            x       y       z     vdW  Elec       q    Type
REMARK                         _______ _______ _______ _____ _____    ______ ____
ROOT
ATOM      1  C   UNL     1       1.606   8.295  19.332  0.00  0.00    +0.000 A 
ATOM      2  C   UNL     1       2.441   8.790  18.425  0.00  0.00    +0.000 A 
ATOM      3  C   UNL     1       3.082   7.844  17.550  0.00  0.00    +0.000 A 
ATOM      4  O   UNL     1       3.343   8.137  16.393  0.00  0.00    +0.000 OA
ATOM      5  C   UNL     1       3.409   6.555  18.132  0.00  0.00    +0.000 A 
ATOM      6  C   UNL     1       4.448   5.849  17.527  0.00  0.00    +0.000 A 
ATOM      7  C   UNL     1       4.942   4.713  18.135  0.00  0.00    +0.000 A 
ATOM      8  C   UNL     1       4.365   4.278  19.343  0.00  0.00    +0.000 A 
ATOM      9  C   UNL     1       3.255   4.984  19.935  0.00  0.00    +0.000 A 
ATOM     10  C   UNL     1       2.770   6.164  19.319  0.00  0.00    +0.000 A 
ATOM     11  O   UNL     1       1.703   6.949  19.800  0.00  0.00    +0.000 OA
ENDROOT
BRANCH   1  15
ATOM     12  C   UNL     1      -1.052  11.350  20.963  0.00  0.00    +0.000 A 
ATOM     13  C   UNL     1      -1.088  11.059  19.601  0.00  0.00    +0.000 A 
ATOM     14  C   UNL     1      -0.324  10.016  19.062  0.00  0.00    +0.000 A 
ATOM     15  C   UNL     1       0.577   9.248  19.871  0.00  0.00    +0.000 A 
ATOM     16  C   UNL     1       0.550   9.515  21.244  0.00  0.00    +0.000 A 
ATOM     17  C   UNL     1      -0.213  10.574  21.791  0.00  0.00    +0.000 A 
BRANCH  12  19
ATOM     18  C   UNL     1      -3.055  12.648  20.990  0.00  0.00    +0.000 C 
ATOM     19  O   UNL     1      -1.754  12.390  21.513  0.00  0.00    +0.000 OA
ENDBRANCH  12  19
BRANCH  14  20
ATOM     20  O   UNL     1      -0.385  10.000  17.685  0.00  0.00    +0.000 OA
ATOM     21  C   UNL     1      -1.685   9.953  17.096  0.00  0.00    +0.000 C 
ENDBRANCH  14  20
BRANCH  17  22
ATOM     22  O   UNL     1      -0.028  10.693  23.144  0.00  0.00    +0.000 OA
ATOM     23  C   UNL     1       0.136   9.509  23.913  0.00  0.00    +0.000 C 
ENDBRANCH  17  22
ENDBRANCH   1  15
BRANCH   6  24
ATOM     24  O   UNL     1       5.015   6.251  16.338  0.00  0.00    +0.000 OA
ATOM     25  H   UNL     1       5.942   6.533  16.498  0.00  0.00    +0.000 HD
ENDBRANCH   6  24
BRANCH   7  26
ATOM     26  O   UNL     1       6.080   4.221  17.539  0.00  0.00    +0.000 OA
ATOM     27  C   UNL     1       7.332   4.691  18.002  0.00  0.00    +0.000 C 
ENDBRANCH   7  26
BRANCH   8  28
ATOM     28  O   UNL     1       4.867   3.090  19.827  0.00  0.00    +0.000 OA
ATOM     29  C   UNL     1       4.283   1.876  19.374  0.00  0.00    +0.000 C 
ENDBRANCH   8  28
BRANCH   9  30
ATOM     30  O   UNL     1       2.819   4.390  21.086  0.00  0.00    +0.000 OA
ATOM     31  C   UNL     1       1.600   3.679  21.158  0.00  0.00    +0.000 C 
ENDBRANCH   9  30
TORSDOF 8
ENDMDL
MODEL 7
REMARK VINA RESULT:      -6.4      1.846      8.031
REMARK  Name = 
REMARK  14 active torsions:
REMARK  status: ('A' for Active; 'I' for Inactive)
REMARK    1  A    between atoms: C_1  and  O_2
REMARK    2  A    between atoms: O_2  and  C_3
REMARK    3  A    between atoms: C_5  and  O_6
REMARK    4  A    between atoms: O_6  and  C_7
REMARK    5  A    between atoms: C_8  and  C_9
REMARK    6  A    between atoms: C_14  and  O_15
REMARK    7  A    between atoms: C_16  and  O_17
REMARK    8  A    between atoms: O_17  and  C_18
REMARK    9  A    between atoms: C_19  and  O_20
REMARK   10  A    between atoms: O_20  and  C_21
REMARK   11  A    between atoms: C_22  and  O_23
REMARK   12  A    between atoms: O_23  and  C_24
REMARK   13  A    between atoms: C_28  and  O_29
REMARK   14  A    between atoms: O_29  and  C_30
REMARK                            x       y       z     vdW  Elec       q    Type
REMARK                         _______ _______ _______ _____ _____    ______ ____
ROOT
ATOM      1  C   UNL     1       1.929   8.399  18.737  0.00  0.00    +0.000 A 
ATOM      2  C   UNL     1       2.834   8.754  17.832  0.00  0.00    +0.000 A 
ATOM      3  C   UNL     1       3.475   7.691  17.104  0.00  0.00    +0.000 A 
ATOM      4  O   UNL     1       3.812   7.842  15.939  0.00  0.00    +0.000 OA
ATOM      5  C   UNL     1       3.708   6.462  17.841  0.00  0.00    +0.000 A 
ATOM      6  C   UNL     1       4.743   5.650  17.378  0.00  0.00    +0.000 A 
ATOM      7  C   UNL     1       5.148   4.569  18.134  0.00  0.00    +0.000 A 
ATOM      8  C   UNL     1       4.487   4.295  19.346  0.00  0.00    +0.000 A 
ATOM      9  C   UNL     1       3.382   5.108  19.792  0.00  0.00    +0.000 A 
ATOM     10  C   UNL     1       2.988   6.232  19.024  0.00  0.00    +0.000 A 
ATOM     11  O   UNL     1       1.935   7.110  19.353  0.00  0.00    +0.000 OA
ENDROOT
BRANCH   1  15
ATOM     12  C   UNL     1      -1.315  11.131  19.770  0.00  0.00    +0.000 A 
ATOM     13  C   UNL     1      -0.429  10.707  20.758  0.00  0.00    +0.000 A 
ATOM     14  C   UNL     1       0.682   9.914  20.442  0.00  0.00    +0.000 A 
ATOM     15  C   UNL     1       0.919   9.447  19.108  0.00  0.00    +0.000 A 
ATOM     16  C   UNL     1       0.053   9.935  18.124  0.00  0.00    +0.000 A 
ATOM     17  C   UNL     1      -1.076  10.730  18.439  0.00  0.00    +0.000 A 
BRANCH  12  19
ATOM     18  C   UNL     1      -2.339  12.815  21.117  0.00  0.00    +0.000 C 
ATOM     19  O   UNL     1      -2.433  11.871  20.052  0.00  0.00    +0.000 OA
ENDBRANCH  12  19
BRANCH  14  20
ATOM     20  O   UNL     1       1.335   9.480  21.577  0.00  0.00    +0.000 OA
ATOM     21  C   UNL     1       0.537   9.267  22.741  0.00  0.00    +0.000 C 
ENDBRANCH  14  20
BRANCH  17  22
ATOM     22  O   UNL     1      -1.818  11.029  17.326  0.00  0.00    +0.000 OA
ATOM     23  C   UNL     1      -2.771  10.079  16.871  0.00  0.00    +0.000 C 
ENDBRANCH  17  22
ENDBRANCH   1  15
BRANCH   6  24
ATOM     24  O   UNL     1       5.391   5.893  16.188  0.00  0.00    +0.000 OA
ATOM     25  H   UNL     1       5.959   6.689  16.282  0.00  0.00    +0.000 HD
ENDBRANCH   6  24
BRANCH   7  26
ATOM     26  O   UNL     1       6.291   3.966  17.663  0.00  0.00    +0.000 OA
ATOM     27  C   UNL     1       7.533   4.590  17.930  0.00  0.00    +0.000 C 
ENDBRANCH   7  26
BRANCH   8  28
ATOM     28  O   UNL     1       4.904   3.148  19.984  0.00  0.00    +0.000 OA
ATOM     29  C   UNL     1       4.321   1.910  19.599  0.00  0.00    +0.000 C 
ENDBRANCH   8  28
BRANCH   9  30
ATOM     30  O   UNL     1       2.856   4.665  20.973  0.00  0.00    +0.000 OA
ATOM     31  C   UNL     1       1.625   3.976  21.044  0.00  0.00    +0.000 C 
ENDBRANCH   9  30
TORSDOF 8
ENDMDL
MODEL 8
REMARK VINA RESULT:      -6.4      1.437      3.013
REMARK  Name = 
REMARK  14 active torsions:
REMARK  status: ('A' for Active; 'I' for Inactive)
REMARK    1  A    between atoms: C_1  and  O_2
REMARK    2  A    between atoms: O_2  and  C_3
REMARK    3  A    between atoms: C_5  and  O_6
REMARK    4  A    between atoms: O_6  and  C_7
REMARK    5  A    between atoms: C_8  and  C_9
REMARK    6  A    between atoms: C_14  and  O_15
REMARK    7  A    between atoms: C_16  and  O_17
REMARK    8  A    between atoms: O_17  and  C_18
REMARK    9  A    between atoms: C_19  and  O_20
REMARK   10  A    between atoms: O_20  and  C_21
REMARK   11  A    between atoms: C_22  and  O_23
REMARK   12  A    between atoms: O_23  and  C_24
REMARK   13  A    between atoms: C_28  and  O_29
REMARK   14  A    between atoms: O_29  and  C_30
REMARK                            x       y       z     vdW  Elec       q    Type
REMARK                         _______ _______ _______ _____ _____    ______ ____
ROOT
ATOM      1  C   UNL     1       1.209   8.114  20.583  0.00  0.00    +0.000 A 
ATOM      2  C   UNL     1       1.490   8.519  21.817  0.00  0.00    +0.000 A 
ATOM      3  C   UNL     1       0.579   9.460  22.413  0.00  0.00    +0.000 A 
ATOM      4  O   UNL     1       0.356   9.444  23.614  0.00  0.00    +0.000 OA
ATOM      5  C   UNL     1      -0.024  10.425  21.511  0.00  0.00    +0.000 A 
ATOM      6  C   UNL     1      -0.461  11.619  22.083  0.00  0.00    +0.000 A 
ATOM      7  C   UNL     1      -0.866  12.655  21.267  0.00  0.00    +0.000 A 
ATOM      8  C   UNL     1      -0.853  12.472  19.871  0.00  0.00    +0.000 A 
ATOM      9  C   UNL     1      -0.451  11.215  19.289  0.00  0.00    +0.000 A 
ATOM     10  C   UNL     1      -0.012  10.164  20.131  0.00  0.00    +0.000 A 
ATOM     11  O   UNL     1       0.416   8.896  19.689  0.00  0.00    +0.000 OA
ENDROOT
BRANCH   1  15
ATOM     12  C   UNL     1       2.567   4.210  19.181  0.00  0.00    +0.000 A 
ATOM     13  C   UNL     1       3.055   5.367  18.579  0.00  0.00    +0.000 A 
ATOM     14  C   UNL     1       2.720   6.636  19.070  0.00  0.00    +0.000 A 
ATOM     15  C   UNL     1       1.811   6.803  20.166  0.00  0.00    +0.000 A 
ATOM     16  C   UNL     1       1.384   5.628  20.794  0.00  0.00    +0.000 A 
ATOM     17  C   UNL     1       1.712   4.344  20.296  0.00  0.00    +0.000 A 
BRANCH  12  19
ATOM     18  C   UNL     1       3.824   2.853  17.671  0.00  0.00    +0.000 C 
ATOM     19  O   UNL     1       2.841   2.956  18.700  0.00  0.00    +0.000 OA
ENDBRANCH  12  19
BRANCH  14  20
ATOM     20  O   UNL     1       3.177   7.639  18.241  0.00  0.00    +0.000 OA
ATOM     21  C   UNL     1       4.157   7.276  17.268  0.00  0.00    +0.000 C 
ENDBRANCH  14  20
BRANCH  17  22
ATOM     22  O   UNL     1       1.125   3.345  21.028  0.00  0.00    +0.000 OA
ATOM     23  C   UNL     1       1.931   2.604  21.934  0.00  0.00    +0.000 C 
ENDBRANCH  17  22
ENDBRANCH   1  15
BRANCH   6  24
ATOM     24  O   UNL     1      -0.493  11.811  23.446  0.00  0.00    +0.000 OA
ATOM     25  H   UNL     1      -1.371  12.168  23.705  0.00  0.00    +0.000 HD
ENDBRANCH   6  24
BRANCH   7  26
ATOM     26  O   UNL     1      -1.092  13.831  21.943  0.00  0.00    +0.000 OA
ATOM     27  C   UNL     1      -2.432  14.211  22.192  0.00  0.00    +0.000 C 
ENDBRANCH   7  26
BRANCH   8  28
ATOM     28  O   UNL     1      -1.357  13.530  19.147  0.00  0.00    +0.000 OA
ATOM     29  C   UNL     1      -0.463  14.559  18.745  0.00  0.00    +0.000 C 
ENDBRANCH   8  28
BRANCH   9  30
ATOM     30  O   UNL     1      -0.536  11.227  17.924  0.00  0.00    +0.000 OA
ATOM     31  C   UNL     1      -1.575  10.575  17.224  0.00  0.00    +0.000 C 
ENDBRANCH   9  30
TORSDOF 8
ENDMDL
MODEL 9
REMARK VINA RESULT:      -6.3      1.925      3.920
REMARK  Name = 
REMARK  14 active torsions:
REMARK  status: ('A' for Active; 'I' for Inactive)
REMARK    1  A    between atoms: C_1  and  O_2
REMARK    2  A    between atoms: O_2  and  C_3
REMARK    3  A    between atoms: C_5  and  O_6
REMARK    4  A    between atoms: O_6  and  C_7
REMARK    5  A    between atoms: C_8  and  C_9
REMARK    6  A    between atoms: C_14  and  O_15
REMARK    7  A    between atoms: C_16  and  O_17
REMARK    8  A    between atoms: O_17  and  C_18
REMARK    9  A    between atoms: C_19  and  O_20
REMARK   10  A    between atoms: O_20  and  C_21
REMARK   11  A    between atoms: C_22  and  O_23
REMARK   12  A    between atoms: O_23  and  C_24
REMARK   13  A    between atoms: C_28  and  O_29
REMARK   14  A    between atoms: O_29  and  C_30
REMARK                            x       y       z     vdW  Elec       q    Type
REMARK                         _______ _______ _______ _____ _____    ______ ____
ROOT
ATOM      1  C   UNL     1       0.752   9.485  20.240  0.00  0.00    +0.000 A 
ATOM      2  C   UNL     1       1.085   9.842  21.475  0.00  0.00    +0.000 A 
ATOM      3  C   UNL     1       0.019  10.297  22.328  0.00  0.00    +0.000 A 
ATOM      4  O   UNL     1       0.038  10.078  23.530  0.00  0.00    +0.000 OA
ATOM      5  C   UNL     1      -1.046  11.040  21.678  0.00  0.00    +0.000 A 
ATOM      6  C   UNL     1      -1.775  11.912  22.486  0.00  0.00    +0.000 A 
ATOM      7  C   UNL     1      -2.669  12.788  21.906  0.00  0.00    +0.000 A 
ATOM      8  C   UNL     1      -2.844  12.763  20.509  0.00  0.00    +0.000 A 
ATOM      9  C   UNL     1      -2.126  11.821  19.686  0.00  0.00    +0.000 A 
ATOM     10  C   UNL     1      -1.190  10.942  20.285  0.00  0.00    +0.000 A 
ATOM     11  O   UNL     1      -0.419   9.986  19.594  0.00  0.00    +0.000 OA
ENDROOT
BRANCH   1  15
ATOM     12  C   UNL     1       3.163   6.519  18.130  0.00  0.00    +0.000 A 
ATOM     13  C   UNL     1       2.923   7.759  17.542  0.00  0.00    +0.000 A 
ATOM     14  C   UNL     1       2.241   8.769  18.233  0.00  0.00    +0.000 A 
ATOM     15  C   UNL     1       1.703   8.553  19.544  0.00  0.00    +0.000 A 
ATOM     16  C   UNL     1       2.010   7.325  20.139  0.00  0.00    +0.000 A 
ATOM     17  C   UNL     1       2.690   6.298  19.442  0.00  0.00    +0.000 A 
BRANCH  12  19
ATOM     18  C   UNL     1       4.929   5.833  16.678  0.00  0.00    +0.000 C 
ATOM     19  O   UNL     1       3.789   5.497  17.467  0.00  0.00    +0.000 OA
ENDBRANCH  12  19
BRANCH  14  20
ATOM     20  O   UNL     1       1.974   9.851  17.419  0.00  0.00    +0.000 OA
ATOM     21  C   UNL     1       2.471  11.119  17.847  0.00  0.00    +0.000 C 
ENDBRANCH  14  20
BRANCH  17  22
ATOM     22  O   UNL     1       2.815   5.161  20.197  0.00  0.00    +0.000 OA
ATOM     23  C   UNL     1       1.646   4.606  20.785  0.00  0.00    +0.000 C 
ENDBRANCH  17  22
ENDBRANCH   1  15
BRANCH   6  24
ATOM     24  O   UNL     1      -1.628  11.941  23.855  0.00  0.00    +0.000 OA
ATOM     25  H   UNL     1      -0.686  12.110  24.078  0.00  0.00    +0.000 HD
ENDBRANCH   6  24
BRANCH   7  26
ATOM     26  O   UNL     1      -3.180  13.715  22.785  0.00  0.00    +0.000 OA
ATOM     27  C   UNL     1      -4.395  13.410  23.444  0.00  0.00    +0.000 C 
ENDBRANCH   7  26
BRANCH   8  28
ATOM     28  O   UNL     1      -3.819  13.612  20.035  0.00  0.00    +0.000 OA
ATOM     29  C   UNL     1      -5.157  13.137  19.973  0.00  0.00    +0.000 C 
ENDBRANCH   8  28
BRANCH   9  30
ATOM     30  O   UNL     1      -2.455  11.934  18.364  0.00  0.00    +0.000 OA
ATOM     31  C   UNL     1      -3.231  10.966  17.691  0.00  0.00    +0.000 C 
ENDBRANCH   9  30
TORSDOF 8
ENDMDL
