MODEL 1
REMARK VINA RESULT:      -7.2      0.000      0.000
REMARK  Name = 
REMARK  7 active torsions:
REMARK  status: ('A' for Active; 'I' for Inactive)
REMARK    1  A    between atoms: C_1  and  C_2
REMARK    2  A    between atoms: C_2  and  O_3
REMARK    3  A    between atoms: O_3  and  C_4
REMARK    4  A    between atoms: N_6  and  N_7
REMARK    5  A    between atoms: C_8  and  C_9
REMARK    6  A    between atoms: C_8  and  C_10
REMARK    7  A    between atoms: C_13  and  N_14
REMARK                            x       y       z     vdW  Elec       q    Type
REMARK                         _______ _______ _______ _____ _____    ______ ____
ROOT
ATOM      1  C   UNL     1       2.875   6.102  18.586  0.00  0.00    +0.000 A 
ATOM      2  C   UNL     1       2.442   5.537  19.797  0.00  0.00    +0.000 A 
ATOM      3  C   UNL     1       1.799   6.315  20.767  0.00  0.00    +0.000 A 
ATOM      4  C   UNL     1       1.576   7.677  20.533  0.00  0.00    +0.000 A 
ATOM      5  C   UNL     1       2.013   8.250  19.329  0.00  0.00    +0.000 A 
ATOM      6  C   UNL     1       2.660   7.467  18.365  0.00  0.00    +0.000 A 
ENDROOT
BRANCH   4   7
ATOM      7  N   UNL     1       0.908   8.487  21.482  0.00  0.00    +0.000 N 
ATOM      8  C   UNL     1      -0.437   8.646  21.705  0.00  0.00    +0.000 A 
ATOM      9  N   UNL     1      -0.614   9.514  22.677  0.00  0.00    +0.000 NA
ATOM     10  N   UNL     1       0.637   9.897  23.068  0.00  0.00    +0.000 NA
ATOM     11  N   UNL     1       1.570   9.278  22.359  0.00  0.00    +0.000 NA
ENDBRANCH   4   7
BRANCH   1  13
ATOM     12  N   UNL     1       4.584   5.707  16.943  0.00  0.00    +0.000 NA
ATOM     13  C   UNL     1       3.541   5.227  17.556  0.00  0.00    +0.000 C 
ATOM     14  C   UNL     1       2.938   3.857  17.316  0.00  0.00    +0.000 C 
BRANCH  12  17
ATOM     15  C   UNL     1       6.552   5.246  15.697  0.00  0.00    +0.000 C 
ATOM     16  O   UNL     1       7.277   6.079  16.222  0.00  0.00    +0.000 OA
ATOM     17  N   UNL     1       5.246   4.970  16.018  0.00  0.00    +0.000 N 
ATOM     18  H   UNL     1       4.778   4.309  15.418  0.00  0.00    +0.000 HD
BRANCH  15  19
ATOM     19  O   UNL     1       6.894   4.481  14.625  0.00  0.00    +0.000 OA
BRANCH  19  21
ATOM     20  C   UNL     1       6.335   3.548  12.492  0.00  0.00    +0.000 C 
ATOM     21  C   UNL     1       5.796   4.002  13.837  0.00  0.00    +0.000 C 
ENDBRANCH  19  21
ENDBRANCH  15  19
ENDBRANCH  12  17
ENDBRANCH   1  13
TORSDOF 5
ENDMDL
MODEL 2
REMARK VINA RESULT:      -7.0      3.450      8.412
REMARK  Name = 
REMARK  7 active torsions:
REMARK  status: ('A' for Active; 'I' for Inactive)
REMARK    1  A    between atoms: C_1  and  C_2
REMARK    2  A    between atoms: C_2  and  O_3
REMARK    3  A    between atoms: O_3  and  C_4
REMARK    4  A    between atoms: N_6  and  N_7
REMARK    5  A    between atoms: C_8  and  C_9
REMARK    6  A    between atoms: C_8  and  C_10
REMARK    7  A    between atoms: C_13  and  N_14
REMARK                            x       y       z     vdW  Elec       q    Type
REMARK                         _______ _______ _______ _____ _____    ______ ____
ROOT
ATOM      1  C   UNL     1       3.179   5.939  18.750  0.00  0.00    +0.000 A 
ATOM      2  C   UNL     1       3.726   4.663  18.539  0.00  0.00    +0.000 A 
ATOM      3  C   UNL     1       4.640   4.433  17.504  0.00  0.00    +0.000 A 
ATOM      4  C   UNL     1       5.024   5.485  16.665  0.00  0.00    +0.000 A 
ATOM      5  C   UNL     1       4.476   6.761  16.866  0.00  0.00    +0.000 A 
ATOM      6  C   UNL     1       3.559   6.984  17.899  0.00  0.00    +0.000 A 
ENDROOT
BRANCH   4   7
ATOM      7  N   UNL     1       5.964   5.292  15.625  0.00  0.00    +0.000 N 
ATOM      8  C   UNL     1       5.833   4.606  14.443  0.00  0.00    +0.000 A 
ATOM      9  N   UNL     1       6.967   4.667  13.780  0.00  0.00    +0.000 NA
ATOM     10  N   UNL     1       7.815   5.404  14.558  0.00  0.00    +0.000 NA
ATOM     11  N   UNL     1       7.219   5.795  15.674  0.00  0.00    +0.000 NA
ENDBRANCH   4   7
BRANCH   1  13
ATOM     12  N   UNL     1       1.860   7.377  20.153  0.00  0.00    +0.000 NA
ATOM     13  C   UNL     1       2.218   6.154  19.890  0.00  0.00    +0.000 C 
ATOM     14  C   UNL     1       1.746   4.924  20.640  0.00  0.00    +0.000 C 
BRANCH  12  17
ATOM     15  C   UNL     1       0.181   8.759  21.106  0.00  0.00    +0.000 C 
ATOM     16  O   UNL     1       0.088   9.562  20.189  0.00  0.00    +0.000 OA
ATOM     17  N   UNL     1       0.983   7.645  21.150  0.00  0.00    +0.000 N 
ATOM     18  H   UNL     1       0.993   7.148  22.026  0.00  0.00    +0.000 HD
BRANCH  15  19
ATOM     19  O   UNL     1      -0.451   8.872  22.306  0.00  0.00    +0.000 OA
BRANCH  19  21
ATOM     20  C   UNL     1      -1.326  10.966  23.068  0.00  0.00    +0.000 C 
ATOM     21  C   UNL     1      -0.122  10.042  23.067  0.00  0.00    +0.000 C 
ENDBRANCH  19  21
ENDBRANCH  15  19
ENDBRANCH  12  17
ENDBRANCH   1  13
TORSDOF 5
ENDMDL
MODEL 3
REMARK VINA RESULT:      -7.0      1.300      1.740
REMARK  Name = 
REMARK  7 active torsions:
REMARK  status: ('A' for Active; 'I' for Inactive)
REMARK    1  A    between atoms: C_1  and  C_2
REMARK    2  A    between atoms: C_2  and  O_3
REMARK    3  A    between atoms: O_3  and  C_4
REMARK    4  A    between atoms: N_6  and  N_7
REMARK    5  A    between atoms: C_8  and  C_9
REMARK    6  A    between atoms: C_8  and  C_10
REMARK    7  A    between atoms: C_13  and  N_14
REMARK                            x       y       z     vdW  Elec       q    Type
REMARK                         _______ _______ _______ _____ _____    ______ ____
ROOT
ATOM      1  C   UNL     1       2.842   7.032  18.341  0.00  0.00    +0.000 A 
ATOM      2  C   UNL     1       2.463   8.222  17.699  0.00  0.00    +0.000 A 
ATOM      3  C   UNL     1       1.724   9.202  18.373  0.00  0.00    +0.000 A 
ATOM      4  C   UNL     1       1.359   9.004  19.710  0.00  0.00    +0.000 A 
ATOM      5  C   UNL     1       1.729   7.814  20.356  0.00  0.00    +0.000 A 
ATOM      6  C   UNL     1       2.462   6.836  19.674  0.00  0.00    +0.000 A 
ENDROOT
BRANCH   4   7
ATOM      7  N   UNL     1       0.634   9.985  20.427  0.00  0.00    +0.000 N 
ATOM      8  C   UNL     1      -0.591  10.540  20.155  0.00  0.00    +0.000 A 
ATOM      9  N   UNL     1      -0.877  11.431  21.081  0.00  0.00    +0.000 NA
ATOM     10  N   UNL     1       0.183  11.427  21.942  0.00  0.00    +0.000 NA
ATOM     11  N   UNL     1       1.102  10.550  21.564  0.00  0.00    +0.000 NA
ENDBRANCH   4   7
BRANCH   1  13
ATOM     12  N   UNL     1       4.626   6.450  16.840  0.00  0.00    +0.000 NA
ATOM     13  C   UNL     1       3.658   6.012  17.591  0.00  0.00    +0.000 C 
ATOM     14  C   UNL     1       3.280   4.554  17.771  0.00  0.00    +0.000 C 
BRANCH  12  17
ATOM     15  C   UNL     1       6.781   5.724  16.156  0.00  0.00    +0.000 C 
ATOM     16  O   UNL     1       7.438   6.526  16.805  0.00  0.00    +0.000 OA
ATOM     17  N   UNL     1       5.414   5.590  16.151  0.00  0.00    +0.000 N 
ATOM     18  H   UNL     1       5.042   4.930  15.486  0.00  0.00    +0.000 HD
BRANCH  15  19
ATOM     19  O   UNL     1       7.294   4.853  15.246  0.00  0.00    +0.000 OA
BRANCH  19  21
ATOM     20  C   UNL     1       6.473   3.931  13.194  0.00  0.00    +0.000 C 
ATOM     21  C   UNL     1       6.361   3.905  14.708  0.00  0.00    +0.000 C 
ENDBRANCH  19  21
ENDBRANCH  15  19
ENDBRANCH  12  17
ENDBRANCH   1  13
TORSDOF 5
ENDMDL
MODEL 4
REMARK VINA RESULT:      -6.8      3.290      8.492
REMARK  Name = 
REMARK  7 active torsions:
REMARK  status: ('A' for Active; 'I' for Inactive)
REMARK    1  A    between atoms: C_1  and  C_2
REMARK    2  A    between atoms: C_2  and  O_3
REMARK    3  A    between atoms: O_3  and  C_4
REMARK    4  A    between atoms: N_6  and  N_7
REMARK    5  A    between atoms: C_8  and  C_9
REMARK    6  A    between atoms: C_8  and  C_10
REMARK    7  A    between atoms: C_13  and  N_14
REMARK                            x       y       z     vdW  Elec       q    Type
REMARK                         _______ _______ _______ _____ _____    ______ ____
ROOT
ATOM      1  C   UNL     1       3.728   5.488  17.872  0.00  0.00    +0.000 A 
ATOM      2  C   UNL     1       3.940   4.193  17.372  0.00  0.00    +0.000 A 
ATOM      3  C   UNL     1       4.776   3.974  16.270  0.00  0.00    +0.000 A 
ATOM      4  C   UNL     1       5.418   5.055  15.655  0.00  0.00    +0.000 A 
ATOM      5  C   UNL     1       5.204   6.352  16.145  0.00  0.00    +0.000 A 
ATOM      6  C   UNL     1       4.363   6.566  17.244  0.00  0.00    +0.000 A 
ENDROOT
BRANCH   4   7
ATOM      7  N   UNL     1       6.287   4.865  14.555  0.00  0.00    +0.000 N 
ATOM      8  C   UNL     1       6.143   4.058  13.454  0.00  0.00    +0.000 A 
ATOM      9  N   UNL     1       7.206   4.178  12.689  0.00  0.00    +0.000 NA
ATOM     10  N   UNL     1       8.021   5.075  13.319  0.00  0.00    +0.000 NA
ATOM     11  N   UNL     1       7.475   5.505  14.446  0.00  0.00    +0.000 NA
ENDBRANCH   4   7
BRANCH   1  13
ATOM     12  N   UNL     1       2.740   6.886  19.559  0.00  0.00    +0.000 NA
ATOM     13  C   UNL     1       2.842   5.682  19.075  0.00  0.00    +0.000 C 
ATOM     14  C   UNL     1       2.142   4.455  19.625  0.00  0.00    +0.000 C 
BRANCH  12  17
ATOM     15  C   UNL     1       1.266   8.328  20.737  0.00  0.00    +0.000 C 
ATOM     16  O   UNL     1       1.216   9.225  19.908  0.00  0.00    +0.000 OA
ATOM     17  N   UNL     1       1.945   7.139  20.627  0.00  0.00    +0.000 N 
ATOM     18  H   UNL     1       1.943   6.557  21.450  0.00  0.00    +0.000 HD
BRANCH  15  19
ATOM     19  O   UNL     1       0.708   8.382  21.977  0.00  0.00    +0.000 OA
BRANCH  19  21
ATOM     20  C   UNL     1      -0.554  10.011  23.197  0.00  0.00    +0.000 C 
ATOM     21  C   UNL     1      -0.574   9.022  22.046  0.00  0.00    +0.000 C 
ENDBRANCH  19  21
ENDBRANCH  15  19
ENDBRANCH  12  17
ENDBRANCH   1  13
TORSDOF 5
ENDMDL
MODEL 5
REMARK VINA RESULT:      -6.8      3.286      8.529
REMARK  Name = 
REMARK  7 active torsions:
REMARK  status: ('A' for Active; 'I' for Inactive)
REMARK    1  A    between atoms: C_1  and  C_2
REMARK    2  A    between atoms: C_2  and  O_3
REMARK    3  A    between atoms: O_3  and  C_4
REMARK    4  A    between atoms: N_6  and  N_7
REMARK    5  A    between atoms: C_8  and  C_9
REMARK    6  A    between atoms: C_8  and  C_10
REMARK    7  A    between atoms: C_13  and  N_14
REMARK                            x       y       z     vdW  Elec       q    Type
REMARK                         _______ _______ _______ _____ _____    ______ ____
ROOT
ATOM      1  C   UNL     1       3.703   5.434  17.790  0.00  0.00    +0.000 A 
ATOM      2  C   UNL     1       4.288   6.551  17.171  0.00  0.00    +0.000 A 
ATOM      3  C   UNL     1       5.168   6.399  16.093  0.00  0.00    +0.000 A 
ATOM      4  C   UNL     1       5.472   5.119  15.615  0.00  0.00    +0.000 A 
ATOM      5  C   UNL     1       4.897   3.999  16.233  0.00  0.00    +0.000 A 
ATOM      6  C   UNL     1       4.022   4.157  17.314  0.00  0.00    +0.000 A 
ENDROOT
BRANCH   4   7
ATOM      7  N   UNL     1       6.339   4.933  14.512  0.00  0.00    +0.000 N 
ATOM      8  C   UNL     1       6.191   4.131  13.408  0.00  0.00    +0.000 A 
ATOM      9  N   UNL     1       7.252   4.252  12.640  0.00  0.00    +0.000 NA
ATOM     10  N   UNL     1       8.070   5.145  13.272  0.00  0.00    +0.000 NA
ATOM     11  N   UNL     1       7.527   5.572  14.403  0.00  0.00    +0.000 NA
ENDBRANCH   4   7
BRANCH   1  13
ATOM     12  N   UNL     1       2.830   6.750  19.601  0.00  0.00    +0.000 NA
ATOM     13  C   UNL     1       2.741   5.638  18.932  0.00  0.00    +0.000 C 
ATOM     14  C   UNL     1       1.747   4.527  19.207  0.00  0.00    +0.000 C 
BRANCH  12  17
ATOM     15  C   UNL     1       1.315   8.207  20.705  0.00  0.00    +0.000 C 
ATOM     16  O   UNL     1       1.316   9.105  19.875  0.00  0.00    +0.000 OA
ATOM     17  N   UNL     1       1.986   7.012  20.628  0.00  0.00    +0.000 N 
ATOM     18  H   UNL     1       1.936   6.429  21.449  0.00  0.00    +0.000 HD
BRANCH  15  19
ATOM     19  O   UNL     1       0.694   8.267  21.915  0.00  0.00    +0.000 OA
BRANCH  19  21
ATOM     20  C   UNL     1      -0.469   9.971  23.129  0.00  0.00    +0.000 C 
ATOM     21  C   UNL     1      -0.523   9.024  21.944  0.00  0.00    +0.000 C 
ENDBRANCH  19  21
ENDBRANCH  15  19
ENDBRANCH  12  17
ENDBRANCH   1  13
TORSDOF 5
ENDMDL
MODEL 6
REMARK VINA RESULT:      -6.8      1.261      1.464
REMARK  Name = 
REMARK  7 active torsions:
REMARK  status: ('A' for Active; 'I' for Inactive)
REMARK    1  A    between atoms: C_1  and  C_2
REMARK    2  A    between atoms: C_2  and  O_3
REMARK    3  A    between atoms: O_3  and  C_4
REMARK    4  A    between atoms: N_6  and  N_7
REMARK    5  A    between atoms: C_8  and  C_9
REMARK    6  A    between atoms: C_8  and  C_10
REMARK    7  A    between atoms: C_13  and  N_14
REMARK                            x       y       z     vdW  Elec       q    Type
REMARK                         _______ _______ _______ _____ _____    ______ ____
ROOT
ATOM      1  C   UNL     1       2.519   7.367  18.707  0.00  0.00    +0.000 A 
ATOM      2  C   UNL     1       2.241   7.001  20.034  0.00  0.00    +0.000 A 
ATOM      3  C   UNL     1       1.508   7.847  20.877  0.00  0.00    +0.000 A 
ATOM      4  C   UNL     1       1.038   9.074  20.397  0.00  0.00    +0.000 A 
ATOM      5  C   UNL     1       1.318   9.449  19.074  0.00  0.00    +0.000 A 
ATOM      6  C   UNL     1       2.055   8.602  18.238  0.00  0.00    +0.000 A 
ENDROOT
BRANCH   4   7
ATOM      7  N   UNL     1       0.274   9.940  21.215  0.00  0.00    +0.000 N 
ATOM      8  C   UNL     1      -0.701  10.840  20.865  0.00  0.00    +0.000 A 
ATOM      9  N   UNL     1      -1.134  11.450  21.948  0.00  0.00    +0.000 NA
ATOM     10  N   UNL     1      -0.420  10.920  22.985  0.00  0.00    +0.000 NA
ATOM     11  N   UNL     1       0.431   9.999  22.558  0.00  0.00    +0.000 NA
ENDBRANCH   4   7
BRANCH   1  13
ATOM     12  N   UNL     1       4.279   6.910  17.137  0.00  0.00    +0.000 NA
ATOM     13  C   UNL     1       3.288   6.420  17.823  0.00  0.00    +0.000 C 
ATOM     14  C   UNL     1       2.841   4.972  17.805  0.00  0.00    +0.000 C 
BRANCH  12  17
ATOM     15  C   UNL     1       6.396   6.239  16.296  0.00  0.00    +0.000 C 
ATOM     16  O   UNL     1       7.088   6.970  16.989  0.00  0.00    +0.000 OA
ATOM     17  N   UNL     1       5.029   6.115  16.336  0.00  0.00    +0.000 N 
ATOM     18  H   UNL     1       4.623   5.525  15.627  0.00  0.00    +0.000 HD
BRANCH  15  19
ATOM     19  O   UNL     1       6.862   5.456  15.285  0.00  0.00    +0.000 OA
BRANCH  19  21
ATOM     20  C   UNL     1       6.114   3.846  13.678  0.00  0.00    +0.000 C 
ATOM     21  C   UNL     1       6.226   4.177  15.156  0.00  0.00    +0.000 C 
ENDBRANCH  19  21
ENDBRANCH  15  19
ENDBRANCH  12  17
ENDBRANCH   1  13
TORSDOF 5
ENDMDL
MODEL 7
REMARK VINA RESULT:      -6.8      1.522      2.001
REMARK  Name = 
REMARK  7 active torsions:
REMARK  status: ('A' for Active; 'I' for Inactive)
REMARK    1  A    between atoms: C_1  and  C_2
REMARK    2  A    between atoms: C_2  and  O_3
REMARK    3  A    between atoms: O_3  and  C_4
REMARK    4  A    between atoms: N_6  and  N_7
REMARK    5  A    between atoms: C_8  and  C_9
REMARK    6  A    between atoms: C_8  and  C_10
REMARK    7  A    between atoms: C_13  and  N_14
REMARK                            x       y       z     vdW  Elec       q    Type
REMARK                         _______ _______ _______ _____ _____    ______ ____
ROOT
ATOM      1  C   UNL     1       2.273   7.153  18.939  0.00  0.00    +0.000 A 
ATOM      2  C   UNL     1       2.001   8.388  18.328  0.00  0.00    +0.000 A 
ATOM      3  C   UNL     1       1.445   9.446  19.057  0.00  0.00    +0.000 A 
ATOM      4  C   UNL     1       1.156   9.281  20.416  0.00  0.00    +0.000 A 
ATOM      5  C   UNL     1       1.418   8.048  21.032  0.00  0.00    +0.000 A 
ATOM      6  C   UNL     1       1.969   6.992  20.297  0.00  0.00    +0.000 A 
ENDROOT
BRANCH   4   7
ATOM      7  N   UNL     1       0.616  10.338  21.187  0.00  0.00    +0.000 N 
ATOM      8  C   UNL     1       0.476  11.667  20.873  0.00  0.00    +0.000 A 
ATOM      9  N   UNL     1      -0.061  12.298  21.895  0.00  0.00    +0.000 NA
ATOM     10  N   UNL     1      -0.262  11.348  22.856  0.00  0.00    +0.000 NA
ATOM     11  N   UNL     1       0.136  10.156  22.439  0.00  0.00    +0.000 NA
ENDBRANCH   4   7
BRANCH   1  13
ATOM     12  N   UNL     1       4.123   6.209  17.732  0.00  0.00    +0.000 NA
ATOM     13  C   UNL     1       2.895   6.046  18.129  0.00  0.00    +0.000 C 
ATOM     14  C   UNL     1       2.035   4.830  17.841  0.00  0.00    +0.000 C 
BRANCH  12  17
ATOM     15  C   UNL     1       5.269   5.514  15.772  0.00  0.00    +0.000 C 
ATOM     16  O   UNL     1       5.306   6.600  15.210  0.00  0.00    +0.000 OA
ATOM     17  N   UNL     1       4.755   5.246  17.016  0.00  0.00    +0.000 N 
ATOM     18  H   UNL     1       4.732   4.274  17.280  0.00  0.00    +0.000 HD
BRANCH  15  19
ATOM     19  O   UNL     1       5.672   4.338  15.219  0.00  0.00    +0.000 OA
BRANCH  19  21
ATOM     20  C   UNL     1       6.123   3.684  12.960  0.00  0.00    +0.000 C 
ATOM     21  C   UNL     1       6.636   4.454  14.163  0.00  0.00    +0.000 C 
ENDBRANCH  19  21
ENDBRANCH  15  19
ENDBRANCH  12  17
ENDBRANCH   1  13
TORSDOF 5
ENDMDL
MODEL 8
REMARK VINA RESULT:      -6.8      0.908      1.012
REMARK  Name = 
REMARK  7 active torsions:
REMARK  status: ('A' for Active; 'I' for Inactive)
REMARK    1  A    between atoms: C_1  and  C_2
REMARK    2  A    between atoms: C_2  and  O_3
REMARK    3  A    between atoms: O_3  and  C_4
REMARK    4  A    between atoms: N_6  and  N_7
REMARK    5  A    between atoms: C_8  and  C_9
REMARK    6  A    between atoms: C_8  and  C_10
REMARK    7  A    between atoms: C_13  and  N_14
REMARK                            x       y       z     vdW  Elec       q    Type
REMARK                         _______ _______ _______ _____ _____    ______ ____
ROOT
ATOM      1  C   UNL     1       2.845   6.690  18.547  0.00  0.00    +0.000 A 
ATOM      2  C   UNL     1       2.536   6.279  19.854  0.00  0.00    +0.000 A 
ATOM      3  C   UNL     1       1.846   7.125  20.732  0.00  0.00    +0.000 A 
ATOM      4  C   UNL     1       1.451   8.398  20.307  0.00  0.00    +0.000 A 
ATOM      5  C   UNL     1       1.763   8.817  19.005  0.00  0.00    +0.000 A 
ATOM      6  C   UNL     1       2.457   7.970  18.134  0.00  0.00    +0.000 A 
ENDROOT
BRANCH   4   7
ATOM      7  N   UNL     1       0.732   9.268  21.161  0.00  0.00    +0.000 N 
ATOM      8  C   UNL     1       0.741   9.354  22.531  0.00  0.00    +0.000 A 
ATOM      9  N   UNL     1      -0.098  10.295  22.909  0.00  0.00    +0.000 NA
ATOM     10  N   UNL     1      -0.632  10.804  21.760  0.00  0.00    +0.000 NA
ATOM     11  N   UNL     1      -0.134  10.197  20.693  0.00  0.00    +0.000 NA
ENDBRANCH   4   7
BRANCH   1  13
ATOM     12  N   UNL     1       4.618   6.192  17.003  0.00  0.00    +0.000 NA
ATOM     13  C   UNL     1       3.566   5.742  17.624  0.00  0.00    +0.000 C 
ATOM     14  C   UNL     1       3.004   4.340  17.492  0.00  0.00    +0.000 C 
BRANCH  12  17
ATOM     15  C   UNL     1       6.676   5.581  15.988  0.00  0.00    +0.000 C 
ATOM     16  O   UNL     1       7.391   6.384  16.571  0.00  0.00    +0.000 OA
ATOM     17  N   UNL     1       5.328   5.392  16.172  0.00  0.00    +0.000 N 
ATOM     18  H   UNL     1       4.888   4.743  15.539  0.00  0.00    +0.000 HD
BRANCH  15  19
ATOM     19  O   UNL     1       7.083   4.767  14.977  0.00  0.00    +0.000 OA
BRANCH  19  21
ATOM     20  C   UNL     1       6.245   3.683  13.013  0.00  0.00    +0.000 C 
ATOM     21  C   UNL     1       6.107   3.822  14.518  0.00  0.00    +0.000 C 
ENDBRANCH  19  21
ENDBRANCH  15  19
ENDBRANCH  12  17
ENDBRANCH   1  13
TORSDOF 5
ENDMDL
MODEL 9
REMARK VINA RESULT:      -6.7      3.405      8.531
REMARK  Name = 
REMARK  7 active torsions:
REMARK  status: ('A' for Active; 'I' for Inactive)
REMARK    1  A    between atoms: C_1  and  C_2
REMARK    2  A    between atoms: C_2  and  O_3
REMARK    3  A    between atoms: O_3  and  C_4
REMARK    4  A    between atoms: N_6  and  N_7
REMARK    5  A    between atoms: C_8  and  C_9
REMARK    6  A    between atoms: C_8  and  C_10
REMARK    7  A    between atoms: C_13  and  N_14
REMARK                            x       y       z     vdW  Elec       q    Type
REMARK                         _______ _______ _______ _____ _____    ______ ____
ROOT
ATOM      1  C   UNL     1       3.314   6.229  18.454  0.00  0.00    +0.000 A 
ATOM      2  C   UNL     1       3.964   7.214  17.693  0.00  0.00    +0.000 A 
ATOM      3  C   UNL     1       4.828   6.864  16.648  0.00  0.00    +0.000 A 
ATOM      4  C   UNL     1       5.049   5.515  16.346  0.00  0.00    +0.000 A 
ATOM      5  C   UNL     1       4.407   4.526  17.107  0.00  0.00    +0.000 A 
ATOM      6  C   UNL     1       3.549   4.882  18.154  0.00  0.00    +0.000 A 
ENDROOT
BRANCH   4   7
ATOM      7  N   UNL     1       5.897   5.129  15.281  0.00  0.00    +0.000 N 
ATOM      8  C   UNL     1       5.667   4.245  14.256  0.00  0.00    +0.000 A 
ATOM      9  N   UNL     1       6.741   4.174  13.499  0.00  0.00    +0.000 NA
ATOM     10  N   UNL     1       7.649   5.028  14.058  0.00  0.00    +0.000 NA
ATOM     11  N   UNL     1       7.150   5.619  15.133  0.00  0.00    +0.000 NA
ENDBRANCH   4   7
BRANCH   1  13
ATOM     12  N   UNL     1       2.070   7.906  19.642  0.00  0.00    +0.000 NA
ATOM     13  C   UNL     1       2.372   6.644  19.554  0.00  0.00    +0.000 C 
ATOM     14  C   UNL     1       1.855   5.553  20.472  0.00  0.00    +0.000 C 
BRANCH  12  17
ATOM     15  C   UNL     1       0.778   9.653  20.602  0.00  0.00    +0.000 C 
ATOM     16  O   UNL     1       1.014  10.512  19.764  0.00  0.00    +0.000 OA
ATOM     17  N   UNL     1       1.213   8.350  20.594  0.00  0.00    +0.000 N 
ATOM     18  H   UNL     1       0.991   7.810  21.414  0.00  0.00    +0.000 HD
BRANCH  15  19
ATOM     19  O   UNL     1       0.090   9.861  21.757  0.00  0.00    +0.000 OA
BRANCH  19  21
ATOM     20  C   UNL     1      -1.377  11.144  23.148  0.00  0.00    +0.000 C 
ATOM     21  C   UNL     1      -0.734  11.035  21.778  0.00  0.00    +0.000 C 
ENDBRANCH  19  21
ENDBRANCH  15  19
ENDBRANCH  12  17
ENDBRANCH   1  13
TORSDOF 5
ENDMDL
