MODEL 1
REMARK VINA RESULT:      -8.5      0.000      0.000
REMARK  Name = 
REMARK  4 active torsions:
REMARK  status: ('A' for Active; 'I' for Inactive)
REMARK    1  A    between atoms: O_1  and  C_2
REMARK    2  A    between atoms: C_4  and  C_5
REMARK    3  A    between atoms: C_4  and  C_11
REMARK    4  A    between atoms: C_5  and  N_6
REMARK                            x       y       z     vdW  Elec       q    Type
REMARK                         _______ _______ _______ _____ _____    ______ ____
ROOT
ATOM      1  C   UNL     1       2.817   3.692  17.587  0.00  0.00    +0.000 C 
ATOM      2  O   UNL     1       3.491   4.956  17.590  0.00  0.00    +0.000 OA
ATOM      3  C   UNL     1       3.538   5.540  18.937  0.00  0.00    +0.000 C 
ATOM      4  C   UNL     1       2.830   4.515  19.788  0.00  0.00    +0.000 A 
ATOM      5  C   UNL     1       2.576   4.508  21.154  0.00  0.00    +0.000 A 
ATOM      6  C   UNL     1       1.896   3.415  21.702  0.00  0.00    +0.000 A 
ATOM      7  C   UNL     1       1.481   2.350  20.892  0.00  0.00    +0.000 A 
ATOM      8  C   UNL     1       1.741   2.365  19.524  0.00  0.00    +0.000 A 
ATOM      9  C   UNL     1       2.416   3.454  18.992  0.00  0.00    +0.000 A 
ENDROOT
BRANCH   3  10
ATOM     10  C   UNL     1       2.820   6.898  18.922  0.00  0.00    +0.000 A 
ATOM     11  C   UNL     1       2.115   7.349  20.054  0.00  0.00    +0.000 A 
ATOM     12  C   UNL     1       1.387   8.543  20.027  0.00  0.00    +0.000 A 
ATOM     13  C   UNL     1       1.356   9.312  18.869  0.00  0.00    +0.000 A 
ATOM     14 CL   UNL     1       0.423  10.756  18.819  0.00  0.00    +0.000 Cl
ATOM     15  C   UNL     1       2.077   8.914  17.750  0.00  0.00    +0.000 A 
ATOM     16  C   UNL     1       2.818   7.727  17.784  0.00  0.00    +0.000 A 
ENDBRANCH   3  10
BRANCH   1  17
ATOM     17  O   UNL     1       1.678   3.764  16.764  0.00  0.00    +0.000 OA
ATOM     18  H   UNL     1       1.097   3.046  17.063  0.00  0.00    +0.000 HD
ENDBRANCH   1  17
BRANCH   3  19
ATOM     19  C   UNL     1       5.039   5.603  19.318  0.00  0.00    +0.000 C 
BRANCH  19  20
ATOM     20  N   UNL     1       5.927   5.549  18.171  0.00  0.00    +0.000 N 
ATOM     21  C   UNL     1       6.337   6.576  17.379  0.00  0.00    +0.000 A 
ATOM     22  N   UNL     1       7.176   6.126  16.475  0.00  0.00    +0.000 NA
ATOM     23  C   UNL     1       7.233   4.790  16.749  0.00  0.00    +0.000 A 
ATOM     24  N   UNL     1       6.446   4.378  17.748  0.00  0.00    +0.000 NA
ENDBRANCH  19  20
ENDBRANCH   3  19
TORSDOF 4
ENDMDL
MODEL 2
REMARK VINA RESULT:      -8.5      0.163      1.017
REMARK  Name = 
REMARK  4 active torsions:
REMARK  status: ('A' for Active; 'I' for Inactive)
REMARK    1  A    between atoms: O_1  and  C_2
REMARK    2  A    between atoms: C_4  and  C_5
REMARK    3  A    between atoms: C_4  and  C_11
REMARK    4  A    between atoms: C_5  and  N_6
REMARK                            x       y       z     vdW  Elec       q    Type
REMARK                         _______ _______ _______ _____ _____    ______ ____
ROOT
ATOM      1  C   UNL     1       2.942   3.643  17.612  0.00  0.00    +0.000 C 
ATOM      2  O   UNL     1       3.557   4.936  17.626  0.00  0.00    +0.000 OA
ATOM      3  C   UNL     1       3.528   5.533  18.968  0.00  0.00    +0.000 C 
ATOM      4  C   UNL     1       2.837   4.484  19.803  0.00  0.00    +0.000 A 
ATOM      5  C   UNL     1       2.534   4.476  21.160  0.00  0.00    +0.000 A 
ATOM      6  C   UNL     1       1.886   3.357  21.693  0.00  0.00    +0.000 A 
ATOM      7  C   UNL     1       1.550   2.267  20.880  0.00  0.00    +0.000 A 
ATOM      8  C   UNL     1       1.859   2.283  19.521  0.00  0.00    +0.000 A 
ATOM      9  C   UNL     1       2.502   3.398  19.003  0.00  0.00    +0.000 A 
ENDROOT
BRANCH   3  10
ATOM     10  C   UNL     1       2.748   6.856  18.914  0.00  0.00    +0.000 A 
ATOM     11  C   UNL     1       2.736   7.634  17.742  0.00  0.00    +0.000 A 
ATOM     12  C   UNL     1       2.102   8.881  17.704  0.00  0.00    +0.000 A 
ATOM     13  C   UNL     1       1.462   9.368  18.837  0.00  0.00    +0.000 A 
ATOM     14 CL   UNL     1       0.723  10.921  18.806  0.00  0.00    +0.000 Cl
ATOM     15  C   UNL     1       1.420   8.604  19.996  0.00  0.00    +0.000 A 
ATOM     16  C   UNL     1       2.042   7.351  20.028  0.00  0.00    +0.000 A 
ENDBRANCH   3  10
BRANCH   1  17
ATOM     17  O   UNL     1       1.831   3.655  16.747  0.00  0.00    +0.000 OA
ATOM     18  H   UNL     1       1.934   4.454  16.206  0.00  0.00    +0.000 HD
ENDBRANCH   1  17
BRANCH   3  19
ATOM     19  C   UNL     1       5.009   5.670  19.402  0.00  0.00    +0.000 C 
BRANCH  19  20
ATOM     20  N   UNL     1       5.945   5.537  18.301  0.00  0.00    +0.000 N 
ATOM     21  C   UNL     1       6.283   6.471  17.371  0.00  0.00    +0.000 A 
ATOM     22  N   UNL     1       7.201   5.982  16.570  0.00  0.00    +0.000 NA
ATOM     23  C   UNL     1       7.381   4.716  17.049  0.00  0.00    +0.000 A 
ATOM     24  N   UNL     1       6.598   4.379  18.079  0.00  0.00    +0.000 NA
ENDBRANCH  19  20
ENDBRANCH   3  19
TORSDOF 4
ENDMDL
MODEL 3
REMARK VINA RESULT:      -8.2      2.464      4.735
REMARK  Name = 
REMARK  4 active torsions:
REMARK  status: ('A' for Active; 'I' for Inactive)
REMARK    1  A    between atoms: O_1  and  C_2
REMARK    2  A    between atoms: C_4  and  C_5
REMARK    3  A    between atoms: C_4  and  C_11
REMARK    4  A    between atoms: C_5  and  N_6
REMARK                            x       y       z     vdW  Elec       q    Type
REMARK                         _______ _______ _______ _____ _____    ______ ____
ROOT
ATOM      1  C   UNL     1       6.251   4.536  19.244  0.00  0.00    +0.000 C 
ATOM      2  O   UNL     1       4.888   4.683  19.655  0.00  0.00    +0.000 OA
ATOM      3  C   UNL     1       3.996   4.890  18.506  0.00  0.00    +0.000 C 
ATOM      4  C   UNL     1       4.934   4.855  17.325  0.00  0.00    +0.000 A 
ATOM      5  C   UNL     1       4.668   4.982  15.967  0.00  0.00    +0.000 A 
ATOM      6  C   UNL     1       5.735   4.902  15.066  0.00  0.00    +0.000 A 
ATOM      7  C   UNL     1       7.044   4.699  15.522  0.00  0.00    +0.000 A 
ATOM      8  C   UNL     1       7.302   4.572  16.885  0.00  0.00    +0.000 A 
ATOM      9  C   UNL     1       6.235   4.653  17.769  0.00  0.00    +0.000 A 
ENDROOT
BRANCH   3  10
ATOM     10  C   UNL     1       3.285   6.244  18.659  0.00  0.00    +0.000 A 
ATOM     11  C   UNL     1       2.579   6.554  19.836  0.00  0.00    +0.000 A 
ATOM     12  C   UNL     1       1.857   7.746  19.957  0.00  0.00    +0.000 A 
ATOM     13  C   UNL     1       1.834   8.653  18.904  0.00  0.00    +0.000 A 
ATOM     14 CL   UNL     1       0.908  10.097  19.032  0.00  0.00    +0.000 Cl
ATOM     15  C   UNL     1       2.556   8.394  17.746  0.00  0.00    +0.000 A 
ATOM     16  C   UNL     1       3.290   7.208  17.632  0.00  0.00    +0.000 A 
ENDBRANCH   3  10
BRANCH   1  17
ATOM     17  O   UNL     1       7.029   5.568  19.803  0.00  0.00    +0.000 OA
ATOM     18  H   UNL     1       7.878   5.534  19.333  0.00  0.00    +0.000 HD
ENDBRANCH   1  17
BRANCH   3  19
ATOM     19  C   UNL     1       3.053   3.661  18.475  0.00  0.00    +0.000 C 
BRANCH  19  20
ATOM     20  N   UNL     1       2.620   3.235  19.793  0.00  0.00    +0.000 N 
ATOM     21  C   UNL     1       3.364   2.649  20.771  0.00  0.00    +0.000 A 
ATOM     22  N   UNL     1       2.619   2.460  21.835  0.00  0.00    +0.000 NA
ATOM     23  C   UNL     1       1.401   2.939  21.445  0.00  0.00    +0.000 A 
ATOM     24  N   UNL     1       1.338   3.379  20.184  0.00  0.00    +0.000 NA
ENDBRANCH  19  20
ENDBRANCH   3  19
TORSDOF 4
ENDMDL
MODEL 4
REMARK VINA RESULT:      -8.1      2.492      4.861
REMARK  Name = 
REMARK  4 active torsions:
REMARK  status: ('A' for Active; 'I' for Inactive)
REMARK    1  A    between atoms: O_1  and  C_2
REMARK    2  A    between atoms: C_4  and  C_5
REMARK    3  A    between atoms: C_4  and  C_11
REMARK    4  A    between atoms: C_5  and  N_6
REMARK                            x       y       z     vdW  Elec       q    Type
REMARK                         _______ _______ _______ _____ _____    ______ ____
ROOT
ATOM      1  C   UNL     1       6.255   4.525  19.237  0.00  0.00    +0.000 C 
ATOM      2  O   UNL     1       4.889   4.612  19.656  0.00  0.00    +0.000 OA
ATOM      3  C   UNL     1       3.981   4.761  18.511  0.00  0.00    +0.000 C 
ATOM      4  C   UNL     1       4.911   4.754  17.324  0.00  0.00    +0.000 A 
ATOM      5  C   UNL     1       4.630   4.849  15.966  0.00  0.00    +0.000 A 
ATOM      6  C   UNL     1       5.694   4.807  15.058  0.00  0.00    +0.000 A 
ATOM      7  C   UNL     1       7.014   4.674  15.507  0.00  0.00    +0.000 A 
ATOM      8  C   UNL     1       7.287   4.579  16.870  0.00  0.00    +0.000 A 
ATOM      9  C   UNL     1       6.223   4.620  17.761  0.00  0.00    +0.000 A 
ENDROOT
BRANCH   3  10
ATOM     10  C   UNL     1       3.206   6.081  18.651  0.00  0.00    +0.000 A 
ATOM     11  C   UNL     1       3.188   7.017  17.600  0.00  0.00    +0.000 A 
ATOM     12  C   UNL     1       2.559   8.258  17.744  0.00  0.00    +0.000 A 
ATOM     13  C   UNL     1       1.929   8.582  18.940  0.00  0.00    +0.000 A 
ATOM     14 CL   UNL     1       1.196  10.126  19.135  0.00  0.00    +0.000 Cl
ATOM     15  C   UNL     1       1.894   7.662  19.980  0.00  0.00    +0.000 A 
ATOM     16  C   UNL     1       2.510   6.415  19.829  0.00  0.00    +0.000 A 
ENDBRANCH   3  10
BRANCH   1  17
ATOM     17  O   UNL     1       6.986   5.600  19.776  0.00  0.00    +0.000 OA
ATOM     18  H   UNL     1       7.098   6.228  19.045  0.00  0.00    +0.000 HD
ENDBRANCH   1  17
BRANCH   3  19
ATOM     19  C   UNL     1       3.097   3.488  18.503  0.00  0.00    +0.000 C 
BRANCH  19  20
ATOM     20  N   UNL     1       2.615   3.115  19.820  0.00  0.00    +0.000 N 
ATOM     21  C   UNL     1       3.332   2.624  20.868  0.00  0.00    +0.000 A 
ATOM     22  N   UNL     1       2.542   2.456  21.902  0.00  0.00    +0.000 NA
ATOM     23  C   UNL     1       1.325   2.849  21.423  0.00  0.00    +0.000 A 
ATOM     24  N   UNL     1       1.308   3.214  20.137  0.00  0.00    +0.000 NA
ENDBRANCH  19  20
ENDBRANCH   3  19
TORSDOF 4
ENDMDL
MODEL 5
REMARK VINA RESULT:      -8.0      2.485      4.915
REMARK  Name = 
REMARK  4 active torsions:
REMARK  status: ('A' for Active; 'I' for Inactive)
REMARK    1  A    between atoms: O_1  and  C_2
REMARK    2  A    between atoms: C_4  and  C_5
REMARK    3  A    between atoms: C_4  and  C_11
REMARK    4  A    between atoms: C_5  and  N_6
REMARK                            x       y       z     vdW  Elec       q    Type
REMARK                         _______ _______ _______ _____ _____    ______ ____
ROOT
ATOM      1  C   UNL     1       7.283   5.130  18.480  0.00  0.00    +0.000 C 
ATOM      2  O   UNL     1       6.127   5.026  19.318  0.00  0.00    +0.000 OA
ATOM      3  C   UNL     1       4.925   4.693  18.542  0.00  0.00    +0.000 C 
ATOM      4  C   UNL     1       5.439   4.592  17.128  0.00  0.00    +0.000 A 
ATOM      5  C   UNL     1       4.765   4.288  15.950  0.00  0.00    +0.000 A 
ATOM      6  C   UNL     1       5.492   4.251  14.755  0.00  0.00    +0.000 A 
ATOM      7  C   UNL     1       6.867   4.515  14.744  0.00  0.00    +0.000 A 
ATOM      8  C   UNL     1       7.535   4.818  15.929  0.00  0.00    +0.000 A 
ATOM      9  C   UNL     1       6.804   4.851  17.108  0.00  0.00    +0.000 A 
ENDROOT
BRANCH   3  10
ATOM     10  C   UNL     1       3.886   5.812  18.717  0.00  0.00    +0.000 A 
ATOM     11  C   UNL     1       3.693   6.775  17.710  0.00  0.00    +0.000 A 
ATOM     12  C   UNL     1       2.813   7.848  17.891  0.00  0.00    +0.000 A 
ATOM     13  C   UNL     1       2.103   7.971  19.080  0.00  0.00    +0.000 A 
ATOM     14 CL   UNL     1       1.056   9.314  19.322  0.00  0.00    +0.000 Cl
ATOM     15  C   UNL     1       2.241   7.012  20.075  0.00  0.00    +0.000 A 
ATOM     16  C   UNL     1       3.111   5.932  19.887  0.00  0.00    +0.000 A 
ENDBRANCH   3  10
BRANCH   1  17
ATOM     17  O   UNL     1       7.807   6.435  18.554  0.00  0.00    +0.000 OA
ATOM     18  H   UNL     1       7.310   6.950  17.898  0.00  0.00    +0.000 HD
ENDBRANCH   1  17
BRANCH   3  19
ATOM     19  C   UNL     1       4.469   3.300  19.045  0.00  0.00    +0.000 C 
BRANCH  19  20
ATOM     20  N   UNL     1       3.036   3.091  18.941  0.00  0.00    +0.000 N 
ATOM     21  C   UNL     1       2.273   3.062  17.815  0.00  0.00    +0.000 A 
ATOM     22  N   UNL     1       1.027   2.799  18.135  0.00  0.00    +0.000 NA
ATOM     23  C   UNL     1       1.077   2.693  19.495  0.00  0.00    +0.000 A 
ATOM     24  N   UNL     1       2.278   2.913  20.041  0.00  0.00    +0.000 NA
ENDBRANCH  19  20
ENDBRANCH   3  19
TORSDOF 4
ENDMDL
MODEL 6
REMARK VINA RESULT:      -7.9      3.120      4.829
REMARK  Name = 
REMARK  4 active torsions:
REMARK  status: ('A' for Active; 'I' for Inactive)
REMARK    1  A    between atoms: O_1  and  C_2
REMARK    2  A    between atoms: C_4  and  C_5
REMARK    3  A    between atoms: C_4  and  C_11
REMARK    4  A    between atoms: C_5  and  N_6
REMARK                            x       y       z     vdW  Elec       q    Type
REMARK                         _______ _______ _______ _____ _____    ______ ____
ROOT
ATOM      1  C   UNL     1       4.421   2.450  20.034  0.00  0.00    +0.000 C 
ATOM      2  O   UNL     1       5.270   3.524  19.616  0.00  0.00    +0.000 OA
ATOM      3  C   UNL     1       4.572   4.440  18.703  0.00  0.00    +0.000 C 
ATOM      4  C   UNL     1       3.193   3.837  18.590  0.00  0.00    +0.000 A 
ATOM      5  C   UNL     1       2.084   4.270  17.873  0.00  0.00    +0.000 A 
ATOM      6  C   UNL     1       0.905   3.520  17.950  0.00  0.00    +0.000 A 
ATOM      7  C   UNL     1       0.843   2.359  18.730  0.00  0.00    +0.000 A 
ATOM      8  C   UNL     1       1.960   1.933  19.446  0.00  0.00    +0.000 A 
ATOM      9  C   UNL     1       3.123   2.685  19.364  0.00  0.00    +0.000 A 
ENDROOT
BRANCH   3  10
ATOM     10  C   UNL     1       5.316   4.474  17.358  0.00  0.00    +0.000 A 
ATOM     11  C   UNL     1       6.640   4.944  17.284  0.00  0.00    +0.000 A 
ATOM     12  C   UNL     1       7.301   5.061  16.056  0.00  0.00    +0.000 A 
ATOM     13  C   UNL     1       6.651   4.703  14.881  0.00  0.00    +0.000 A 
ATOM     14 CL   UNL     1       7.444   4.891  13.367  0.00  0.00    +0.000 Cl
ATOM     15  C   UNL     1       5.358   4.196  14.928  0.00  0.00    +0.000 A 
ATOM     16  C   UNL     1       4.704   4.065  16.158  0.00  0.00    +0.000 A 
ENDBRANCH   3  10
BRANCH   1  17
ATOM     17  O   UNL     1       4.968   1.222  19.614  0.00  0.00    +0.000 OA
ATOM     18  H   UNL     1       4.728   1.141  18.677  0.00  0.00    +0.000 HD
ENDBRANCH   1  17
BRANCH   3  19
ATOM     19  C   UNL     1       4.501   5.800  19.441  0.00  0.00    +0.000 C 
BRANCH  19  20
ATOM     20  N   UNL     1       3.655   6.773  18.773  0.00  0.00    +0.000 N 
ATOM     21  C   UNL     1       3.845   7.356  17.558  0.00  0.00    +0.000 A 
ATOM     22  N   UNL     1       2.832   8.145  17.286  0.00  0.00    +0.000 NA
ATOM     23  C   UNL     1       2.042   8.022  18.393  0.00  0.00    +0.000 A 
ATOM     24  N   UNL     1       2.528   7.231  19.355  0.00  0.00    +0.000 NA
ENDBRANCH  19  20
ENDBRANCH   3  19
TORSDOF 4
ENDMDL
MODEL 7
REMARK VINA RESULT:      -7.8      2.482      4.804
REMARK  Name = 
REMARK  4 active torsions:
REMARK  status: ('A' for Active; 'I' for Inactive)
REMARK    1  A    between atoms: O_1  and  C_2
REMARK    2  A    between atoms: C_4  and  C_5
REMARK    3  A    between atoms: C_4  and  C_11
REMARK    4  A    between atoms: C_5  and  N_6
REMARK                            x       y       z     vdW  Elec       q    Type
REMARK                         _______ _______ _______ _____ _____    ______ ____
ROOT
ATOM      1  C   UNL     1       7.318   5.058  18.451  0.00  0.00    +0.000 C 
ATOM      2  O   UNL     1       6.159   5.012  19.291  0.00  0.00    +0.000 OA
ATOM      3  C   UNL     1       4.939   4.752  18.515  0.00  0.00    +0.000 C 
ATOM      4  C   UNL     1       5.445   4.634  17.099  0.00  0.00    +0.000 A 
ATOM      5  C   UNL     1       4.753   4.377  15.920  0.00  0.00    +0.000 A 
ATOM      6  C   UNL     1       5.474   4.310  14.723  0.00  0.00    +0.000 A 
ATOM      7  C   UNL     1       6.862   4.497  14.711  0.00  0.00    +0.000 A 
ATOM      8  C   UNL     1       7.548   4.752  15.897  0.00  0.00    +0.000 A 
ATOM      9  C   UNL     1       6.822   4.817  17.078  0.00  0.00    +0.000 A 
ENDROOT
BRANCH   3  10
ATOM     10  C   UNL     1       3.965   5.926  18.701  0.00  0.00    +0.000 A 
ATOM     11  C   UNL     1       3.190   6.035  19.871  0.00  0.00    +0.000 A 
ATOM     12  C   UNL     1       2.238   7.050  20.019  0.00  0.00    +0.000 A 
ATOM     13  C   UNL     1       2.050   7.979  19.001  0.00  0.00    +0.000 A 
ATOM     14 CL   UNL     1       0.847   9.198  19.161  0.00  0.00    +0.000 Cl
ATOM     15  C   UNL     1       2.830   7.921  17.853  0.00  0.00    +0.000 A 
ATOM     16  C   UNL     1       3.792   6.915  17.714  0.00  0.00    +0.000 A 
ENDBRANCH   3  10
BRANCH   1  17
ATOM     17  O   UNL     1       7.914   6.331  18.534  0.00  0.00    +0.000 OA
ATOM     18  H   UNL     1       7.400   6.813  19.202  0.00  0.00    +0.000 HD
ENDBRANCH   1  17
BRANCH   3  19
ATOM     19  C   UNL     1       4.408   3.383  19.008  0.00  0.00    +0.000 C 
BRANCH  19  20
ATOM     20  N   UNL     1       2.969   3.242  18.873  0.00  0.00    +0.000 N 
ATOM     21  C   UNL     1       2.224   3.297  17.736  0.00  0.00    +0.000 A 
ATOM     22  N   UNL     1       0.963   3.075  18.025  0.00  0.00    +0.000 NA
ATOM     23  C   UNL     1       0.986   2.904  19.379  0.00  0.00    +0.000 A 
ATOM     24  N   UNL     1       2.186   3.047  19.952  0.00  0.00    +0.000 NA
ENDBRANCH  19  20
ENDBRANCH   3  19
TORSDOF 4
ENDMDL
MODEL 8
REMARK VINA RESULT:      -7.5      3.170      4.868
REMARK  Name = 
REMARK  4 active torsions:
REMARK  status: ('A' for Active; 'I' for Inactive)
REMARK    1  A    between atoms: O_1  and  C_2
REMARK    2  A    between atoms: C_4  and  C_5
REMARK    3  A    between atoms: C_4  and  C_11
REMARK    4  A    between atoms: C_5  and  N_6
REMARK                            x       y       z     vdW  Elec       q    Type
REMARK                         _______ _______ _______ _____ _____    ______ ____
ROOT
ATOM      1  C   UNL     1       4.359   2.322  19.902  0.00  0.00    +0.000 C 
ATOM      2  O   UNL     1       5.214   3.401  19.507  0.00  0.00    +0.000 OA
ATOM      3  C   UNL     1       4.501   4.378  18.674  0.00  0.00    +0.000 C 
ATOM      4  C   UNL     1       3.106   3.811  18.586  0.00  0.00    +0.000 A 
ATOM      5  C   UNL     1       1.978   4.304  17.940  0.00  0.00    +0.000 A 
ATOM      6  C   UNL     1       0.787   3.575  18.024  0.00  0.00    +0.000 A 
ATOM      7  C   UNL     1       0.731   2.374  18.743  0.00  0.00    +0.000 A 
ATOM      8  C   UNL     1       1.866   1.888  19.389  0.00  0.00    +0.000 A 
ATOM      9  C   UNL     1       3.042   2.620  19.299  0.00  0.00    +0.000 A 
ENDROOT
BRANCH   3  10
ATOM     10  C   UNL     1       5.191   4.471  17.304  0.00  0.00    +0.000 A 
ATOM     11  C   UNL     1       4.501   4.125  16.128  0.00  0.00    +0.000 A 
ATOM     12  C   UNL     1       5.141   4.124  14.884  0.00  0.00    +0.000 A 
ATOM     13  C   UNL     1       6.482   4.477  14.793  0.00  0.00    +0.000 A 
ATOM     14 CL   UNL     1       7.283   4.430  13.272  0.00  0.00    +0.000 Cl
ATOM     15  C   UNL     1       7.178   4.865  15.931  0.00  0.00    +0.000 A 
ATOM     16  C   UNL     1       6.533   4.880  17.172  0.00  0.00    +0.000 A 
ENDBRANCH   3  10
BRANCH   1  17
ATOM     17  O   UNL     1       4.861   1.109  19.394  0.00  0.00    +0.000 OA
ATOM     18  H   UNL     1       5.754   1.313  19.075  0.00  0.00    +0.000 HD
ENDBRANCH   1  17
BRANCH   3  19
ATOM     19  C   UNL     1       4.490   5.698  19.486  0.00  0.00    +0.000 C 
BRANCH  19  20
ATOM     20  N   UNL     1       3.621   6.714  18.920  0.00  0.00    +0.000 N 
ATOM     21  C   UNL     1       3.745   7.351  17.724  0.00  0.00    +0.000 A 
ATOM     22  N   UNL     1       2.732   8.168  17.553  0.00  0.00    +0.000 NA
ATOM     23  C   UNL     1       2.012   8.005  18.702  0.00  0.00    +0.000 A 
ATOM     24  N   UNL     1       2.542   7.161  19.593  0.00  0.00    +0.000 NA
ENDBRANCH  19  20
ENDBRANCH   3  19
TORSDOF 4
ENDMDL
MODEL 9
REMARK VINA RESULT:      -7.4      2.368      4.783
REMARK  Name = 
REMARK  4 active torsions:
REMARK  status: ('A' for Active; 'I' for Inactive)
REMARK    1  A    between atoms: O_1  and  C_2
REMARK    2  A    between atoms: C_4  and  C_5
REMARK    3  A    between atoms: C_4  and  C_11
REMARK    4  A    between atoms: C_5  and  N_6
REMARK                            x       y       z     vdW  Elec       q    Type
REMARK                         _______ _______ _______ _____ _____    ______ ____
ROOT
ATOM      1  C   UNL     1       6.657   4.749  18.843  0.00  0.00    +0.000 C 
ATOM      2  O   UNL     1       5.328   4.773  19.376  0.00  0.00    +0.000 OA
ATOM      3  C   UNL     1       4.319   4.812  18.308  0.00  0.00    +0.000 C 
ATOM      4  C   UNL     1       5.145   4.805  17.046  0.00  0.00    +0.000 A 
ATOM      5  C   UNL     1       4.745   4.817  15.715  0.00  0.00    +0.000 A 
ATOM      6  C   UNL     1       5.730   4.797  14.721  0.00  0.00    +0.000 A 
ATOM      7  C   UNL     1       7.089   4.766  15.058  0.00  0.00    +0.000 A 
ATOM      8  C   UNL     1       7.481   4.752  16.395  0.00  0.00    +0.000 A 
ATOM      9  C   UNL     1       6.495   4.772  17.373  0.00  0.00    +0.000 A 
ENDROOT
BRANCH   3  10
ATOM     10  C   UNL     1       3.476   6.087  18.458  0.00  0.00    +0.000 A 
ATOM     11  C   UNL     1       3.513   7.092  17.474  0.00  0.00    +0.000 A 
ATOM     12  C   UNL     1       2.818   8.295  17.637  0.00  0.00    +0.000 A 
ATOM     13  C   UNL     1       2.064   8.511  18.786  0.00  0.00    +0.000 A 
ATOM     14 CL   UNL     1       1.246  10.007  19.010  0.00  0.00    +0.000 Cl
ATOM     15  C   UNL     1       1.974   7.519  19.755  0.00  0.00    +0.000 A 
ATOM     16  C   UNL     1       2.658   6.311  19.583  0.00  0.00    +0.000 A 
ENDBRANCH   3  10
BRANCH   1  17
ATOM     17  O   UNL     1       7.360   5.891  19.271  0.00  0.00    +0.000 OA
ATOM     18  H   UNL     1       6.873   6.220  20.043  0.00  0.00    +0.000 HD
ENDBRANCH   1  17
BRANCH   3  19
ATOM     19  C   UNL     1       3.522   3.488  18.431  0.00  0.00    +0.000 C 
BRANCH  19  20
ATOM     20  N   UNL     1       3.592   2.896  19.755  0.00  0.00    +0.000 N 
ATOM     21  C   UNL     1       2.722   3.053  20.790  0.00  0.00    +0.000 A 
ATOM     22  N   UNL     1       3.108   2.313  21.804  0.00  0.00    +0.000 NA
ATOM     23  C   UNL     1       4.250   1.727  21.337  0.00  0.00    +0.000 A 
ATOM     24  N   UNL     1       4.615   2.092  20.104  0.00  0.00    +0.000 NA
ENDBRANCH  19  20
ENDBRANCH   3  19
TORSDOF 4
ENDMDL
