MODEL 1
REMARK VINA RESULT:      -7.4      0.000      0.000
REMARK  Name = 
REMARK  5 active torsions:
REMARK  status: ('A' for Active; 'I' for Inactive)
REMARK    1  A    between atoms: C_1  and  S_2
REMARK    2  A    between atoms: S_2  and  N_5
REMARK    3  A    between atoms: C_12  and  N_13
REMARK    4  A    between atoms: N_13  and  C_14
REMARK    5  A    between atoms: C_14  and  C_15
REMARK                            x       y       z     vdW  Elec       q    Type
REMARK                         _______ _______ _______ _____ _____    ______ ____
ROOT
ATOM      1  N   UNL     1       6.419   5.954  16.950  0.00  0.00    +0.000 NA
ATOM      2  C   UNL     1       5.091   6.498  16.608  0.00  0.00    +0.000 C 
ATOM      3  C   UNL     1       3.993   5.603  17.172  0.00  0.00    +0.000 C 
ATOM      4  C   UNL     1       4.106   5.435  18.700  0.00  0.00    +0.000 C 
ATOM      5  C   UNL     1       5.532   4.988  19.089  0.00  0.00    +0.000 C 
ATOM      6  C   UNL     1       6.639   5.795  18.408  0.00  0.00    +0.000 C 
ATOM      7  C   UNL     1       3.735   6.740  19.466  0.00  0.00    +0.000 C 
ATOM      8  C   UNL     1       2.321   6.594  20.078  0.00  0.00    +0.000 C 
ATOM      9  C   UNL     1       2.064   5.120  19.949  0.00  0.00    +0.000 A 
ATOM     10  C   UNL     1       0.990   4.403  20.474  0.00  0.00    +0.000 A 
ATOM     11  C   UNL     1       0.852   3.050  20.168  0.00  0.00    +0.000 A 
ATOM     12  C   UNL     1       1.817   2.407  19.388  0.00  0.00    +0.000 A 
ATOM     13  C   UNL     1       2.923   3.114  18.908  0.00  0.00    +0.000 A 
ATOM     14  C   UNL     1       3.041   4.475  19.187  0.00  0.00    +0.000 A 
ENDROOT
BRANCH   1  16
ATOM     15  C   UNL     1       5.825   3.855  15.343  0.00  0.00    +0.000 C 
ATOM     16  S   UNL     1       7.166   4.901  15.874  0.00  0.00    +0.000 S 
ATOM     17  O   UNL     1       8.127   4.098  16.604  0.00  0.00    +0.000 OA
ATOM     18  O   UNL     1       7.607   5.650  14.724  0.00  0.00    +0.000 OA
ENDBRANCH   1  16
BRANCH   8  19
ATOM     19  N   UNL     1       1.402   7.446  19.323  0.00  0.00    +0.000 NA
ATOM     20  H   UNL     1       0.470   7.038  19.356  0.00  0.00    +0.000 HD
BRANCH  19  21
ATOM     21  C   UNL     1       1.337   8.810  19.827  0.00  0.00    +0.000 C 
BRANCH  21  22
ATOM     22  C   UNL     1       1.069   8.753  21.297  0.00  0.00    +0.000 C 
ATOM     23  C   UNL     1       0.310   9.857  21.998  0.00  0.00    +0.000 C 
ATOM     24  C   UNL     1      -0.342   8.521  21.785  0.00  0.00    +0.000 C 
ENDBRANCH  21  22
ENDBRANCH  19  21
ENDBRANCH   8  19
TORSDOF 4
ENDMDL
MODEL 2
REMARK VINA RESULT:      -7.3      1.161      1.535
REMARK  Name = 
REMARK  5 active torsions:
REMARK  status: ('A' for Active; 'I' for Inactive)
REMARK    1  A    between atoms: C_1  and  S_2
REMARK    2  A    between atoms: S_2  and  N_5
REMARK    3  A    between atoms: C_12  and  N_13
REMARK    4  A    between atoms: N_13  and  C_14
REMARK    5  A    between atoms: C_14  and  C_15
REMARK                            x       y       z     vdW  Elec       q    Type
REMARK                         _______ _______ _______ _____ _____    ______ ____
ROOT
ATOM      1  N   UNL     1       6.401   5.773  17.331  0.00  0.00    +0.000 NA
ATOM      2  C   UNL     1       5.105   6.408  17.023  0.00  0.00    +0.000 C 
ATOM      3  C   UNL     1       3.961   5.454  17.348  0.00  0.00    +0.000 C 
ATOM      4  C   UNL     1       3.979   5.001  18.821  0.00  0.00    +0.000 C 
ATOM      5  C   UNL     1       5.371   4.450  19.198  0.00  0.00    +0.000 C 
ATOM      6  C   UNL     1       6.531   5.338  18.743  0.00  0.00    +0.000 C 
ATOM      7  C   UNL     1       3.585   6.151  19.797  0.00  0.00    +0.000 C 
ATOM      8  C   UNL     1       2.134   5.933  20.290  0.00  0.00    +0.000 C 
ATOM      9  C   UNL     1       1.860   4.516  19.872  0.00  0.00    +0.000 A 
ATOM     10  C   UNL     1       0.745   3.745  20.192  0.00  0.00    +0.000 A 
ATOM     11  C   UNL     1       0.602   2.477  19.631  0.00  0.00    +0.000 A 
ATOM     12  C   UNL     1       1.601   1.964  18.799  0.00  0.00    +0.000 A 
ATOM     13  C   UNL     1       2.746   2.717  18.523  0.00  0.00    +0.000 A 
ATOM     14  C   UNL     1       2.870   3.998  19.059  0.00  0.00    +0.000 A 
ENDROOT
BRANCH   1  16
ATOM     15  C   UNL     1       5.917   3.848  15.487  0.00  0.00    +0.000 C 
ATOM     16  S   UNL     1       7.193   4.918  16.120  0.00  0.00    +0.000 S 
ATOM     17  O   UNL     1       8.228   4.105  16.728  0.00  0.00    +0.000 OA
ATOM     18  O   UNL     1       7.549   5.833  15.064  0.00  0.00    +0.000 OA
ENDBRANCH   1  16
BRANCH   8  19
ATOM     19  N   UNL     1       1.277   6.936  19.658  0.00  0.00    +0.000 NA
ATOM     20  H   UNL     1       0.409   7.009  20.185  0.00  0.00    +0.000 HD
BRANCH  19  21
ATOM     21  C   UNL     1       1.893   8.253  19.582  0.00  0.00    +0.000 C 
BRANCH  21  22
ATOM     22  C   UNL     1       1.545   8.857  18.258  0.00  0.00    +0.000 C 
ATOM     23  C   UNL     1       0.546   9.985  18.150  0.00  0.00    +0.000 C 
ATOM     24  C   UNL     1       2.007  10.259  17.938  0.00  0.00    +0.000 C 
ENDBRANCH  21  22
ENDBRANCH  19  21
ENDBRANCH   8  19
TORSDOF 4
ENDMDL
MODEL 3
REMARK VINA RESULT:      -7.1      0.983      1.114
REMARK  Name = 
REMARK  5 active torsions:
REMARK  status: ('A' for Active; 'I' for Inactive)
REMARK    1  A    between atoms: C_1  and  S_2
REMARK    2  A    between atoms: S_2  and  N_5
REMARK    3  A    between atoms: C_12  and  N_13
REMARK    4  A    between atoms: N_13  and  C_14
REMARK    5  A    between atoms: C_14  and  C_15
REMARK                            x       y       z     vdW  Elec       q    Type
REMARK                         _______ _______ _______ _____ _____    ______ ____
ROOT
ATOM      1  N   UNL     1       5.788   6.051  17.037  0.00  0.00    +0.000 NA
ATOM      2  C   UNL     1       4.471   6.707  17.140  0.00  0.00    +0.000 C 
ATOM      3  C   UNL     1       3.390   5.674  17.439  0.00  0.00    +0.000 C 
ATOM      4  C   UNL     1       3.678   4.886  18.732  0.00  0.00    +0.000 C 
ATOM      5  C   UNL     1       5.105   4.298  18.697  0.00  0.00    +0.000 C 
ATOM      6  C   UNL     1       6.175   5.298  18.255  0.00  0.00    +0.000 C 
ATOM      7  C   UNL     1       3.500   5.761  20.009  0.00  0.00    +0.000 C 
ATOM      8  C   UNL     1       2.165   5.395  20.702  0.00  0.00    +0.000 C 
ATOM      9  C   UNL     1       1.789   4.111  20.019  0.00  0.00    +0.000 A 
ATOM     10  C   UNL     1       0.739   3.256  20.352  0.00  0.00    +0.000 A 
ATOM     11  C   UNL     1       0.467   2.155  19.543  0.00  0.00    +0.000 A 
ATOM     12  C   UNL     1       1.279   1.879  18.440  0.00  0.00    +0.000 A 
ATOM     13  C   UNL     1       2.366   2.706  18.139  0.00  0.00    +0.000 A 
ATOM     14  C   UNL     1       2.615   3.826  18.930  0.00  0.00    +0.000 A 
ENDROOT
BRANCH   1  16
ATOM     15  C   UNL     1       5.978   3.780  15.571  0.00  0.00    +0.000 C 
ATOM     16  S   UNL     1       6.318   5.529  15.531  0.00  0.00    +0.000 S 
ATOM     17  O   UNL     1       7.753   5.725  15.451  0.00  0.00    +0.000 OA
ATOM     18  O   UNL     1       5.474   6.107  14.516  0.00  0.00    +0.000 OA
ENDBRANCH   1  16
BRANCH   8  19
ATOM     19  N   UNL     1       1.223   6.497  20.500  0.00  0.00    +0.000 NA
ATOM     20  H   UNL     1       0.510   6.458  21.224  0.00  0.00    +0.000 HD
BRANCH  19  21
ATOM     21  C   UNL     1       1.857   7.807  20.533  0.00  0.00    +0.000 C 
BRANCH  21  22
ATOM     22  C   UNL     1       1.219   8.608  21.623  0.00  0.00    +0.000 C 
ATOM     23  C   UNL     1       0.431   9.860  21.317  0.00  0.00    +0.000 C 
ATOM     24  C   UNL     1      -0.286   8.616  21.755  0.00  0.00    +0.000 C 
ENDBRANCH  21  22
ENDBRANCH  19  21
ENDBRANCH   8  19
TORSDOF 4
ENDMDL
MODEL 4
REMARK VINA RESULT:      -6.8      0.977      1.130
REMARK  Name = 
REMARK  5 active torsions:
REMARK  status: ('A' for Active; 'I' for Inactive)
REMARK    1  A    between atoms: C_1  and  S_2
REMARK    2  A    between atoms: S_2  and  N_5
REMARK    3  A    between atoms: C_12  and  N_13
REMARK    4  A    between atoms: N_13  and  C_14
REMARK    5  A    between atoms: C_14  and  C_15
REMARK                            x       y       z     vdW  Elec       q    Type
REMARK                         _______ _______ _______ _____ _____    ______ ____
ROOT
ATOM      1  N   UNL     1       6.273   5.574  16.619  0.00  0.00    +0.000 NA
ATOM      2  C   UNL     1       5.071   6.428  16.662  0.00  0.00    +0.000 C 
ATOM      3  C   UNL     1       3.860   5.613  17.103  0.00  0.00    +0.000 C 
ATOM      4  C   UNL     1       4.073   4.950  18.478  0.00  0.00    +0.000 C 
ATOM      5  C   UNL     1       5.395   4.153  18.492  0.00  0.00    +0.000 C 
ATOM      6  C   UNL     1       6.585   4.920  17.913  0.00  0.00    +0.000 C 
ATOM      7  C   UNL     1       4.070   5.986  19.640  0.00  0.00    +0.000 C 
ATOM      8  C   UNL     1       2.720   5.911  20.395  0.00  0.00    +0.000 C 
ATOM      9  C   UNL     1       2.135   4.627  19.880  0.00  0.00    +0.000 A 
ATOM     10  C   UNL     1       0.982   3.986  20.332  0.00  0.00    +0.000 A 
ATOM     11  C   UNL     1       0.523   2.850  19.668  0.00  0.00    +0.000 A 
ATOM     12  C   UNL     1       1.247   2.326  18.594  0.00  0.00    +0.000 A 
ATOM     13  C   UNL     1       2.433   2.938  18.177  0.00  0.00    +0.000 A 
ATOM     14  C   UNL     1       2.872   4.093  18.821  0.00  0.00    +0.000 A 
ENDROOT
BRANCH   1  16
ATOM     15  C   UNL     1       5.358   5.307  14.083  0.00  0.00    +0.000 C 
ATOM     16  S   UNL     1       6.668   4.803  15.180  0.00  0.00    +0.000 S 
ATOM     17  O   UNL     1       6.583   3.369  15.383  0.00  0.00    +0.000 OA
ATOM     18  O   UNL     1       7.893   5.367  14.673  0.00  0.00    +0.000 OA
ENDBRANCH   1  16
BRANCH   8  19
ATOM     19  N   UNL     1       1.945   7.110  20.074  0.00  0.00    +0.000 NA
ATOM     20  H   UNL     1       1.133   6.841  19.523  0.00  0.00    +0.000 HD
BRANCH  19  21
ATOM     21  C   UNL     1       1.494   7.835  21.253  0.00  0.00    +0.000 C 
BRANCH  21  22
ATOM     22  C   UNL     1       0.493   8.858  20.820  0.00  0.00    +0.000 C 
ATOM     23  C   UNL     1       0.696  10.327  21.114  0.00  0.00    +0.000 C 
ATOM     24  C   UNL     1       0.848   9.819  19.709  0.00  0.00    +0.000 C 
ENDBRANCH  21  22
ENDBRANCH  19  21
ENDBRANCH   8  19
TORSDOF 4
ENDMDL
MODEL 5
REMARK VINA RESULT:      -6.7      3.609      6.331
REMARK  Name = 
REMARK  5 active torsions:
REMARK  status: ('A' for Active; 'I' for Inactive)
REMARK    1  A    between atoms: C_1  and  S_2
REMARK    2  A    between atoms: S_2  and  N_5
REMARK    3  A    between atoms: C_12  and  N_13
REMARK    4  A    between atoms: N_13  and  C_14
REMARK    5  A    between atoms: C_14  and  C_15
REMARK                            x       y       z     vdW  Elec       q    Type
REMARK                         _______ _______ _______ _____ _____    ______ ____
ROOT
ATOM      1  N   UNL     1       2.546   4.322  19.762  0.00  0.00    +0.000 NA
ATOM      2  C   UNL     1       3.982   4.502  20.048  0.00  0.00    +0.000 C 
ATOM      3  C   UNL     1       4.804   4.277  18.783  0.00  0.00    +0.000 C 
ATOM      4  C   UNL     1       4.381   5.219  17.639  0.00  0.00    +0.000 C 
ATOM      5  C   UNL     1       2.857   5.139  17.410  0.00  0.00    +0.000 C 
ATOM      6  C   UNL     1       2.034   5.218  18.698  0.00  0.00    +0.000 C 
ATOM      7  C   UNL     1       4.797   6.697  17.906  0.00  0.00    +0.000 C 
ATOM      8  C   UNL     1       6.032   7.049  17.042  0.00  0.00    +0.000 C 
ATOM      9  C   UNL     1       6.080   5.907  16.067  0.00  0.00    +0.000 A 
ATOM     10  C   UNL     1       6.913   5.782  14.957  0.00  0.00    +0.000 A 
ATOM     11  C   UNL     1       6.897   4.602  14.215  0.00  0.00    +0.000 A 
ATOM     12  C   UNL     1       6.009   3.577  14.551  0.00  0.00    +0.000 A 
ATOM     13  C   UNL     1       5.135   3.726  15.631  0.00  0.00    +0.000 A 
ATOM     14  C   UNL     1       5.177   4.893  16.391  0.00  0.00    +0.000 A 
ENDROOT
BRANCH   1  16
ATOM     15  C   UNL     1       1.951   2.563  21.735  0.00  0.00    +0.000 C 
ATOM     16  S   UNL     1       1.863   2.801  19.971  0.00  0.00    +0.000 S 
ATOM     17  O   UNL     1       2.709   1.819  19.322  0.00  0.00    +0.000 OA
ATOM     18  O   UNL     1       0.467   2.868  19.617  0.00  0.00    +0.000 OA
ENDBRANCH   1  16
BRANCH   8  19
ATOM     19  N   UNL     1       7.197   7.153  17.923  0.00  0.00    +0.000 NA
ATOM     20  H   UNL     1       7.628   6.236  18.009  0.00  0.00    +0.000 HD
BRANCH  19  21
ATOM     21  C   UNL     1       8.194   8.100  17.447  0.00  0.00    +0.000 C 
BRANCH  21  22
ATOM     22  C   UNL     1       8.063   9.359  18.244  0.00  0.00    +0.000 C 
ATOM     23  C   UNL     1       9.151   9.801  19.195  0.00  0.00    +0.000 C 
ATOM     24  C   UNL     1       8.938  10.544  17.908  0.00  0.00    +0.000 C 
ENDBRANCH  21  22
ENDBRANCH  19  21
ENDBRANCH   8  19
TORSDOF 4
ENDMDL
MODEL 6
REMARK VINA RESULT:      -6.5      3.512      6.239
REMARK  Name = 
REMARK  5 active torsions:
REMARK  status: ('A' for Active; 'I' for Inactive)
REMARK    1  A    between atoms: C_1  and  S_2
REMARK    2  A    between atoms: S_2  and  N_5
REMARK    3  A    between atoms: C_12  and  N_13
REMARK    4  A    between atoms: N_13  and  C_14
REMARK    5  A    between atoms: C_14  and  C_15
REMARK                            x       y       z     vdW  Elec       q    Type
REMARK                         _______ _______ _______ _____ _____    ______ ____
ROOT
ATOM      1  N   UNL     1       3.015   4.417  19.996  0.00  0.00    +0.000 NA
ATOM      2  C   UNL     1       4.443   4.777  20.090  0.00  0.00    +0.000 C 
ATOM      3  C   UNL     1       5.151   4.472  18.775  0.00  0.00    +0.000 C 
ATOM      4  C   UNL     1       4.510   5.208  17.583  0.00  0.00    +0.000 C 
ATOM      5  C   UNL     1       2.989   4.945  17.543  0.00  0.00    +0.000 C 
ATOM      6  C   UNL     1       2.298   5.110  18.898  0.00  0.00    +0.000 C 
ATOM      7  C   UNL     1       4.779   6.742  17.622  0.00  0.00    +0.000 C 
ATOM      8  C   UNL     1       5.871   7.101  16.585  0.00  0.00    +0.000 C 
ATOM      9  C   UNL     1       5.949   5.851  15.754  0.00  0.00    +0.000 A 
ATOM     10  C   UNL     1       6.674   5.666  14.578  0.00  0.00    +0.000 A 
ATOM     11  C   UNL     1       6.718   4.403  13.990  0.00  0.00    +0.000 A 
ATOM     12  C   UNL     1       5.992   3.347  14.547  0.00  0.00    +0.000 A 
ATOM     13  C   UNL     1       5.220   3.547  15.695  0.00  0.00    +0.000 A 
ATOM     14  C   UNL     1       5.206   4.803  16.300  0.00  0.00    +0.000 A 
ENDROOT
BRANCH   1  16
ATOM     15  C   UNL     1       0.790   2.875  20.102  0.00  0.00    +0.000 C 
ATOM     16  S   UNL     1       2.535   2.876  20.463  0.00  0.00    +0.000 S 
ATOM     17  O   UNL     1       2.717   2.748  21.896  0.00  0.00    +0.000 OA
ATOM     18  O   UNL     1       3.155   1.912  19.588  0.00  0.00    +0.000 OA
ENDBRANCH   1  16
BRANCH   8  19
ATOM     19  N   UNL     1       7.099   7.436  17.306  0.00  0.00    +0.000 NA
ATOM     20  H   UNL     1       7.899   7.195  16.725  0.00  0.00    +0.000 HD
BRANCH  19  21
ATOM     21  C   UNL     1       7.187   8.843  17.668  0.00  0.00    +0.000 C 
BRANCH  21  22
ATOM     22  C   UNL     1       8.622   9.171  17.929  0.00  0.00    +0.000 C 
ATOM     23  C   UNL     1       9.091  10.604  18.040  0.00  0.00    +0.000 C 
ATOM     24  C   UNL     1       9.020   9.744  19.269  0.00  0.00    +0.000 C 
ENDBRANCH  21  22
ENDBRANCH  19  21
ENDBRANCH   8  19
TORSDOF 4
ENDMDL
MODEL 7
REMARK VINA RESULT:      -6.4      3.964      7.315
REMARK  Name = 
REMARK  5 active torsions:
REMARK  status: ('A' for Active; 'I' for Inactive)
REMARK    1  A    between atoms: C_1  and  S_2
REMARK    2  A    between atoms: S_2  and  N_5
REMARK    3  A    between atoms: C_12  and  N_13
REMARK    4  A    between atoms: N_13  and  C_14
REMARK    5  A    between atoms: C_14  and  C_15
REMARK                            x       y       z     vdW  Elec       q    Type
REMARK                         _______ _______ _______ _____ _____    ______ ____
ROOT
ATOM      1  N   UNL     1       1.880   2.718  18.736  0.00  0.00    +0.000 NA
ATOM      2  C   UNL     1       1.983   3.736  17.673  0.00  0.00    +0.000 C 
ATOM      3  C   UNL     1       3.243   4.573  17.866  0.00  0.00    +0.000 C 
ATOM      4  C   UNL     1       4.520   3.711  17.882  0.00  0.00    +0.000 C 
ATOM      5  C   UNL     1       4.379   2.559  18.901  0.00  0.00    +0.000 C 
ATOM      6  C   UNL     1       3.049   1.808  18.805  0.00  0.00    +0.000 C 
ATOM      7  C   UNL     1       4.859   3.131  16.476  0.00  0.00    +0.000 C 
ATOM      8  C   UNL     1       6.033   3.930  15.860  0.00  0.00    +0.000 C 
ATOM      9  C   UNL     1       6.554   4.701  17.040  0.00  0.00    +0.000 A 
ATOM     10  C   UNL     1       7.707   5.481  17.093  0.00  0.00    +0.000 A 
ATOM     11  C   UNL     1       7.987   6.215  18.244  0.00  0.00    +0.000 A 
ATOM     12  C   UNL     1       7.146   6.121  19.356  0.00  0.00    +0.000 A 
ATOM     13  C   UNL     1       6.019   5.295  19.321  0.00  0.00    +0.000 A 
ATOM     14  C   UNL     1       5.723   4.588  18.156  0.00  0.00    +0.000 A 
ENDROOT
BRANCH   1  16
ATOM     15  C   UNL     1       1.447   4.803  20.411  0.00  0.00    +0.000 C 
ATOM     16  S   UNL     1       1.032   3.092  20.137  0.00  0.00    +0.000 S 
ATOM     17  O   UNL     1       1.566   2.300  21.228  0.00  0.00    +0.000 OA
ATOM     18  O   UNL     1      -0.381   3.034  19.854  0.00  0.00    +0.000 OA
ENDBRANCH   1  16
BRANCH   8  19
ATOM     19  N   UNL     1       5.507   4.756  14.771  0.00  0.00    +0.000 NA
ATOM     20  H   UNL     1       5.710   5.733  14.971  0.00  0.00    +0.000 HD
BRANCH  19  21
ATOM     21  C   UNL     1       6.065   4.415  13.471  0.00  0.00    +0.000 C 
BRANCH  21  22
ATOM     22  C   UNL     1       5.257   3.296  12.893  0.00  0.00    +0.000 C 
ATOM     23  C   UNL     1       4.571   3.436  11.554  0.00  0.00    +0.000 C 
ATOM     24  C   UNL     1       5.777   2.552  11.686  0.00  0.00    +0.000 C 
ENDBRANCH  21  22
ENDBRANCH  19  21
ENDBRANCH   8  19
TORSDOF 4
ENDMDL
MODEL 8
REMARK VINA RESULT:      -6.3      1.139      1.592
REMARK  Name = 
REMARK  5 active torsions:
REMARK  status: ('A' for Active; 'I' for Inactive)
REMARK    1  A    between atoms: C_1  and  S_2
REMARK    2  A    between atoms: S_2  and  N_5
REMARK    3  A    between atoms: C_12  and  N_13
REMARK    4  A    between atoms: N_13  and  C_14
REMARK    5  A    between atoms: C_14  and  C_15
REMARK                            x       y       z     vdW  Elec       q    Type
REMARK                         _______ _______ _______ _____ _____    ______ ____
ROOT
ATOM      1  N   UNL     1       6.257   5.614  16.834  0.00  0.00    +0.000 NA
ATOM      2  C   UNL     1       4.923   6.150  16.505  0.00  0.00    +0.000 C 
ATOM      3  C   UNL     1       3.840   5.333  17.201  0.00  0.00    +0.000 C 
ATOM      4  C   UNL     1       4.024   5.305  18.731  0.00  0.00    +0.000 C 
ATOM      5  C   UNL     1       5.460   4.868  19.093  0.00  0.00    +0.000 C 
ATOM      6  C   UNL     1       6.545   5.585  18.289  0.00  0.00    +0.000 C 
ATOM      7  C   UNL     1       3.711   6.682  19.389  0.00  0.00    +0.000 C 
ATOM      8  C   UNL     1       2.325   6.622  20.077  0.00  0.00    +0.000 C 
ATOM      9  C   UNL     1       2.040   5.148  20.098  0.00  0.00    +0.000 A 
ATOM     10  C   UNL     1       0.981   4.504  20.736  0.00  0.00    +0.000 A 
ATOM     11  C   UNL     1       0.808   3.132  20.564  0.00  0.00    +0.000 A 
ATOM     12  C   UNL     1       1.723   2.400  19.803  0.00  0.00    +0.000 A 
ATOM     13  C   UNL     1       2.816   3.038  19.209  0.00  0.00    +0.000 A 
ATOM     14  C   UNL     1       2.968   4.415  19.355  0.00  0.00    +0.000 A 
ENDROOT
BRANCH   1  16
ATOM     15  C   UNL     1       7.278   5.365  14.337  0.00  0.00    +0.000 C 
ATOM     16  S   UNL     1       6.935   4.452  15.828  0.00  0.00    +0.000 S 
ATOM     17  O   UNL     1       5.931   3.446  15.540  0.00  0.00    +0.000 OA
ATOM     18  O   UNL     1       8.201   4.041  16.380  0.00  0.00    +0.000 OA
ENDBRANCH   1  16
BRANCH   8  19
ATOM     19  N   UNL     1       1.384   7.419  19.289  0.00  0.00    +0.000 NA
ATOM     20  H   UNL     1       0.466   6.983  19.333  0.00  0.00    +0.000 HD
BRANCH  19  21
ATOM     21  C   UNL     1       1.274   8.796  19.746  0.00  0.00    +0.000 C 
BRANCH  21  22
ATOM     22  C   UNL     1       0.968   9.659  18.563  0.00  0.00    +0.000 C 
ATOM     23  C   UNL     1      -0.363  10.364  18.431  0.00  0.00    +0.000 C 
ATOM     24  C   UNL     1       0.875  11.156  18.742  0.00  0.00    +0.000 C 
ENDBRANCH  21  22
ENDBRANCH  19  21
ENDBRANCH   8  19
TORSDOF 4
ENDMDL
MODEL 9
REMARK VINA RESULT:      -6.3      3.796      6.339
REMARK  Name = 
REMARK  5 active torsions:
REMARK  status: ('A' for Active; 'I' for Inactive)
REMARK    1  A    between atoms: C_1  and  S_2
REMARK    2  A    between atoms: S_2  and  N_5
REMARK    3  A    between atoms: C_12  and  N_13
REMARK    4  A    between atoms: N_13  and  C_14
REMARK    5  A    between atoms: C_14  and  C_15
REMARK                            x       y       z     vdW  Elec       q    Type
REMARK                         _______ _______ _______ _____ _____    ______ ____
ROOT
ATOM      1  N   UNL     1       2.792   4.160  19.604  0.00  0.00    +0.000 NA
ATOM      2  C   UNL     1       4.248   4.007  19.790  0.00  0.00    +0.000 C 
ATOM      3  C   UNL     1       4.938   3.851  18.440  0.00  0.00    +0.000 C 
ATOM      4  C   UNL     1       4.659   5.042  17.501  0.00  0.00    +0.000 C 
ATOM      5  C   UNL     1       3.140   5.299  17.395  0.00  0.00    +0.000 C 
ATOM      6  C   UNL     1       2.420   5.310  18.745  0.00  0.00    +0.000 C 
ATOM      7  C   UNL     1       5.382   6.341  17.965  0.00  0.00    +0.000 C 
ATOM      8  C   UNL     1       6.616   6.593  17.065  0.00  0.00    +0.000 C 
ATOM      9  C   UNL     1       6.378   5.651  15.919  0.00  0.00    +0.000 A 
ATOM     10  C   UNL     1       7.109   5.563  14.736  0.00  0.00    +0.000 A 
ATOM     11  C   UNL     1       6.812   4.555  13.820  0.00  0.00    +0.000 A 
ATOM     12  C   UNL     1       5.752   3.678  14.062  0.00  0.00    +0.000 A 
ATOM     13  C   UNL     1       4.984   3.803  15.224  0.00  0.00    +0.000 A 
ATOM     14  C   UNL     1       5.304   4.790  16.154  0.00  0.00    +0.000 A 
ENDROOT
BRANCH   1  16
ATOM     15  C   UNL     1       2.870   1.548  18.889  0.00  0.00    +0.000 C 
ATOM     16  S   UNL     1       1.823   2.788  19.625  0.00  0.00    +0.000 S 
ATOM     17  O   UNL     1       0.682   3.013  18.759  0.00  0.00    +0.000 OA
ATOM     18  O   UNL     1       1.598   2.400  20.995  0.00  0.00    +0.000 OA
ENDBRANCH   1  16
BRANCH   8  19
ATOM     19  N   UNL     1       7.822   6.316  17.847  0.00  0.00    +0.000 NA
ATOM     20  H   UNL     1       8.595   6.141  17.210  0.00  0.00    +0.000 HD
BRANCH  19  21
ATOM     21  C   UNL     1       8.187   7.402  18.744  0.00  0.00    +0.000 C 
BRANCH  21  22
ATOM     22  C   UNL     1       8.533   8.598  17.915  0.00  0.00    +0.000 C 
ATOM     23  C   UNL     1       7.688   9.850  17.956  0.00  0.00    +0.000 C 
ATOM     24  C   UNL     1       9.047   9.846  18.593  0.00  0.00    +0.000 C 
ENDBRANCH  21  22
ENDBRANCH  19  21
ENDBRANCH   8  19
TORSDOF 4
ENDMDL
