MODEL 1
REMARK VINA RESULT:      -8.0      0.000      0.000
REMARK  Name = 
REMARK  4 active torsions:
REMARK  status: ('A' for Active; 'I' for Inactive)
REMARK    1  A    between atoms: C_2  and  C_4
REMARK    2  A    between atoms: C_4  and  C_5
REMARK    3  A    between atoms: C_4  and  C_12
REMARK    4  A    between atoms: C_4  and  C_19
REMARK                            x       y       z     vdW  Elec       q    Type
REMARK                         _______ _______ _______ _____ _____    ______ ____
ROOT
ATOM      1  C   UNL     1       3.012   4.914  18.372  0.00  0.00    +0.000 C 
ENDROOT
BRANCH   1   2
ATOM      2  C   UNL     1       2.998   3.939  19.616  0.00  0.00    +0.000 A 
ATOM      3  C   UNL     1       1.914   3.910  20.518  0.00  0.00    +0.000 A 
ATOM      4  C   UNL     1       1.865   2.988  21.571  0.00  0.00    +0.000 A 
ATOM      5  C   UNL     1       2.929   2.119  21.792  0.00  0.00    +0.000 A 
ATOM      6  C   UNL     1       4.049   2.207  20.982  0.00  0.00    +0.000 A 
ATOM      7  F   UNL     1       5.097   1.407  21.210  0.00  0.00    +0.000 F 
ATOM      8  C   UNL     1       4.099   3.109  19.922  0.00  0.00    +0.000 A 
ENDBRANCH   1   2
BRANCH   1   9
ATOM      9  C   UNL     1       4.440   5.102  17.734  0.00  0.00    +0.000 A 
ATOM     10  C   UNL     1       4.721   4.685  16.413  0.00  0.00    +0.000 A 
ATOM     11  C   UNL     1       5.971   4.912  15.820  0.00  0.00    +0.000 A 
ATOM     12  C   UNL     1       6.993   5.501  16.555  0.00  0.00    +0.000 A 
ATOM     13  C   UNL     1       6.765   5.831  17.881  0.00  0.00    +0.000 A 
ATOM     14  F   UNL     1       7.758   6.365  18.605  0.00  0.00    +0.000 F 
ATOM     15  C   UNL     1       5.519   5.626  18.473  0.00  0.00    +0.000 A 
ENDBRANCH   1   9
BRANCH   1  16
ATOM     16  C   UNL     1       2.517   6.361  18.740  0.00  0.00    +0.000 A 
ATOM     17  C   UNL     1       2.460   7.391  17.779  0.00  0.00    +0.000 A 
ATOM     18  C   UNL     1       1.970   8.664  18.103  0.00  0.00    +0.000 A 
ATOM     19  C   UNL     1       1.539   8.938  19.399  0.00  0.00    +0.000 A 
ATOM     20  C   UNL     1       1.650   7.958  20.369  0.00  0.00    +0.000 A 
ATOM     21  F   UNL     1       1.235   8.211  21.618  0.00  0.00    +0.000 F 
ATOM     22  C   UNL     1       2.165   6.700  20.064  0.00  0.00    +0.000 A 
ENDBRANCH   1  16
BRANCH   1  24
ATOM     23  N   UNL     1       2.407   3.004  16.795  0.00  0.00    +0.000 N 
ATOM     24  C   UNL     1       2.006   4.198  17.346  0.00  0.00    +0.000 C 
ATOM     25  O   UNL     1       0.922   4.645  16.976  0.00  0.00    +0.000 OA
ATOM     26  H   UNL     1       1.811   2.629  16.069  0.00  0.00    +0.000 HD
ATOM     27  H   UNL     1       3.372   2.710  16.797  0.00  0.00    +0.000 HD
ENDBRANCH   1  24
TORSDOF 4
ENDMDL
MODEL 2
REMARK VINA RESULT:      -7.9      0.898      1.312
REMARK  Name = 
REMARK  4 active torsions:
REMARK  status: ('A' for Active; 'I' for Inactive)
REMARK    1  A    between atoms: C_2  and  C_4
REMARK    2  A    between atoms: C_4  and  C_5
REMARK    3  A    between atoms: C_4  and  C_12
REMARK    4  A    between atoms: C_4  and  C_19
REMARK                            x       y       z     vdW  Elec       q    Type
REMARK                         _______ _______ _______ _____ _____    ______ ____
ROOT
ATOM      1  C   UNL     1       3.067   4.840  18.311  0.00  0.00    +0.000 C 
ENDROOT
BRANCH   1   2
ATOM      2  C   UNL     1       3.123   3.812  19.512  0.00  0.00    +0.000 A 
ATOM      3  C   UNL     1       4.268   3.025  19.755  0.00  0.00    +0.000 A 
ATOM      4  C   UNL     1       4.349   2.178  20.867  0.00  0.00    +0.000 A 
ATOM      5  C   UNL     1       3.262   2.043  21.725  0.00  0.00    +0.000 A 
ATOM      6  C   UNL     1       2.091   2.725  21.441  0.00  0.00    +0.000 A 
ATOM      7  F   UNL     1       1.024   2.571  22.234  0.00  0.00    +0.000 F 
ATOM      8  C   UNL     1       2.008   3.583  20.347  0.00  0.00    +0.000 A 
ENDBRANCH   1   2
BRANCH   1   9
ATOM      9  C   UNL     1       4.464   5.083  17.625  0.00  0.00    +0.000 A 
ATOM     10  C   UNL     1       4.725   4.650  16.304  0.00  0.00    +0.000 A 
ATOM     11  C   UNL     1       5.943   4.925  15.668  0.00  0.00    +0.000 A 
ATOM     12  C   UNL     1       6.957   5.580  16.357  0.00  0.00    +0.000 A 
ATOM     13  C   UNL     1       6.754   5.928  17.683  0.00  0.00    +0.000 A 
ATOM     14  F   UNL     1       7.741   6.526  18.364  0.00  0.00    +0.000 F 
ATOM     15  C   UNL     1       5.538   5.675  18.318  0.00  0.00    +0.000 A 
ENDBRANCH   1   9
BRANCH   1  16
ATOM     16  C   UNL     1       2.563   6.259  18.761  0.00  0.00    +0.000 A 
ATOM     17  C   UNL     1       2.476   7.336  17.856  0.00  0.00    +0.000 A 
ATOM     18  C   UNL     1       1.978   8.585  18.254  0.00  0.00    +0.000 A 
ATOM     19  C   UNL     1       1.566   8.787  19.569  0.00  0.00    +0.000 A 
ATOM     20  C   UNL     1       1.705   7.759  20.485  0.00  0.00    +0.000 A 
ATOM     21  F   UNL     1       1.309   7.943  21.752  0.00  0.00    +0.000 F 
ATOM     22  C   UNL     1       2.229   6.525  20.107  0.00  0.00    +0.000 A 
ENDBRANCH   1  16
BRANCH   1  24
ATOM     23  N   UNL     1       2.403   2.949  16.734  0.00  0.00    +0.000 N 
ATOM     24  C   UNL     1       2.033   4.148  17.297  0.00  0.00    +0.000 C 
ATOM     25  O   UNL     1       0.953   4.618  16.946  0.00  0.00    +0.000 OA
ATOM     26  H   UNL     1       1.789   2.590  16.016  0.00  0.00    +0.000 HD
ATOM     27  H   UNL     1       3.363   2.638  16.720  0.00  0.00    +0.000 HD
ENDBRANCH   1  24
TORSDOF 4
ENDMDL
MODEL 3
REMARK VINA RESULT:      -7.9      1.253      1.845
REMARK  Name = 
REMARK  4 active torsions:
REMARK  status: ('A' for Active; 'I' for Inactive)
REMARK    1  A    between atoms: C_2  and  C_4
REMARK    2  A    between atoms: C_4  and  C_5
REMARK    3  A    between atoms: C_4  and  C_12
REMARK    4  A    between atoms: C_4  and  C_19
REMARK                            x       y       z     vdW  Elec       q    Type
REMARK                         _______ _______ _______ _____ _____    ______ ____
ROOT
ATOM      1  C   UNL     1       3.062   4.837  18.387  0.00  0.00    +0.000 C 
ENDROOT
BRANCH   1   2
ATOM      2  C   UNL     1       3.120   3.782  19.563  0.00  0.00    +0.000 A 
ATOM      3  C   UNL     1       4.260   2.980  19.777  0.00  0.00    +0.000 A 
ATOM      4  C   UNL     1       4.344   2.107  20.868  0.00  0.00    +0.000 A 
ATOM      5  C   UNL     1       3.265   1.961  21.733  0.00  0.00    +0.000 A 
ATOM      6  C   UNL     1       2.097   2.661  21.477  0.00  0.00    +0.000 A 
ATOM      7  F   UNL     1       1.037   2.498  22.277  0.00  0.00    +0.000 F 
ATOM      8  C   UNL     1       2.012   3.544  20.404  0.00  0.00    +0.000 A 
ENDBRANCH   1   2
BRANCH   1   9
ATOM      9  C   UNL     1       4.465   5.133  17.735  0.00  0.00    +0.000 A 
ATOM     10  C   UNL     1       4.740   4.803  16.388  0.00  0.00    +0.000 A 
ATOM     11  C   UNL     1       5.964   5.127  15.787  0.00  0.00    +0.000 A 
ATOM     12  C   UNL     1       6.970   5.726  16.535  0.00  0.00    +0.000 A 
ATOM     13  C   UNL     1       6.754   5.970  17.882  0.00  0.00    +0.000 A 
ATOM     14  F   UNL     1       7.734   6.513  18.617  0.00  0.00    +0.000 F 
ATOM     15  C   UNL     1       5.532   5.669  18.483  0.00  0.00    +0.000 A 
ENDBRANCH   1   9
BRANCH   1  16
ATOM     16  C   UNL     1       2.512   6.232  18.860  0.00  0.00    +0.000 A 
ATOM     17  C   UNL     1       2.070   6.444  20.182  0.00  0.00    +0.000 A 
ATOM     18  C   UNL     1       1.628   7.704  20.610  0.00  0.00    +0.000 A 
ATOM     19  C   UNL     1       1.607   8.776  19.721  0.00  0.00    +0.000 A 
ATOM     20  C   UNL     1       1.976   8.569  18.404  0.00  0.00    +0.000 A 
ATOM     21  F   UNL     1       1.963   9.595  17.542  0.00  0.00    +0.000 F 
ATOM     22  C   UNL     1       2.386   7.313  17.962  0.00  0.00    +0.000 A 
ENDBRANCH   1  16
BRANCH   1  24
ATOM     23  N   UNL     1       2.478   2.969  16.752  0.00  0.00    +0.000 N 
ATOM     24  C   UNL     1       2.066   4.145  17.335  0.00  0.00    +0.000 C 
ATOM     25  O   UNL     1       0.982   4.596  16.971  0.00  0.00    +0.000 OA
ATOM     26  H   UNL     1       1.888   2.612  16.013  0.00  0.00    +0.000 HD
ATOM     27  H   UNL     1       3.445   2.681  16.751  0.00  0.00    +0.000 HD
ENDBRANCH   1  24
TORSDOF 4
ENDMDL
MODEL 4
REMARK VINA RESULT:      -7.9      0.967      1.361
REMARK  Name = 
REMARK  4 active torsions:
REMARK  status: ('A' for Active; 'I' for Inactive)
REMARK    1  A    between atoms: C_2  and  C_4
REMARK    2  A    between atoms: C_4  and  C_5
REMARK    3  A    between atoms: C_4  and  C_12
REMARK    4  A    between atoms: C_4  and  C_19
REMARK                            x       y       z     vdW  Elec       q    Type
REMARK                         _______ _______ _______ _____ _____    ______ ____
ROOT
ATOM      1  C   UNL     1       2.933   4.802  18.461  0.00  0.00    +0.000 C 
ENDROOT
BRANCH   1   2
ATOM      2  C   UNL     1       2.757   3.867  19.724  0.00  0.00    +0.000 A 
ATOM      3  C   UNL     1       1.557   3.848  20.465  0.00  0.00    +0.000 A 
ATOM      4  C   UNL     1       1.371   2.960  21.531  0.00  0.00    +0.000 A 
ATOM      5  C   UNL     1       2.405   2.118  21.929  0.00  0.00    +0.000 A 
ATOM      6  C   UNL     1       3.627   2.199  21.283  0.00  0.00    +0.000 A 
ATOM      7  F   UNL     1       4.642   1.425  21.683  0.00  0.00    +0.000 F 
ATOM      8  C   UNL     1       3.814   3.067  20.209  0.00  0.00    +0.000 A 
ENDBRANCH   1   2
BRANCH   1   9
ATOM      9  C   UNL     1       4.419   4.890  17.945  0.00  0.00    +0.000 A 
ATOM     10  C   UNL     1       5.438   5.487  18.722  0.00  0.00    +0.000 A 
ATOM     11  C   UNL     1       6.772   5.506  18.295  0.00  0.00    +0.000 A 
ATOM     12  C   UNL     1       7.113   4.991  17.050  0.00  0.00    +0.000 A 
ATOM     13  C   UNL     1       6.113   4.487  16.233  0.00  0.00    +0.000 A 
ATOM     14  F   UNL     1       6.429   4.024  15.017  0.00  0.00    +0.000 F 
ATOM     15  C   UNL     1       4.784   4.447  16.659  0.00  0.00    +0.000 A 
ENDBRANCH   1   9
BRANCH   1  16
ATOM     16  C   UNL     1       2.495   6.284  18.747  0.00  0.00    +0.000 A 
ATOM     17  C   UNL     1       2.469   7.259  17.730  0.00  0.00    +0.000 A 
ATOM     18  C   UNL     1       2.029   8.566  17.983  0.00  0.00    +0.000 A 
ATOM     19  C   UNL     1       1.616   8.930  19.262  0.00  0.00    +0.000 A 
ATOM     20  C   UNL     1       1.696   8.002  20.286  0.00  0.00    +0.000 A 
ATOM     21  F   UNL     1       1.299   8.341  21.520  0.00  0.00    +0.000 F 
ATOM     22  C   UNL     1       2.163   6.711  20.051  0.00  0.00    +0.000 A 
ENDBRANCH   1  16
BRANCH   1  24
ATOM     23  N   UNL     1       2.387   2.911  16.839  0.00  0.00    +0.000 N 
ATOM     24  C   UNL     1       1.978   4.113  17.370  0.00  0.00    +0.000 C 
ATOM     25  O   UNL     1       0.930   4.585  16.935  0.00  0.00    +0.000 OA
ATOM     26  H   UNL     1       1.829   2.553  16.075  0.00  0.00    +0.000 HD
ATOM     27  H   UNL     1       3.343   2.596  16.900  0.00  0.00    +0.000 HD
ENDBRANCH   1  24
TORSDOF 4
ENDMDL
MODEL 5
REMARK VINA RESULT:      -7.8      1.331      1.899
REMARK  Name = 
REMARK  4 active torsions:
REMARK  status: ('A' for Active; 'I' for Inactive)
REMARK    1  A    between atoms: C_2  and  C_4
REMARK    2  A    between atoms: C_4  and  C_5
REMARK    3  A    between atoms: C_4  and  C_12
REMARK    4  A    between atoms: C_4  and  C_19
REMARK                            x       y       z     vdW  Elec       q    Type
REMARK                         _______ _______ _______ _____ _____    ______ ____
ROOT
ATOM      1  C   UNL     1       3.074   4.757  18.314  0.00  0.00    +0.000 C 
ENDROOT
BRANCH   1   2
ATOM      2  C   UNL     1       3.088   3.752  19.534  0.00  0.00    +0.000 A 
ATOM      3  C   UNL     1       4.220   2.962  19.825  0.00  0.00    +0.000 A 
ATOM      4  C   UNL     1       4.263   2.136  20.955  0.00  0.00    +0.000 A 
ATOM      5  C   UNL     1       3.151   2.024  21.783  0.00  0.00    +0.000 A 
ATOM      6  C   UNL     1       1.993   2.709  21.454  0.00  0.00    +0.000 A 
ATOM      7  F   UNL     1       0.903   2.577  22.218  0.00  0.00    +0.000 F 
ATOM      8  C   UNL     1       1.948   3.547  20.342  0.00  0.00    +0.000 A 
ENDBRANCH   1   2
BRANCH   1   9
ATOM      9  C   UNL     1       4.488   4.965  17.653  0.00  0.00    +0.000 A 
ATOM     10  C   UNL     1       5.532   5.635  18.333  0.00  0.00    +0.000 A 
ATOM     11  C   UNL     1       6.811   5.762  17.774  0.00  0.00    +0.000 A 
ATOM     12  C   UNL     1       7.062   5.282  16.494  0.00  0.00    +0.000 A 
ATOM     13  C   UNL     1       6.027   4.706  15.775  0.00  0.00    +0.000 A 
ATOM     14  F   UNL     1       6.254   4.276  14.527  0.00  0.00    +0.000 F 
ATOM     15  C   UNL     1       4.756   4.559  16.331  0.00  0.00    +0.000 A 
ENDBRANCH   1   9
BRANCH   1  16
ATOM     16  C   UNL     1       2.583   6.192  18.726  0.00  0.00    +0.000 A 
ATOM     17  C   UNL     1       2.513   7.248  17.795  0.00  0.00    +0.000 A 
ATOM     18  C   UNL     1       2.027   8.511  18.159  0.00  0.00    +0.000 A 
ATOM     19  C   UNL     1       1.612   8.751  19.466  0.00  0.00    +0.000 A 
ATOM     20  C   UNL     1       1.735   7.745  20.409  0.00  0.00    +0.000 A 
ATOM     21  F   UNL     1       1.335   7.964  21.669  0.00  0.00    +0.000 F 
ATOM     22  C   UNL     1       2.247   6.496  20.063  0.00  0.00    +0.000 A 
ENDBRANCH   1  16
BRANCH   1  24
ATOM     23  N   UNL     1       2.424   2.860  16.738  0.00  0.00    +0.000 N 
ATOM     24  C   UNL     1       2.050   4.063  17.292  0.00  0.00    +0.000 C 
ATOM     25  O   UNL     1       0.974   4.533  16.926  0.00  0.00    +0.000 OA
ATOM     26  H   UNL     1       1.817   2.499  16.014  0.00  0.00    +0.000 HD
ATOM     27  H   UNL     1       3.383   2.547  16.736  0.00  0.00    +0.000 HD
ENDBRANCH   1  24
TORSDOF 4
ENDMDL
MODEL 6
REMARK VINA RESULT:      -7.8      1.557      2.274
REMARK  Name = 
REMARK  4 active torsions:
REMARK  status: ('A' for Active; 'I' for Inactive)
REMARK    1  A    between atoms: C_2  and  C_4
REMARK    2  A    between atoms: C_4  and  C_5
REMARK    3  A    between atoms: C_4  and  C_12
REMARK    4  A    between atoms: C_4  and  C_19
REMARK                            x       y       z     vdW  Elec       q    Type
REMARK                         _______ _______ _______ _____ _____    ______ ____
ROOT
ATOM      1  C   UNL     1       3.056   4.842  18.393  0.00  0.00    +0.000 C 
ENDROOT
BRANCH   1   2
ATOM      2  C   UNL     1       3.103   3.786  19.568  0.00  0.00    +0.000 A 
ATOM      3  C   UNL     1       4.233   2.968  19.779  0.00  0.00    +0.000 A 
ATOM      4  C   UNL     1       4.308   2.094  20.871  0.00  0.00    +0.000 A 
ATOM      5  C   UNL     1       3.228   1.963  21.738  0.00  0.00    +0.000 A 
ATOM      6  C   UNL     1       2.070   2.678  21.485  0.00  0.00    +0.000 A 
ATOM      7  F   UNL     1       1.009   2.529  22.287  0.00  0.00    +0.000 F 
ATOM      8  C   UNL     1       1.994   3.563  20.412  0.00  0.00    +0.000 A 
ENDBRANCH   1   2
BRANCH   1   9
ATOM      9  C   UNL     1       4.466   5.138  17.755  0.00  0.00    +0.000 A 
ATOM     10  C   UNL     1       5.527   5.672  18.522  0.00  0.00    +0.000 A 
ATOM     11  C   UNL     1       6.802   5.873  17.974  0.00  0.00    +0.000 A 
ATOM     12  C   UNL     1       7.031   5.610  16.629  0.00  0.00    +0.000 A 
ATOM     13  C   UNL     1       5.978   5.176  15.839  0.00  0.00    +0.000 A 
ATOM     14  F   UNL     1       6.184   4.956  14.534  0.00  0.00    +0.000 F 
ATOM     15  C   UNL     1       4.712   4.955  16.380  0.00  0.00    +0.000 A 
ENDBRANCH   1   9
BRANCH   1  16
ATOM     16  C   UNL     1       2.502   6.236  18.862  0.00  0.00    +0.000 A 
ATOM     17  C   UNL     1       2.071   6.455  20.186  0.00  0.00    +0.000 A 
ATOM     18  C   UNL     1       1.625   7.715  20.610  0.00  0.00    +0.000 A 
ATOM     19  C   UNL     1       1.588   8.781  19.714  0.00  0.00    +0.000 A 
ATOM     20  C   UNL     1       1.946   8.567  18.395  0.00  0.00    +0.000 A 
ATOM     21  F   UNL     1       1.916   9.587  17.526  0.00  0.00    +0.000 F 
ATOM     22  C   UNL     1       2.360   7.311  17.958  0.00  0.00    +0.000 A 
ENDBRANCH   1  16
BRANCH   1  24
ATOM     23  N   UNL     1       2.513   3.007  16.707  0.00  0.00    +0.000 N 
ATOM     24  C   UNL     1       2.071   4.151  17.331  0.00  0.00    +0.000 C 
ATOM     25  O   UNL     1       0.969   4.578  16.993  0.00  0.00    +0.000 OA
ATOM     26  H   UNL     1       1.926   2.654  15.963  0.00  0.00    +0.000 HD
ATOM     27  H   UNL     1       3.489   2.751  16.688  0.00  0.00    +0.000 HD
ENDBRANCH   1  24
TORSDOF 4
ENDMDL
MODEL 7
REMARK VINA RESULT:      -7.8      0.940      1.344
REMARK  Name = 
REMARK  4 active torsions:
REMARK  status: ('A' for Active; 'I' for Inactive)
REMARK    1  A    between atoms: C_2  and  C_4
REMARK    2  A    between atoms: C_4  and  C_5
REMARK    3  A    between atoms: C_4  and  C_12
REMARK    4  A    between atoms: C_4  and  C_19
REMARK                            x       y       z     vdW  Elec       q    Type
REMARK                         _______ _______ _______ _____ _____    ______ ____
ROOT
ATOM      1  C   UNL     1       3.007   5.004  18.498  0.00  0.00    +0.000 C 
ENDROOT
BRANCH   1   2
ATOM      2  C   UNL     1       2.979   3.977  19.700  0.00  0.00    +0.000 A 
ATOM      3  C   UNL     1       1.874   3.893  20.572  0.00  0.00    +0.000 A 
ATOM      4  C   UNL     1       1.813   2.927  21.583  0.00  0.00    +0.000 A 
ATOM      5  C   UNL     1       2.885   2.066  21.794  0.00  0.00    +0.000 A 
ATOM      6  C   UNL     1       4.024   2.204  21.018  0.00  0.00    +0.000 A 
ATOM      7  F   UNL     1       5.078   1.411  21.238  0.00  0.00    +0.000 F 
ATOM      8  C   UNL     1       4.085   3.152  19.998  0.00  0.00    +0.000 A 
ENDBRANCH   1   2
BRANCH   1   9
ATOM      9  C   UNL     1       4.453   5.271  17.931  0.00  0.00    +0.000 A 
ATOM     10  C   UNL     1       4.738   5.163  16.550  0.00  0.00    +0.000 A 
ATOM     11  C   UNL     1       6.006   5.466  16.036  0.00  0.00    +0.000 A 
ATOM     12  C   UNL     1       7.040   5.818  16.895  0.00  0.00    +0.000 A 
ATOM     13  C   UNL     1       6.805   5.837  18.260  0.00  0.00    +0.000 A 
ATOM     14  F   UNL     1       7.808   6.139  19.096  0.00  0.00    +0.000 F 
ATOM     15  C   UNL     1       5.541   5.555  18.780  0.00  0.00    +0.000 A 
ENDBRANCH   1   9
BRANCH   1  16
ATOM     16  C   UNL     1       2.444   6.415  18.903  0.00  0.00    +0.000 A 
ATOM     17  C   UNL     1       1.989   6.684  20.210  0.00  0.00    +0.000 A 
ATOM     18  C   UNL     1       1.535   7.959  20.577  0.00  0.00    +0.000 A 
ATOM     19  C   UNL     1       1.514   8.989  19.640  0.00  0.00    +0.000 A 
ATOM     20  C   UNL     1       1.895   8.725  18.336  0.00  0.00    +0.000 A 
ATOM     21  F   UNL     1       1.881   9.710  17.428  0.00  0.00    +0.000 F 
ATOM     22  C   UNL     1       2.317   7.453  17.955  0.00  0.00    +0.000 A 
ENDBRANCH   1  16
BRANCH   1  24
ATOM     23  N   UNL     1       2.561   3.166  16.789  0.00  0.00    +0.000 N 
ATOM     24  C   UNL     1       2.074   4.297  17.401  0.00  0.00    +0.000 C 
ATOM     25  O   UNL     1       0.974   4.702  17.028  0.00  0.00    +0.000 OA
ATOM     26  H   UNL     1       2.007   2.803  16.024  0.00  0.00    +0.000 HD
ATOM     27  H   UNL     1       3.542   2.930  16.801  0.00  0.00    +0.000 HD
ENDBRANCH   1  24
TORSDOF 4
ENDMDL
MODEL 8
REMARK VINA RESULT:      -7.8      1.268      1.849
REMARK  Name = 
REMARK  4 active torsions:
REMARK  status: ('A' for Active; 'I' for Inactive)
REMARK    1  A    between atoms: C_2  and  C_4
REMARK    2  A    between atoms: C_4  and  C_5
REMARK    3  A    between atoms: C_4  and  C_12
REMARK    4  A    between atoms: C_4  and  C_19
REMARK                            x       y       z     vdW  Elec       q    Type
REMARK                         _______ _______ _______ _____ _____    ______ ____
ROOT
ATOM      1  C   UNL     1       2.993   4.987  18.499  0.00  0.00    +0.000 C 
ENDROOT
BRANCH   1   2
ATOM      2  C   UNL     1       2.970   3.963  19.704  0.00  0.00    +0.000 A 
ATOM      3  C   UNL     1       1.872   3.888  20.586  0.00  0.00    +0.000 A 
ATOM      4  C   UNL     1       1.815   2.924  21.601  0.00  0.00    +0.000 A 
ATOM      5  C   UNL     1       2.884   2.058  21.804  0.00  0.00    +0.000 A 
ATOM      6  C   UNL     1       4.016   2.188  21.017  0.00  0.00    +0.000 A 
ATOM      7  F   UNL     1       5.067   1.389  21.230  0.00  0.00    +0.000 F 
ATOM      8  C   UNL     1       4.073   3.132  19.994  0.00  0.00    +0.000 A 
ENDBRANCH   1   2
BRANCH   1   9
ATOM      9  C   UNL     1       4.436   5.248  17.923  0.00  0.00    +0.000 A 
ATOM     10  C   UNL     1       5.521   5.577  18.768  0.00  0.00    +0.000 A 
ATOM     11  C   UNL     1       6.819   5.744  18.265  0.00  0.00    +0.000 A 
ATOM     12  C   UNL     1       7.053   5.653  16.898  0.00  0.00    +0.000 A 
ATOM     13  C   UNL     1       5.985   5.426  16.045  0.00  0.00    +0.000 A 
ATOM     14  F   UNL     1       6.199   5.376  14.724  0.00  0.00    +0.000 F 
ATOM     15  C   UNL     1       4.693   5.240  16.538  0.00  0.00    +0.000 A 
ENDBRANCH   1   9
BRANCH   1  16
ATOM     16  C   UNL     1       2.435   6.400  18.904  0.00  0.00    +0.000 A 
ATOM     17  C   UNL     1       1.992   6.674  20.214  0.00  0.00    +0.000 A 
ATOM     18  C   UNL     1       1.543   7.951  20.579  0.00  0.00    +0.000 A 
ATOM     19  C   UNL     1       1.516   8.978  19.639  0.00  0.00    +0.000 A 
ATOM     20  C   UNL     1       1.886   8.709  18.333  0.00  0.00    +0.000 A 
ATOM     21  F   UNL     1       1.866   9.691  17.422  0.00  0.00    +0.000 F 
ATOM     22  C   UNL     1       2.303   7.435  17.954  0.00  0.00    +0.000 A 
ENDBRANCH   1  16
BRANCH   1  24
ATOM     23  N   UNL     1       2.534   3.148  16.793  0.00  0.00    +0.000 N 
ATOM     24  C   UNL     1       2.051   4.279  17.410  0.00  0.00    +0.000 C 
ATOM     25  O   UNL     1       0.948   4.682  17.047  0.00  0.00    +0.000 OA
ATOM     26  H   UNL     1       1.974   2.785  16.033  0.00  0.00    +0.000 HD
ATOM     27  H   UNL     1       3.515   2.914  16.797  0.00  0.00    +0.000 HD
ENDBRANCH   1  24
TORSDOF 4
ENDMDL
MODEL 9
REMARK VINA RESULT:      -7.7      2.794      5.188
REMARK  Name = 
REMARK  4 active torsions:
REMARK  status: ('A' for Active; 'I' for Inactive)
REMARK    1  A    between atoms: C_2  and  C_4
REMARK    2  A    between atoms: C_4  and  C_5
REMARK    3  A    between atoms: C_4  and  C_12
REMARK    4  A    between atoms: C_4  and  C_19
REMARK                            x       y       z     vdW  Elec       q    Type
REMARK                         _______ _______ _______ _____ _____    ______ ____
ROOT
ATOM      1  C   UNL     1       4.775   4.924  17.870  0.00  0.00    +0.000 C 
ENDROOT
BRANCH   1   2
ATOM      2  C   UNL     1       5.420   4.920  16.427  0.00  0.00    +0.000 A 
ATOM      3  C   UNL     1       6.644   5.572  16.165  0.00  0.00    +0.000 A 
ATOM      4  C   UNL     1       7.257   5.496  14.908  0.00  0.00    +0.000 A 
ATOM      5  C   UNL     1       6.630   4.828  13.862  0.00  0.00    +0.000 A 
ATOM      6  C   UNL     1       5.377   4.275  14.070  0.00  0.00    +0.000 A 
ATOM      7  F   UNL     1       4.744   3.667  13.061  0.00  0.00    +0.000 F 
ATOM      8  C   UNL     1       4.769   4.330  15.322  0.00  0.00    +0.000 A 
ENDBRANCH   1   2
BRANCH   1   9
ATOM      9  C   UNL     1       3.846   3.682  18.147  0.00  0.00    +0.000 A 
ATOM     10  C   UNL     1       4.383   2.404  18.425  0.00  0.00    +0.000 A 
ATOM     11  C   UNL     1       3.560   1.314  18.739  0.00  0.00    +0.000 A 
ATOM     12  C   UNL     1       2.178   1.455  18.717  0.00  0.00    +0.000 A 
ATOM     13  C   UNL     1       1.632   2.676  18.355  0.00  0.00    +0.000 A 
ATOM     14  F   UNL     1       0.300   2.807  18.296  0.00  0.00    +0.000 F 
ATOM     15  C   UNL     1       2.443   3.771  18.059  0.00  0.00    +0.000 A 
ENDBRANCH   1   9
BRANCH   1  16
ATOM     16  C   UNL     1       3.877   6.190  18.120  0.00  0.00    +0.000 A 
ATOM     17  C   UNL     1       3.838   7.264  17.207  0.00  0.00    +0.000 A 
ATOM     18  C   UNL     1       2.996   8.366  17.413  0.00  0.00    +0.000 A 
ATOM     19  C   UNL     1       2.184   8.424  18.543  0.00  0.00    +0.000 A 
ATOM     20  C   UNL     1       2.258   7.409  19.480  0.00  0.00    +0.000 A 
ATOM     21  F   UNL     1       1.478   7.455  20.569  0.00  0.00    +0.000 F 
ATOM     22  C   UNL     1       3.115   6.326  19.300  0.00  0.00    +0.000 A 
ENDBRANCH   1  16
BRANCH   1  24
ATOM     23  N   UNL     1       7.168   4.230  18.409  0.00  0.00    +0.000 N 
ATOM     24  C   UNL     1       6.057   4.920  18.835  0.00  0.00    +0.000 C 
ATOM     25  O   UNL     1       6.120   5.446  19.944  0.00  0.00    +0.000 OA
ATOM     26  H   UNL     1       7.920   4.146  19.080  0.00  0.00    +0.000 HD
ATOM     27  H   UNL     1       7.120   3.534  17.680  0.00  0.00    +0.000 HD
ENDBRANCH   1  24
TORSDOF 4
ENDMDL
