MODEL 1
REMARK VINA RESULT:      -8.2      0.000      0.000
REMARK  Name = 
REMARK  6 active torsions:
REMARK  status: ('A' for Active; 'I' for Inactive)
REMARK    1  A    between atoms: C_1  and  O_2
REMARK    2  A    between atoms: O_2  and  C_3
REMARK    3  A    between atoms: C_8  and  C_9
REMARK    4  A    between atoms: C_11  and  C_12
REMARK    5  A    between atoms: C_14  and  C_15
REMARK    6  A    between atoms: C_20  and  C_21
REMARK                            x       y       z     vdW  Elec       q    Type
REMARK                         _______ _______ _______ _____ _____    ______ ____
ROOT
ATOM      1  C   UNL     1       3.677   2.923  19.896  0.00  0.00    +0.000 A 
ATOM      2  C   UNL     1       2.944   2.907  21.069  0.00  0.00    +0.000 A 
ATOM      3  C   UNL     1       2.214   4.039  21.402  0.00  0.00    +0.000 A 
ATOM      4  C   UNL     1       2.269   5.164  20.582  0.00  0.00    +0.000 A 
ATOM      5  N   UNL     1       1.498   6.280  20.956  0.00  0.00    +0.000 NA
ATOM      6  C   UNL     1       1.556   7.355  20.231  0.00  0.00    +0.000 A 
ATOM      7  C   UNL     1       0.696   8.518  20.638  0.00  0.00    +0.000 C 
ATOM      8  C   UNL     1       2.419   7.421  19.078  0.00  0.00    +0.000 A 
ATOM      9  C   UNL     1       2.701   8.401  18.150  0.00  0.00    +0.000 A 
ATOM     10  C   UNL     1       2.201   9.782  17.960  0.00  0.00    +0.000 C 
ATOM     11  N   UNL     1       3.633   7.936  17.263  0.00  0.00    +0.000 NA
ATOM     12  C   UNL     1       3.928   6.686  17.587  0.00  0.00    +0.000 A 
ATOM     13  N   UNL     1       3.180   6.317  18.705  0.00  0.00    +0.000 N 
ATOM     14  C   UNL     1       3.090   5.104  19.443  0.00  0.00    +0.000 A 
ATOM     15  N   UNL     1       3.772   3.994  19.074  0.00  0.00    +0.000 NA
ENDROOT
BRANCH  12  16
ATOM     16  C   UNL     1       4.904   5.897  16.810  0.00  0.00    +0.000 A 
ATOM     17  C   UNL     1       4.540   4.721  16.145  0.00  0.00    +0.000 A 
ATOM     18  C   UNL     1       5.474   4.005  15.396  0.00  0.00    +0.000 A 
ATOM     19  C   UNL     1       6.774   4.462  15.362  0.00  0.00    +0.000 A 
ATOM     20  N   UNL     1       7.194   5.543  16.042  0.00  0.00    +0.000 NA
ATOM     21  C   UNL     1       6.271   6.236  16.771  0.00  0.00    +0.000 A 
ATOM     22  C   UNL     1       6.845   7.393  17.543  0.00  0.00    +0.000 C 
ENDBRANCH  12  16
BRANCH   1  24
ATOM     23  C   UNL     1       3.977   1.115  18.451  0.00  0.00    +0.000 C 
ATOM     24  O   UNL     1       4.402   1.778  19.632  0.00  0.00    +0.000 OA
ENDBRANCH   1  24
TORSDOF 2
ENDMDL
MODEL 2
REMARK VINA RESULT:      -7.0      2.249      5.736
REMARK  Name = 
REMARK  6 active torsions:
REMARK  status: ('A' for Active; 'I' for Inactive)
REMARK    1  A    between atoms: C_1  and  O_2
REMARK    2  A    between atoms: O_2  and  C_3
REMARK    3  A    between atoms: C_8  and  C_9
REMARK    4  A    between atoms: C_11  and  C_12
REMARK    5  A    between atoms: C_14  and  C_15
REMARK    6  A    between atoms: C_20  and  C_21
REMARK                            x       y       z     vdW  Elec       q    Type
REMARK                         _______ _______ _______ _____ _____    ______ ____
ROOT
ATOM      1  C   UNL     1       6.311   7.055  17.557  0.00  0.00    +0.000 A 
ATOM      2  C   UNL     1       7.334   6.126  17.630  0.00  0.00    +0.000 A 
ATOM      3  C   UNL     1       7.051   4.881  18.175  0.00  0.00    +0.000 A 
ATOM      4  C   UNL     1       5.775   4.615  18.668  0.00  0.00    +0.000 A 
ATOM      5  N   UNL     1       5.537   3.332  19.196  0.00  0.00    +0.000 NA
ATOM      6  C   UNL     1       4.369   3.066  19.694  0.00  0.00    +0.000 A 
ATOM      7  C   UNL     1       4.135   1.677  20.220  0.00  0.00    +0.000 C 
ATOM      8  C   UNL     1       3.338   4.073  19.739  0.00  0.00    +0.000 A 
ATOM      9  C   UNL     1       2.043   4.095  20.209  0.00  0.00    +0.000 A 
ATOM     10  C   UNL     1       1.183   3.068  20.841  0.00  0.00    +0.000 C 
ATOM     11  N   UNL     1       1.509   5.341  20.022  0.00  0.00    +0.000 NA
ATOM     12  C   UNL     1       2.419   6.097  19.426  0.00  0.00    +0.000 A 
ATOM     13  N   UNL     1       3.572   5.341  19.214  0.00  0.00    +0.000 N 
ATOM     14  C   UNL     1       4.821   5.644  18.604  0.00  0.00    +0.000 A 
ATOM     15  N   UNL     1       5.061   6.848  18.033  0.00  0.00    +0.000 NA
ENDROOT
BRANCH  12  16
ATOM     16  C   UNL     1       2.144   7.505  19.079  0.00  0.00    +0.000 A 
ATOM     17  C   UNL     1       2.455   8.028  17.819  0.00  0.00    +0.000 A 
ATOM     18  C   UNL     1       2.163   9.356  17.504  0.00  0.00    +0.000 A 
ATOM     19  C   UNL     1       1.601  10.151  18.479  0.00  0.00    +0.000 A 
ATOM     20  N   UNL     1       1.351   9.721  19.728  0.00  0.00    +0.000 NA
ATOM     21  C   UNL     1       1.639   8.419  20.024  0.00  0.00    +0.000 A 
ATOM     22  C   UNL     1       1.382   8.047  21.459  0.00  0.00    +0.000 C 
ENDBRANCH  12  16
BRANCH   1  24
ATOM     23  C   UNL     1       7.824   8.830  17.630  0.00  0.00    +0.000 C 
ATOM     24  O   UNL     1       6.660   8.282  17.030  0.00  0.00    +0.000 OA
ENDBRANCH   1  24
TORSDOF 2
ENDMDL
MODEL 3
REMARK VINA RESULT:      -7.0      5.969      8.949
REMARK  Name = 
REMARK  6 active torsions:
REMARK  status: ('A' for Active; 'I' for Inactive)
REMARK    1  A    between atoms: C_1  and  O_2
REMARK    2  A    between atoms: O_2  and  C_3
REMARK    3  A    between atoms: C_8  and  C_9
REMARK    4  A    between atoms: C_11  and  C_12
REMARK    5  A    between atoms: C_14  and  C_15
REMARK    6  A    between atoms: C_20  and  C_21
REMARK                            x       y       z     vdW  Elec       q    Type
REMARK                         _______ _______ _______ _____ _____    ______ ____
ROOT
ATOM      1  C   UNL     1      -3.068  11.116  16.527  0.00  0.00    +0.000 A 
ATOM      2  C   UNL     1      -4.436  11.327  16.524  0.00  0.00    +0.000 A 
ATOM      3  C   UNL     1      -5.022  11.848  17.670  0.00  0.00    +0.000 A 
ATOM      4  C   UNL     1      -4.239  12.100  18.794  0.00  0.00    +0.000 A 
ATOM      5  N   UNL     1      -4.879  12.642  19.924  0.00  0.00    +0.000 NA
ATOM      6  C   UNL     1      -4.182  12.855  20.998  0.00  0.00    +0.000 A 
ATOM      7  C   UNL     1      -4.887  13.465  22.177  0.00  0.00    +0.000 C 
ATOM      8  C   UNL     1      -2.781  12.515  21.049  0.00  0.00    +0.000 A 
ATOM      9  C   UNL     1      -1.812  12.605  22.024  0.00  0.00    +0.000 A 
ATOM     10  C   UNL     1      -1.824  13.115  23.414  0.00  0.00    +0.000 C 
ATOM     11  N   UNL     1      -0.632  12.107  21.543  0.00  0.00    +0.000 NA
ATOM     12  C   UNL     1      -0.822  11.730  20.287  0.00  0.00    +0.000 A 
ATOM     13  N   UNL     1      -2.147  11.983  19.931  0.00  0.00    +0.000 N 
ATOM     14  C   UNL     1      -2.869  11.796  18.719  0.00  0.00    +0.000 A 
ATOM     15  N   UNL     1      -2.269  11.334  17.597  0.00  0.00    +0.000 NA
ENDROOT
BRANCH  12  16
ATOM     16  C   UNL     1       0.272  11.152  19.480  0.00  0.00    +0.000 A 
ATOM     17  C   UNL     1       0.487   9.772  19.410  0.00  0.00    +0.000 A 
ATOM     18  C   UNL     1       1.511   9.247  18.621  0.00  0.00    +0.000 A 
ATOM     19  C   UNL     1       2.333  10.125  17.947  0.00  0.00    +0.000 A 
ATOM     20  N   UNL     1       2.217  11.461  18.038  0.00  0.00    +0.000 NA
ATOM     21  C   UNL     1       1.210  11.963  18.812  0.00  0.00    +0.000 A 
ATOM     22  C   UNL     1       1.197  13.465  18.900  0.00  0.00    +0.000 C 
ENDBRANCH  12  16
BRANCH   1  24
ATOM     23  C   UNL     1      -3.553  10.146  14.461  0.00  0.00    +0.000 C 
ATOM     24  O   UNL     1      -2.549  10.574  15.369  0.00  0.00    +0.000 OA
ENDBRANCH   1  24
TORSDOF 2
ENDMDL
MODEL 4
REMARK VINA RESULT:      -6.9      1.944      4.449
REMARK  Name = 
REMARK  6 active torsions:
REMARK  status: ('A' for Active; 'I' for Inactive)
REMARK    1  A    between atoms: C_1  and  O_2
REMARK    2  A    between atoms: O_2  and  C_3
REMARK    3  A    between atoms: C_8  and  C_9
REMARK    4  A    between atoms: C_11  and  C_12
REMARK    5  A    between atoms: C_14  and  C_15
REMARK    6  A    between atoms: C_20  and  C_21
REMARK                            x       y       z     vdW  Elec       q    Type
REMARK                         _______ _______ _______ _____ _____    ______ ____
ROOT
ATOM      1  C   UNL     1       2.702   7.889  18.349  0.00  0.00    +0.000 A 
ATOM      2  C   UNL     1       1.639   8.065  19.217  0.00  0.00    +0.000 A 
ATOM      3  C   UNL     1       1.367   7.059  20.133  0.00  0.00    +0.000 A 
ATOM      4  C   UNL     1       2.130   5.893  20.128  0.00  0.00    +0.000 A 
ATOM      5  N   UNL     1       1.823   4.911  21.088  0.00  0.00    +0.000 NA
ATOM      6  C   UNL     1       2.493   3.800  21.086  0.00  0.00    +0.000 A 
ATOM      7  C   UNL     1       2.163   2.784  22.144  0.00  0.00    +0.000 C 
ATOM      8  C   UNL     1       3.517   3.557  20.100  0.00  0.00    +0.000 A 
ATOM      9  C   UNL     1       4.361   2.500  19.839  0.00  0.00    +0.000 A 
ATOM     10  C   UNL     1       4.567   1.189  20.496  0.00  0.00    +0.000 C 
ATOM     11  N   UNL     1       5.132   2.789  18.746  0.00  0.00    +0.000 NA
ATOM     12  C   UNL     1       4.817   4.005  18.326  0.00  0.00    +0.000 A 
ATOM     13  N   UNL     1       3.824   4.530  19.153  0.00  0.00    +0.000 N 
ATOM     14  C   UNL     1       3.150   5.783  19.168  0.00  0.00    +0.000 A 
ATOM     15  N   UNL     1       3.464   6.771  18.298  0.00  0.00    +0.000 NA
ENDROOT
BRANCH  12  16
ATOM     16  C   UNL     1       5.484   4.615  17.158  0.00  0.00    +0.000 A 
ATOM     17  C   UNL     1       5.046   4.377  15.851  0.00  0.00    +0.000 A 
ATOM     18  C   UNL     1       5.676   4.984  14.764  0.00  0.00    +0.000 A 
ATOM     19  C   UNL     1       6.768   5.789  15.007  0.00  0.00    +0.000 A 
ATOM     20  N   UNL     1       7.276   5.992  16.236  0.00  0.00    +0.000 NA
ATOM     21  C   UNL     1       6.650   5.394  17.291  0.00  0.00    +0.000 A 
ATOM     22  C   UNL     1       7.324   5.630  18.615  0.00  0.00    +0.000 C 
ENDBRANCH  12  16
BRANCH   1  24
ATOM     23  C   UNL     1       2.194  10.093  17.778  0.00  0.00    +0.000 C 
ATOM     24  O   UNL     1       2.908   8.912  17.445  0.00  0.00    +0.000 OA
ENDBRANCH   1  24
TORSDOF 2
ENDMDL
MODEL 5
REMARK VINA RESULT:      -6.8      6.797      9.567
REMARK  Name = 
REMARK  6 active torsions:
REMARK  status: ('A' for Active; 'I' for Inactive)
REMARK    1  A    between atoms: C_1  and  O_2
REMARK    2  A    between atoms: O_2  and  C_3
REMARK    3  A    between atoms: C_8  and  C_9
REMARK    4  A    between atoms: C_11  and  C_12
REMARK    5  A    between atoms: C_14  and  C_15
REMARK    6  A    between atoms: C_20  and  C_21
REMARK                            x       y       z     vdW  Elec       q    Type
REMARK                         _______ _______ _______ _____ _____    ______ ____
ROOT
ATOM      1  C   UNL     1      -3.242  11.321  16.714  0.00  0.00    +0.000 A 
ATOM      2  C   UNL     1      -4.606  11.088  16.686  0.00  0.00    +0.000 A 
ATOM      3  C   UNL     1      -5.347  11.397  17.818  0.00  0.00    +0.000 A 
ATOM      4  C   UNL     1      -4.705  11.883  18.955  0.00  0.00    +0.000 A 
ATOM      5  N   UNL     1      -5.505  12.194  20.070  0.00  0.00    +0.000 NA
ATOM      6  C   UNL     1      -4.932  12.616  21.155  0.00  0.00    +0.000 A 
ATOM      7  C   UNL     1      -5.815  12.971  22.318  0.00  0.00    +0.000 C 
ATOM      8  C   UNL     1      -3.496  12.736  21.233  0.00  0.00    +0.000 A 
ATOM      9  C   UNL     1      -2.623  13.128  22.225  0.00  0.00    +0.000 A 
ATOM     10  C   UNL     1      -2.822  13.607  23.612  0.00  0.00    +0.000 C 
ATOM     11  N   UNL     1      -1.337  13.028  21.767  0.00  0.00    +0.000 NA
ATOM     12  C   UNL     1      -1.375  12.611  20.510  0.00  0.00    +0.000 A 
ATOM     13  N   UNL     1      -2.706  12.432  20.129  0.00  0.00    +0.000 N 
ATOM     14  C   UNL     1      -3.308  12.028  18.906  0.00  0.00    +0.000 A 
ATOM     15  N   UNL     1      -2.572  11.779  17.797  0.00  0.00    +0.000 NA
ENDROOT
BRANCH  12  16
ATOM     16  C   UNL     1      -0.140  12.409  19.726  0.00  0.00    +0.000 A 
ATOM     17  C   UNL     1       0.481  13.461  19.045  0.00  0.00    +0.000 A 
ATOM     18  C   UNL     1       1.661  13.252  18.331  0.00  0.00    +0.000 A 
ATOM     19  C   UNL     1       2.177  11.975  18.278  0.00  0.00    +0.000 A 
ATOM     20  N   UNL     1       1.581  10.915  18.852  0.00  0.00    +0.000 NA
ATOM     21  C   UNL     1       0.427  11.132  19.549  0.00  0.00    +0.000 A 
ATOM     22  C   UNL     1      -0.197   9.880  20.103  0.00  0.00    +0.000 C 
ENDBRANCH  12  16
BRANCH   1  24
ATOM     23  C   UNL     1      -3.337  10.193  14.674  0.00  0.00    +0.000 C 
ATOM     24  O   UNL     1      -2.556  10.971  15.569  0.00  0.00    +0.000 OA
ENDBRANCH   1  24
TORSDOF 2
ENDMDL
MODEL 6
REMARK VINA RESULT:      -6.7      5.688      8.704
REMARK  Name = 
REMARK  6 active torsions:
REMARK  status: ('A' for Active; 'I' for Inactive)
REMARK    1  A    between atoms: C_1  and  O_2
REMARK    2  A    between atoms: O_2  and  C_3
REMARK    3  A    between atoms: C_8  and  C_9
REMARK    4  A    between atoms: C_11  and  C_12
REMARK    5  A    between atoms: C_14  and  C_15
REMARK    6  A    between atoms: C_20  and  C_21
REMARK                            x       y       z     vdW  Elec       q    Type
REMARK                         _______ _______ _______ _____ _____    ______ ____
ROOT
ATOM      1  C   UNL     1      -3.156  10.529  17.119  0.00  0.00    +0.000 A 
ATOM      2  C   UNL     1      -4.466  10.974  17.117  0.00  0.00    +0.000 A 
ATOM      3  C   UNL     1      -4.869  11.830  18.133  0.00  0.00    +0.000 A 
ATOM      4  C   UNL     1      -3.972  12.180  19.140  0.00  0.00    +0.000 A 
ATOM      5  N   UNL     1      -4.426  13.063  20.137  0.00  0.00    +0.000 NA
ATOM      6  C   UNL     1      -3.625  13.380  21.106  0.00  0.00    +0.000 A 
ATOM      7  C   UNL     1      -4.127  14.351  22.139  0.00  0.00    +0.000 C 
ATOM      8  C   UNL     1      -2.299  12.816  21.184  0.00  0.00    +0.000 A 
ATOM      9  C   UNL     1      -1.257  12.944  22.075  0.00  0.00    +0.000 A 
ATOM     10  C   UNL     1      -1.079  13.742  23.310  0.00  0.00    +0.000 C 
ATOM     11  N   UNL     1      -0.216  12.150  21.679  0.00  0.00    +0.000 NA
ATOM     12  C   UNL     1      -0.560  11.545  20.552  0.00  0.00    +0.000 A 
ATOM     13  N   UNL     1      -1.849  11.946  20.195  0.00  0.00    +0.000 N 
ATOM     14  C   UNL     1      -2.681  11.628  19.087  0.00  0.00    +0.000 A 
ATOM     15  N   UNL     1      -2.253  10.831  18.080  0.00  0.00    +0.000 NA
ENDROOT
BRANCH  12  16
ATOM     16  C   UNL     1       0.358  10.619  19.860  0.00  0.00    +0.000 A 
ATOM     17  C   UNL     1       0.993  10.967  18.664  0.00  0.00    +0.000 A 
ATOM     18  C   UNL     1       1.877  10.084  18.041  0.00  0.00    +0.000 A 
ATOM     19  C   UNL     1       2.076   8.846  18.611  0.00  0.00    +0.000 A 
ATOM     20  N   UNL     1       1.435   8.433  19.719  0.00  0.00    +0.000 NA
ATOM     21  C   UNL     1       0.573   9.305  20.320  0.00  0.00    +0.000 A 
ATOM     22  C   UNL     1      -0.140   8.734  21.515  0.00  0.00    +0.000 C 
ENDBRANCH  12  16
BRANCH   1  24
ATOM     23  C   UNL     1      -3.028  10.219  14.809  0.00  0.00    +0.000 C 
ATOM     24  O   UNL     1      -2.823   9.661  16.099  0.00  0.00    +0.000 OA
ENDBRANCH   1  24
TORSDOF 2
ENDMDL
MODEL 7
REMARK VINA RESULT:      -6.6      0.721      1.467
REMARK  Name = 
REMARK  6 active torsions:
REMARK  status: ('A' for Active; 'I' for Inactive)
REMARK    1  A    between atoms: C_1  and  O_2
REMARK    2  A    between atoms: O_2  and  C_3
REMARK    3  A    between atoms: C_8  and  C_9
REMARK    4  A    between atoms: C_11  and  C_12
REMARK    5  A    between atoms: C_14  and  C_15
REMARK    6  A    between atoms: C_20  and  C_21
REMARK                            x       y       z     vdW  Elec       q    Type
REMARK                         _______ _______ _______ _____ _____    ______ ____
ROOT
ATOM      1  C   UNL     1       3.689   2.765  20.202  0.00  0.00    +0.000 A 
ATOM      2  C   UNL     1       2.927   2.752  21.357  0.00  0.00    +0.000 A 
ATOM      3  C   UNL     1       2.158   3.872  21.647  0.00  0.00    +0.000 A 
ATOM      4  C   UNL     1       2.206   4.981  20.806  0.00  0.00    +0.000 A 
ATOM      5  N   UNL     1       1.396   6.084  21.138  0.00  0.00    +0.000 NA
ATOM      6  C   UNL     1       1.446   7.145  20.393  0.00  0.00    +0.000 A 
ATOM      7  C   UNL     1       0.545   8.293  20.754  0.00  0.00    +0.000 C 
ATOM      8  C   UNL     1       2.337   7.212  19.261  0.00  0.00    +0.000 A 
ATOM      9  C   UNL     1       2.617   8.180  18.321  0.00  0.00    +0.000 A 
ATOM     10  C   UNL     1       2.086   9.543  18.090  0.00  0.00    +0.000 C 
ATOM     11  N   UNL     1       3.583   7.723  17.467  0.00  0.00    +0.000 NA
ATOM     12  C   UNL     1       3.902   6.487  17.824  0.00  0.00    +0.000 A 
ATOM     13  N   UNL     1       3.135   6.120  18.930  0.00  0.00    +0.000 N 
ATOM     14  C   UNL     1       3.057   4.920  19.690  0.00  0.00    +0.000 A 
ATOM     15  N   UNL     1       3.777   3.821  19.362  0.00  0.00    +0.000 NA
ENDROOT
BRANCH  12  16
ATOM     16  C   UNL     1       4.919   5.709  17.089  0.00  0.00    +0.000 A 
ATOM     17  C   UNL     1       6.226   6.177  16.920  0.00  0.00    +0.000 A 
ATOM     18  C   UNL     1       7.177   5.414  16.243  0.00  0.00    +0.000 A 
ATOM     19  C   UNL     1       6.785   4.206  15.706  0.00  0.00    +0.000 A 
ATOM     20  N   UNL     1       5.524   3.743  15.774  0.00  0.00    +0.000 NA
ATOM     21  C   UNL     1       4.603   4.499  16.441  0.00  0.00    +0.000 A 
ATOM     22  C   UNL     1       3.210   3.930  16.412  0.00  0.00    +0.000 C 
ENDBRANCH  12  16
BRANCH   1  24
ATOM     23  C   UNL     1       4.151   1.001  18.746  0.00  0.00    +0.000 C 
ATOM     24  O   UNL     1       4.450   1.635  19.981  0.00  0.00    +0.000 OA
ENDBRANCH   1  24
TORSDOF 2
ENDMDL
MODEL 8
REMARK VINA RESULT:      -6.5      9.384     10.772
REMARK  Name = 
REMARK  6 active torsions:
REMARK  status: ('A' for Active; 'I' for Inactive)
REMARK    1  A    between atoms: C_1  and  O_2
REMARK    2  A    between atoms: O_2  and  C_3
REMARK    3  A    between atoms: C_8  and  C_9
REMARK    4  A    between atoms: C_11  and  C_12
REMARK    5  A    between atoms: C_14  and  C_15
REMARK    6  A    between atoms: C_20  and  C_21
REMARK                            x       y       z     vdW  Elec       q    Type
REMARK                         _______ _______ _______ _____ _____    ______ ____
ROOT
ATOM      1  C   UNL     1       6.458  13.416  22.624  0.00  0.00    +0.000 A 
ATOM      2  C   UNL     1       7.138  12.469  23.368  0.00  0.00    +0.000 A 
ATOM      3  C   UNL     1       8.388  12.059  22.923  0.00  0.00    +0.000 A 
ATOM      4  C   UNL     1       8.900  12.568  21.732  0.00  0.00    +0.000 A 
ATOM      5  N   UNL     1      10.177  12.132  21.333  0.00  0.00    +0.000 NA
ATOM      6  C   UNL     1      10.665  12.562  20.211  0.00  0.00    +0.000 A 
ATOM      7  C   UNL     1      12.045  12.103  19.829  0.00  0.00    +0.000 C 
ATOM      8  C   UNL     1       9.904  13.449  19.366  0.00  0.00    +0.000 A 
ATOM      9  C   UNL     1      10.141  14.044  18.146  0.00  0.00    +0.000 A 
ATOM     10  C   UNL     1      11.298  14.022  17.222  0.00  0.00    +0.000 C 
ATOM     11  N   UNL     1       9.051  14.784  17.779  0.00  0.00    +0.000 NA
ATOM     12  C   UNL     1       8.145  14.696  18.741  0.00  0.00    +0.000 A 
ATOM     13  N   UNL     1       8.643  13.885  19.762  0.00  0.00    +0.000 N 
ATOM     14  C   UNL     1       8.106  13.481  21.016  0.00  0.00    +0.000 A 
ATOM     15  N   UNL     1       6.908  13.931  21.456  0.00  0.00    +0.000 NA
ENDROOT
BRANCH  12  16
ATOM     16  C   UNL     1       6.848  15.395  18.648  0.00  0.00    +0.000 A 
ATOM     17  C   UNL     1       5.728  14.796  18.062  0.00  0.00    +0.000 A 
ATOM     18  C   UNL     1       4.506  15.467  18.007  0.00  0.00    +0.000 A 
ATOM     19  C   UNL     1       4.440  16.750  18.506  0.00  0.00    +0.000 A 
ATOM     20  N   UNL     1       5.504  17.400  19.012  0.00  0.00    +0.000 NA
ATOM     21  C   UNL     1       6.694  16.733  19.061  0.00  0.00    +0.000 A 
ATOM     22  C   UNL     1       7.836  17.559  19.586  0.00  0.00    +0.000 C 
ENDBRANCH  12  16
BRANCH   1  24
ATOM     23  C   UNL     1       4.470  14.558  22.188  0.00  0.00    +0.000 C 
ATOM     24  O   UNL     1       5.211  13.765  23.103  0.00  0.00    +0.000 OA
ENDBRANCH   1  24
TORSDOF 2
ENDMDL
MODEL 9
REMARK VINA RESULT:      -6.5      7.905     10.423
REMARK  Name = 
REMARK  6 active torsions:
REMARK  status: ('A' for Active; 'I' for Inactive)
REMARK    1  A    between atoms: C_1  and  O_2
REMARK    2  A    between atoms: O_2  and  C_3
REMARK    3  A    between atoms: C_8  and  C_9
REMARK    4  A    between atoms: C_11  and  C_12
REMARK    5  A    between atoms: C_14  and  C_15
REMARK    6  A    between atoms: C_20  and  C_21
REMARK                            x       y       z     vdW  Elec       q    Type
REMARK                         _______ _______ _______ _____ _____    ______ ____
ROOT
ATOM      1  C   UNL     1      -3.390  11.439  17.157  0.00  0.00    +0.000 A 
ATOM      2  C   UNL     1      -4.689  11.193  16.751  0.00  0.00    +0.000 A 
ATOM      3  C   UNL     1      -5.717  11.451  17.649  0.00  0.00    +0.000 A 
ATOM      4  C   UNL     1      -5.417  11.902  18.932  0.00  0.00    +0.000 A 
ATOM      5  N   UNL     1      -6.496  12.163  19.798  0.00  0.00    +0.000 NA
ATOM      6  C   UNL     1      -6.248  12.550  21.011  0.00  0.00    +0.000 A 
ATOM      7  C   UNL     1      -7.421  12.852  21.901  0.00  0.00    +0.000 C 
ATOM      8  C   UNL     1      -4.890  12.684  21.480  0.00  0.00    +0.000 A 
ATOM      9  C   UNL     1      -4.327  13.047  22.684  0.00  0.00    +0.000 A 
ATOM     10  C   UNL     1      -4.905  13.473  23.979  0.00  0.00    +0.000 C 
ATOM     11  N   UNL     1      -2.964  12.979  22.590  0.00  0.00    +0.000 NA
ATOM     12  C   UNL     1      -2.650  12.608  21.357  0.00  0.00    +0.000 A 
ATOM     13  N   UNL     1      -3.823  12.429  20.623  0.00  0.00    +0.000 N 
ATOM     14  C   UNL     1      -4.063  12.064  19.270  0.00  0.00    +0.000 A 
ATOM     15  N   UNL     1      -3.049  11.865  18.395  0.00  0.00    +0.000 NA
ENDROOT
BRANCH  12  16
ATOM     16  C   UNL     1      -1.245  12.449  20.933  0.00  0.00    +0.000 A 
ATOM     17  C   UNL     1      -0.533  11.269  21.169  0.00  0.00    +0.000 A 
ATOM     18  C   UNL     1       0.787  11.132  20.736  0.00  0.00    +0.000 A 
ATOM     19  C   UNL     1       1.384  12.204  20.109  0.00  0.00    +0.000 A 
ATOM     20  N   UNL     1       0.770  13.386  19.923  0.00  0.00    +0.000 NA
ATOM     21  C   UNL     1      -0.521  13.507  20.350  0.00  0.00    +0.000 A 
ATOM     22  C   UNL     1      -1.103  14.881  20.153  0.00  0.00    +0.000 C 
ENDBRANCH  12  16
BRANCH   1  24
ATOM     23  C   UNL     1      -2.910  10.415  15.116  0.00  0.00    +0.000 C 
ATOM     24  O   UNL     1      -2.411  11.139  16.231  0.00  0.00    +0.000 OA
ENDBRANCH   1  24
TORSDOF 2
ENDMDL
