MODEL 1
REMARK VINA RESULT:      -6.6      0.000      0.000
REMARK  Name = 
REMARK  4 active torsions:
REMARK  status: ('A' for Active; 'I' for Inactive)
REMARK    1  A    between atoms: C_1  and  C_2
REMARK    2  A    between atoms: C_2  and  C_3
REMARK    3  A    between atoms: C_8  and  C_9
REMARK    4  A    between atoms: N_13  and  N_14
REMARK                            x       y       z     vdW  Elec       q    Type
REMARK                         _______ _______ _______ _____ _____    ______ ____
ROOT
ATOM      1  C   UNL     1       4.573   4.510  18.093  0.00  0.00    +0.000 A 
ATOM      2  N   UNL     1       4.299   4.159  16.815  0.00  0.00    +0.000 NA
ATOM      3  N   UNL     1       5.248   4.486  15.939  0.00  0.00    +0.000 NA
ATOM      4  C   UNL     1       6.299   5.106  16.509  0.00  0.00    +0.000 A 
ATOM      5  N   UNL     1       7.445   5.552  15.792  0.00  0.00    +0.000 N 
ATOM      6  S   UNL     1       6.084   5.278  18.166  0.00  0.00    +0.000 S 
ATOM      7  H   UNL     1       8.207   6.013  16.314  0.00  0.00    +0.000 HD
ENDROOT
BRANCH   1  13
ATOM      8  C   UNL     1       2.765   5.240  19.791  0.00  0.00    +0.000 A 
ATOM      9  C   UNL     1       1.958   4.903  20.896  0.00  0.00    +0.000 A 
ATOM     10  C   UNL     1       2.021   3.639  21.473  0.00  0.00    +0.000 A 
ATOM     11  C   UNL     1       2.881   2.679  20.954  0.00  0.00    +0.000 A 
ATOM     12  C   UNL     1       3.691   2.983  19.860  0.00  0.00    +0.000 A 
ATOM     13  C   UNL     1       3.665   4.261  19.258  0.00  0.00    +0.000 A 
BRANCH   8  15
ATOM     14  C   UNL     1       1.888   7.553  20.229  0.00  0.00    +0.000 C 
ATOM     15  C   UNL     1       2.605   6.642  19.236  0.00  0.00    +0.000 C 
ENDBRANCH   8  15
ENDBRANCH   1  13
BRANCH   5  16
ATOM     16  N   UNL     1       7.571   5.395  14.414  0.00  0.00    +0.000 NA
ATOM     17  H   UNL     1       6.746   5.790  13.916  0.00  0.00    +0.000 HD
ATOM     18  H   UNL     1       7.611   4.368  14.216  0.00  0.00    +0.000 HD
ENDBRANCH   5  16
TORSDOF 3
ENDMDL
MODEL 2
REMARK VINA RESULT:      -6.5      1.198      2.558
REMARK  Name = 
REMARK  4 active torsions:
REMARK  status: ('A' for Active; 'I' for Inactive)
REMARK    1  A    between atoms: C_1  and  C_2
REMARK    2  A    between atoms: C_2  and  C_3
REMARK    3  A    between atoms: C_8  and  C_9
REMARK    4  A    between atoms: N_13  and  N_14
REMARK                            x       y       z     vdW  Elec       q    Type
REMARK                         _______ _______ _______ _____ _____    ______ ____
ROOT
ATOM      1  C   UNL     1       4.241   4.816  17.632  0.00  0.00    +0.000 A 
ATOM      2  N   UNL     1       4.261   4.264  16.397  0.00  0.00    +0.000 NA
ATOM      3  N   UNL     1       5.336   4.573  15.674  0.00  0.00    +0.000 NA
ATOM      4  C   UNL     1       6.195   5.381  16.326  0.00  0.00    +0.000 A 
ATOM      5  N   UNL     1       7.420   5.852  15.775  0.00  0.00    +0.000 N 
ATOM      6  S   UNL     1       5.636   5.754  17.865  0.00  0.00    +0.000 S 
ATOM      7  H   UNL     1       8.018   6.464  16.350  0.00  0.00    +0.000 HD
ENDROOT
BRANCH   1  13
ATOM      8  C   UNL     1       2.354   3.434  18.734  0.00  0.00    +0.000 A 
ATOM      9  C   UNL     1       1.338   3.363  19.707  0.00  0.00    +0.000 A 
ATOM     10  C   UNL     1       1.090   4.427  20.568  0.00  0.00    +0.000 A 
ATOM     11  C   UNL     1       1.858   5.582  20.486  0.00  0.00    +0.000 A 
ATOM     12  C   UNL     1       2.872   5.682  19.533  0.00  0.00    +0.000 A 
ATOM     13  C   UNL     1       3.142   4.627  18.632  0.00  0.00    +0.000 A 
BRANCH   8  15
ATOM     14  C   UNL     1       3.621   1.288  18.419  0.00  0.00    +0.000 C 
ATOM     15  C   UNL     1       2.542   2.211  17.859  0.00  0.00    +0.000 C 
ENDBRANCH   8  15
ENDBRANCH   1  13
BRANCH   5  16
ATOM     16  N   UNL     1       7.834   5.522  14.486  0.00  0.00    +0.000 NA
ATOM     17  H   UNL     1       8.572   4.788  14.508  0.00  0.00    +0.000 HD
ATOM     18  H   UNL     1       8.244   6.384  14.056  0.00  0.00    +0.000 HD
ENDBRANCH   5  16
TORSDOF 3
ENDMDL
MODEL 3
REMARK VINA RESULT:      -6.5      2.035      2.517
REMARK  Name = 
REMARK  4 active torsions:
REMARK  status: ('A' for Active; 'I' for Inactive)
REMARK    1  A    between atoms: C_1  and  C_2
REMARK    2  A    between atoms: C_2  and  C_3
REMARK    3  A    between atoms: C_8  and  C_9
REMARK    4  A    between atoms: N_13  and  N_14
REMARK                            x       y       z     vdW  Elec       q    Type
REMARK                         _______ _______ _______ _____ _____    ______ ____
ROOT
ATOM      1  C   UNL     1       5.412   4.673  16.162  0.00  0.00    +0.000 A 
ATOM      2  N   UNL     1       6.586   5.160  16.626  0.00  0.00    +0.000 NA
ATOM      3  N   UNL     1       7.480   5.438  15.677  0.00  0.00    +0.000 NA
ATOM      4  C   UNL     1       7.028   5.174  14.436  0.00  0.00    +0.000 A 
ATOM      5  N   UNL     1       7.787   5.388  13.251  0.00  0.00    +0.000 N 
ATOM      6  S   UNL     1       5.462   4.568  14.470  0.00  0.00    +0.000 S 
ATOM      7  H   UNL     1       7.357   5.162  12.341  0.00  0.00    +0.000 HD
ENDROOT
BRANCH   1  13
ATOM      8  C   UNL     1       3.468   5.211  17.780  0.00  0.00    +0.000 A 
ATOM      9  C   UNL     1       2.402   4.733  18.567  0.00  0.00    +0.000 A 
ATOM     10  C   UNL     1       2.100   3.377  18.621  0.00  0.00    +0.000 A 
ATOM     11  C   UNL     1       2.845   2.467  17.881  0.00  0.00    +0.000 A 
ATOM     12  C   UNL     1       3.907   2.911  17.092  0.00  0.00    +0.000 A 
ATOM     13  C   UNL     1       4.253   4.279  17.025  0.00  0.00    +0.000 A 
BRANCH   8  15
ATOM     14  C   UNL     1       2.450   7.462  18.236  0.00  0.00    +0.000 C 
ATOM     15  C   UNL     1       3.700   6.709  17.789  0.00  0.00    +0.000 C 
ENDBRANCH   8  15
ENDBRANCH   1  13
BRANCH   5  16
ATOM     16  N   UNL     1       9.088   5.883  13.277  0.00  0.00    +0.000 NA
ATOM     17  H   UNL     1       9.473   5.870  14.245  0.00  0.00    +0.000 HD
ATOM     18  H   UNL     1       9.055   6.878  12.953  0.00  0.00    +0.000 HD
ENDBRANCH   5  16
TORSDOF 3
ENDMDL
MODEL 4
REMARK VINA RESULT:      -6.3      1.555      1.932
REMARK  Name = 
REMARK  4 active torsions:
REMARK  status: ('A' for Active; 'I' for Inactive)
REMARK    1  A    between atoms: C_1  and  C_2
REMARK    2  A    between atoms: C_2  and  C_3
REMARK    3  A    between atoms: C_8  and  C_9
REMARK    4  A    between atoms: N_13  and  N_14
REMARK                            x       y       z     vdW  Elec       q    Type
REMARK                         _______ _______ _______ _____ _____    ______ ____
ROOT
ATOM      1  C   UNL     1       5.510   5.134  17.018  0.00  0.00    +0.000 A 
ATOM      2  N   UNL     1       6.604   5.921  17.133  0.00  0.00    +0.000 NA
ATOM      3  N   UNL     1       7.351   5.991  16.032  0.00  0.00    +0.000 NA
ATOM      4  C   UNL     1       6.859   5.254  15.017  0.00  0.00    +0.000 A 
ATOM      5  N   UNL     1       7.467   5.164  13.733  0.00  0.00    +0.000 N 
ATOM      6  S   UNL     1       5.443   4.468  15.459  0.00  0.00    +0.000 S 
ATOM      7  H   UNL     1       7.016   4.579  13.012  0.00  0.00    +0.000 HD
ENDROOT
BRANCH   1  13
ATOM      8  C   UNL     1       3.496   5.820  18.487  0.00  0.00    +0.000 A 
ATOM      9  C   UNL     1       2.617   5.493  19.538  0.00  0.00    +0.000 A 
ATOM     10  C   UNL     1       2.726   4.282  20.215  0.00  0.00    +0.000 A 
ATOM     11  C   UNL     1       3.705   3.366  19.850  0.00  0.00    +0.000 A 
ATOM     12  C   UNL     1       4.589   3.662  18.812  0.00  0.00    +0.000 A 
ATOM     13  C   UNL     1       4.518   4.888  18.114  0.00  0.00    +0.000 A 
BRANCH   8  15
ATOM     14  C   UNL     1       2.282   8.018  18.592  0.00  0.00    +0.000 C 
ATOM     15  C   UNL     1       3.278   7.161  17.814  0.00  0.00    +0.000 C 
ENDBRANCH   8  15
ENDBRANCH   1  13
BRANCH   5  16
ATOM     16  N   UNL     1       8.650   5.828  13.418  0.00  0.00    +0.000 NA
ATOM     17  H   UNL     1       8.682   6.077  12.408  0.00  0.00    +0.000 HD
ATOM     18  H   UNL     1       9.443   5.174  13.617  0.00  0.00    +0.000 HD
ENDBRANCH   5  16
TORSDOF 3
ENDMDL
MODEL 5
REMARK VINA RESULT:      -6.3      2.921      5.806
REMARK  Name = 
REMARK  4 active torsions:
REMARK  status: ('A' for Active; 'I' for Inactive)
REMARK    1  A    between atoms: C_1  and  C_2
REMARK    2  A    between atoms: C_2  and  C_3
REMARK    3  A    between atoms: C_8  and  C_9
REMARK    4  A    between atoms: N_13  and  N_14
REMARK                            x       y       z     vdW  Elec       q    Type
REMARK                         _______ _______ _______ _____ _____    ______ ____
ROOT
ATOM      1  C   UNL     1       4.469   3.891  18.259  0.00  0.00    +0.000 A 
ATOM      2  N   UNL     1       4.122   2.628  18.597  0.00  0.00    +0.000 NA
ATOM      3  N   UNL     1       3.359   2.539  19.686  0.00  0.00    +0.000 NA
ATOM      4  C   UNL     1       3.085   3.739  20.234  0.00  0.00    +0.000 A 
ATOM      5  N   UNL     1       2.286   3.918  21.399  0.00  0.00    +0.000 N 
ATOM      6  S   UNL     1       3.800   4.987  19.367  0.00  0.00    +0.000 S 
ATOM      7  H   UNL     1       2.124   4.876  21.746  0.00  0.00    +0.000 HD
ENDROOT
BRANCH   1  13
ATOM      8  C   UNL     1       6.644   4.801  17.198  0.00  0.00    +0.000 A 
ATOM      9  C   UNL     1       7.362   5.114  16.027  0.00  0.00    +0.000 A 
ATOM     10  C   UNL     1       6.813   4.897  14.767  0.00  0.00    +0.000 A 
ATOM     11  C   UNL     1       5.541   4.352  14.647  0.00  0.00    +0.000 A 
ATOM     12  C   UNL     1       4.806   4.032  15.789  0.00  0.00    +0.000 A 
ATOM     13  C   UNL     1       5.325   4.253  17.084  0.00  0.00    +0.000 A 
BRANCH   8  15
ATOM     14  C   UNL     1       7.835   6.512  18.601  0.00  0.00    +0.000 C 
ATOM     15  C   UNL     1       7.345   5.069  18.515  0.00  0.00    +0.000 C 
ENDBRANCH   8  15
ENDBRANCH   1  13
BRANCH   5  16
ATOM     16  N   UNL     1       1.724   2.847  22.090  0.00  0.00    +0.000 NA
ATOM     17  H   UNL     1       2.262   1.971  21.924  0.00  0.00    +0.000 HD
ATOM     18  H   UNL     1       0.754   2.708  21.721  0.00  0.00    +0.000 HD
ENDBRANCH   5  16
TORSDOF 3
ENDMDL
MODEL 6
REMARK VINA RESULT:      -6.3      1.142      1.166
REMARK  Name = 
REMARK  4 active torsions:
REMARK  status: ('A' for Active; 'I' for Inactive)
REMARK    1  A    between atoms: C_1  and  C_2
REMARK    2  A    between atoms: C_2  and  C_3
REMARK    3  A    between atoms: C_8  and  C_9
REMARK    4  A    between atoms: N_13  and  N_14
REMARK                            x       y       z     vdW  Elec       q    Type
REMARK                         _______ _______ _______ _____ _____    ______ ____
ROOT
ATOM      1  C   UNL     1       4.754   4.312  18.411  0.00  0.00    +0.000 A 
ATOM      2  N   UNL     1       6.076   4.542  18.579  0.00  0.00    +0.000 NA
ATOM      3  N   UNL     1       6.745   4.766  17.449  0.00  0.00    +0.000 NA
ATOM      4  C   UNL     1       5.959   4.718  16.355  0.00  0.00    +0.000 A 
ATOM      5  N   UNL     1       6.429   4.928  15.028  0.00  0.00    +0.000 N 
ATOM      6  S   UNL     1       4.364   4.384  16.761  0.00  0.00    +0.000 S 
ATOM      7  H   UNL     1       5.753   4.877  14.250  0.00  0.00    +0.000 HD
ENDROOT
BRANCH   1  13
ATOM      8  C   UNL     1       2.847   4.983  20.023  0.00  0.00    +0.000 A 
ATOM      9  C   UNL     1       1.990   4.615  21.078  0.00  0.00    +0.000 A 
ATOM     10  C   UNL     1       2.043   3.342  21.637  0.00  0.00    +0.000 A 
ATOM     11  C   UNL     1       2.944   2.404  21.147  0.00  0.00    +0.000 A 
ATOM     12  C   UNL     1       3.805   2.740  20.103  0.00  0.00    +0.000 A 
ATOM     13  C   UNL     1       3.791   4.027  19.522  0.00  0.00    +0.000 A 
BRANCH   8  15
ATOM     14  C   UNL     1       1.851   7.256  20.419  0.00  0.00    +0.000 C 
ATOM     15  C   UNL     1       2.694   6.392  19.484  0.00  0.00    +0.000 C 
ENDBRANCH   8  15
ENDBRANCH   1  13
BRANCH   5  16
ATOM     16  N   UNL     1       7.767   5.191  14.743  0.00  0.00    +0.000 NA
ATOM     17  H   UNL     1       8.396   4.679  15.396  0.00  0.00    +0.000 HD
ATOM     18  H   UNL     1       7.922   6.217  14.877  0.00  0.00    +0.000 HD
ENDBRANCH   5  16
TORSDOF 3
ENDMDL
MODEL 7
REMARK VINA RESULT:      -6.3      1.174      1.203
REMARK  Name = 
REMARK  4 active torsions:
REMARK  status: ('A' for Active; 'I' for Inactive)
REMARK    1  A    between atoms: C_1  and  C_2
REMARK    2  A    between atoms: C_2  and  C_3
REMARK    3  A    between atoms: C_8  and  C_9
REMARK    4  A    between atoms: N_13  and  N_14
REMARK                            x       y       z     vdW  Elec       q    Type
REMARK                         _______ _______ _______ _____ _____    ______ ____
ROOT
ATOM      1  C   UNL     1       4.349   4.145  17.220  0.00  0.00    +0.000 A 
ATOM      2  N   UNL     1       4.374   3.874  15.895  0.00  0.00    +0.000 NA
ATOM      3  N   UNL     1       5.449   4.335  15.259  0.00  0.00    +0.000 NA
ATOM      4  C   UNL     1       6.303   4.986  16.073  0.00  0.00    +0.000 A 
ATOM      5  N   UNL     1       7.527   5.569  15.641  0.00  0.00    +0.000 N 
ATOM      6  S   UNL     1       5.739   5.015  17.654  0.00  0.00    +0.000 S 
ATOM      7  H   UNL     1       8.122   6.044  16.337  0.00  0.00    +0.000 HD
ENDROOT
BRANCH   1  13
ATOM      8  C   UNL     1       2.254   4.645  18.651  0.00  0.00    +0.000 A 
ATOM      9  C   UNL     1       1.264   4.162  19.530  0.00  0.00    +0.000 A 
ATOM     10  C   UNL     1       1.236   2.826  19.916  0.00  0.00    +0.000 A 
ATOM     11  C   UNL     1       2.186   1.939  19.425  0.00  0.00    +0.000 A 
ATOM     12  C   UNL     1       3.178   2.388  18.553  0.00  0.00    +0.000 A 
ATOM     13  C   UNL     1       3.247   3.741  18.152  0.00  0.00    +0.000 A 
BRANCH   8  15
ATOM     14  C   UNL     1       2.515   6.999  19.490  0.00  0.00    +0.000 C 
ATOM     15  C   UNL     1       2.181   6.116  18.290  0.00  0.00    +0.000 C 
ENDBRANCH   8  15
ENDBRANCH   1  13
BRANCH   5  16
ATOM     16  N   UNL     1       7.946   5.527  14.313  0.00  0.00    +0.000 NA
ATOM     17  H   UNL     1       7.871   6.466  13.868  0.00  0.00    +0.000 HD
ATOM     18  H   UNL     1       7.309   4.873  13.801  0.00  0.00    +0.000 HD
ENDBRANCH   5  16
TORSDOF 3
ENDMDL
MODEL 8
REMARK VINA RESULT:      -6.3      2.937      5.889
REMARK  Name = 
REMARK  4 active torsions:
REMARK  status: ('A' for Active; 'I' for Inactive)
REMARK    1  A    between atoms: C_1  and  C_2
REMARK    2  A    between atoms: C_2  and  C_3
REMARK    3  A    between atoms: C_8  and  C_9
REMARK    4  A    between atoms: N_13  and  N_14
REMARK                            x       y       z     vdW  Elec       q    Type
REMARK                         _______ _______ _______ _____ _____    ______ ____
ROOT
ATOM      1  C   UNL     1       4.652   4.127  18.138  0.00  0.00    +0.000 A 
ATOM      2  N   UNL     1       4.252   5.099  18.990  0.00  0.00    +0.000 NA
ATOM      3  N   UNL     1       3.541   4.662  20.029  0.00  0.00    +0.000 NA
ATOM      4  C   UNL     1       3.363   3.326  20.019  0.00  0.00    +0.000 A 
ATOM      5  N   UNL     1       2.644   2.612  21.019  0.00  0.00    +0.000 N 
ATOM      6  S   UNL     1       4.099   2.620  18.686  0.00  0.00    +0.000 S 
ATOM      7  H   UNL     1       2.563   1.587  20.934  0.00  0.00    +0.000 HD
ENDROOT
BRANCH   1  13
ATOM      8  C   UNL     1       6.833   4.758  16.900  0.00  0.00    +0.000 A 
ATOM      9  C   UNL     1       7.493   4.959  15.672  0.00  0.00    +0.000 A 
ATOM     10  C   UNL     1       6.833   4.777  14.461  0.00  0.00    +0.000 A 
ATOM     11  C   UNL     1       5.502   4.379  14.448  0.00  0.00    +0.000 A 
ATOM     12  C   UNL     1       4.821   4.171  15.648  0.00  0.00    +0.000 A 
ATOM     13  C   UNL     1       5.455   4.361  16.896  0.00  0.00    +0.000 A 
BRANCH   8  15
ATOM     14  C   UNL     1       7.760   6.457  18.501  0.00  0.00    +0.000 C 
ATOM     15  C   UNL     1       7.653   4.974  18.156  0.00  0.00    +0.000 C 
ENDBRANCH   8  15
ENDBRANCH   1  13
BRANCH   5  16
ATOM     16  N   UNL     1       2.041   3.248  22.102  0.00  0.00    +0.000 NA
ATOM     17  H   UNL     1       1.867   2.576  22.879  0.00  0.00    +0.000 HD
ATOM     18  H   UNL     1       1.117   3.617  21.778  0.00  0.00    +0.000 HD
ENDBRANCH   5  16
TORSDOF 3
ENDMDL
MODEL 9
REMARK VINA RESULT:      -6.3      3.221      5.315
REMARK  Name = 
REMARK  4 active torsions:
REMARK  status: ('A' for Active; 'I' for Inactive)
REMARK    1  A    between atoms: C_1  and  C_2
REMARK    2  A    between atoms: C_2  and  C_3
REMARK    3  A    between atoms: C_8  and  C_9
REMARK    4  A    between atoms: N_13  and  N_14
REMARK                            x       y       z     vdW  Elec       q    Type
REMARK                         _______ _______ _______ _____ _____    ______ ____
ROOT
ATOM      1  C   UNL     1       4.326   4.591  18.382  0.00  0.00    +0.000 A 
ATOM      2  N   UNL     1       3.093   5.122  18.551  0.00  0.00    +0.000 NA
ATOM      3  N   UNL     1       2.104   4.228  18.554  0.00  0.00    +0.000 NA
ATOM      4  C   UNL     1       2.539   2.964  18.387  0.00  0.00    +0.000 A 
ATOM      5  N   UNL     1       1.684   1.826  18.359  0.00  0.00    +0.000 N 
ATOM      6  S   UNL     1       4.209   2.907  18.223  0.00  0.00    +0.000 S 
ATOM      7  H   UNL     1       2.106   0.893  18.231  0.00  0.00    +0.000 HD
ENDROOT
BRANCH   1  13
ATOM      8  C   UNL     1       5.958   6.245  17.248  0.00  0.00    +0.000 A 
ATOM      9  C   UNL     1       7.181   6.942  17.301  0.00  0.00    +0.000 A 
ATOM     10  C   UNL     1       8.037   6.811  18.391  0.00  0.00    +0.000 A 
ATOM     11  C   UNL     1       7.686   5.992  19.457  0.00  0.00    +0.000 A 
ATOM     12  C   UNL     1       6.481   5.289  19.432  0.00  0.00    +0.000 A 
ATOM     13  C   UNL     1       5.595   5.385  18.336  0.00  0.00    +0.000 A 
BRANCH   8  15
ATOM     14  C   UNL     1       5.419   5.455  14.924  0.00  0.00    +0.000 C 
ATOM     15  C   UNL     1       5.101   6.471  16.018  0.00  0.00    +0.000 C 
ENDBRANCH   8  15
ENDBRANCH   1  13
BRANCH   5  16
ATOM     16  N   UNL     1       0.301   1.928  18.489  0.00  0.00    +0.000 NA
ATOM     17  H   UNL     1      -0.178   1.673  17.599  0.00  0.00    +0.000 HD
ATOM     18  H   UNL     1       0.076   2.927  18.704  0.00  0.00    +0.000 HD
ENDBRANCH   5  16
TORSDOF 3
ENDMDL
