MODEL 1
REMARK VINA RESULT:      -7.9      0.000      0.000
REMARK  Name = 
REMARK  7 active torsions:
REMARK  status: ('A' for Active; 'I' for Inactive)
REMARK    1  A    between atoms: C_1  and  O_2
REMARK    2  A    between atoms: O_2  and  C_3
REMARK    3  A    between atoms: C_6  and  C_7
REMARK    4  A    between atoms: C_7  and  N_8
REMARK    5  A    between atoms: C_12  and  C_13
REMARK    6  A    between atoms: C_13  and  C_15
REMARK    7  A    between atoms: C_23  and  O_24
REMARK                            x       y       z     vdW  Elec       q    Type
REMARK                         _______ _______ _______ _____ _____    ______ ____
ROOT
ATOM      1  N   UNL     1       2.824   3.702  17.346  0.00  0.00    +0.000 NA
ATOM      2  C   UNL     1       2.370   2.380  17.783  0.00  0.00    +0.000 C 
ATOM      3  C   UNL     1       1.095   2.395  18.627  0.00  0.00    +0.000 C 
ATOM      4  C   UNL     1       1.258   3.339  19.808  0.00  0.00    +0.000 C 
ATOM      5  C   UNL     1       1.544   4.750  19.290  0.00  0.00    +0.000 C 
ATOM      6  C   UNL     1       2.774   4.755  18.370  0.00  0.00    +0.000 C 
ENDROOT
BRANCH   5   7
ATOM      7  C   UNL     1       1.817   5.698  20.458  0.00  0.00    +0.000 C 
ATOM      8  O   UNL     1       2.366   5.327  21.495  0.00  0.00    +0.000 OA
BRANCH   7   9
ATOM      9  C   UNL     1       1.516   7.151  20.306  0.00  0.00    +0.000 A 
ATOM     10  C   UNL     1       0.879   7.891  21.307  0.00  0.00    +0.000 A 
ATOM     11  C   UNL     1       0.612   9.250  21.109  0.00  0.00    +0.000 A 
ATOM     12  C   UNL     1       0.984   9.868  19.916  0.00  0.00    +0.000 A 
ATOM     13 CL   UNL     1       0.635  11.535  19.674  0.00  0.00    +0.000 Cl
ATOM     14  C   UNL     1       1.632   9.143  18.919  0.00  0.00    +0.000 A 
ATOM     15  C   UNL     1       1.906   7.787  19.118  0.00  0.00    +0.000 A 
ENDBRANCH   7   9
ENDBRANCH   5   7
BRANCH   1  16
ATOM     16  C   UNL     1       4.136   3.666  16.655  0.00  0.00    +0.000 C 
BRANCH  16  20
ATOM     17  C   UNL     1       7.241   6.379  18.102  0.00  0.00    +0.000 A 
ATOM     18  C   UNL     1       6.618   6.578  16.873  0.00  0.00    +0.000 A 
ATOM     19  C   UNL     1       5.631   5.693  16.416  0.00  0.00    +0.000 A 
ATOM     20  C   UNL     1       5.230   4.584  17.183  0.00  0.00    +0.000 A 
ATOM     21  C   UNL     1       5.886   4.395  18.408  0.00  0.00    +0.000 A 
ATOM     22  C   UNL     1       6.875   5.274  18.865  0.00  0.00    +0.000 A 
BRANCH  17  24
ATOM     23  C   UNL     1       8.059   8.596  17.860  0.00  0.00    +0.000 C 
ATOM     24  O   UNL     1       8.186   7.304  18.445  0.00  0.00    +0.000 OA
ENDBRANCH  17  24
BRANCH  21  25
ATOM     25  O   UNL     1       5.628   3.352  19.259  0.00  0.00    +0.000 OA
ATOM     26  H   UNL     1       5.324   2.587  18.756  0.00  0.00    +0.000 HD
ENDBRANCH  21  25
ENDBRANCH  16  20
ENDBRANCH   1  16
TORSDOF 6
ENDMDL
MODEL 2
REMARK VINA RESULT:      -7.8      1.200      1.928
REMARK  Name = 
REMARK  7 active torsions:
REMARK  status: ('A' for Active; 'I' for Inactive)
REMARK    1  A    between atoms: C_1  and  O_2
REMARK    2  A    between atoms: O_2  and  C_3
REMARK    3  A    between atoms: C_6  and  C_7
REMARK    4  A    between atoms: C_7  and  N_8
REMARK    5  A    between atoms: C_12  and  C_13
REMARK    6  A    between atoms: C_13  and  C_15
REMARK    7  A    between atoms: C_23  and  O_24
REMARK                            x       y       z     vdW  Elec       q    Type
REMARK                         _______ _______ _______ _____ _____    ______ ____
ROOT
ATOM      1  N   UNL     1       4.075   3.905  17.197  0.00  0.00    +0.000 NA
ATOM      2  C   UNL     1       3.554   2.562  17.462  0.00  0.00    +0.000 C 
ATOM      3  C   UNL     1       2.091   2.527  17.908  0.00  0.00    +0.000 C 
ATOM      4  C   UNL     1       1.886   3.442  19.105  0.00  0.00    +0.000 C 
ATOM      5  C   UNL     1       2.266   4.872  18.718  0.00  0.00    +0.000 C 
ATOM      6  C   UNL     1       3.707   4.929  18.185  0.00  0.00    +0.000 C 
ENDROOT
BRANCH   5   7
ATOM      7  C   UNL     1       2.170   5.794  19.933  0.00  0.00    +0.000 C 
ATOM      8  O   UNL     1       2.447   5.417  21.071  0.00  0.00    +0.000 OA
BRANCH   7   9
ATOM      9  C   UNL     1       1.838   7.234  19.734  0.00  0.00    +0.000 A 
ATOM     10  C   UNL     1       2.058   7.892  18.520  0.00  0.00    +0.000 A 
ATOM     11  C   UNL     1       1.737   9.247  18.392  0.00  0.00    +0.000 A 
ATOM     12  C   UNL     1       1.194   9.942  19.471  0.00  0.00    +0.000 A 
ATOM     13 CL   UNL     1       0.820  11.613  19.309  0.00  0.00    +0.000 Cl
ATOM     14  C   UNL     1       0.957   9.293  20.680  0.00  0.00    +0.000 A 
ATOM     15  C   UNL     1       1.271   7.937  20.808  0.00  0.00    +0.000 A 
ENDBRANCH   7   9
ENDBRANCH   5   7
BRANCH   1  16
ATOM     16  C   UNL     1       5.529   3.916  16.907  0.00  0.00    +0.000 C 
BRANCH  16  20
ATOM     17  C   UNL     1       7.875   7.355  18.236  0.00  0.00    +0.000 A 
ATOM     18  C   UNL     1       7.969   6.121  18.874  0.00  0.00    +0.000 A 
ATOM     19  C   UNL     1       7.202   5.030  18.444  0.00  0.00    +0.000 A 
ATOM     20  C   UNL     1       6.322   5.137  17.353  0.00  0.00    +0.000 A 
ATOM     21  C   UNL     1       6.231   6.395  16.739  0.00  0.00    +0.000 A 
ATOM     22  C   UNL     1       6.992   7.489  17.168  0.00  0.00    +0.000 A 
BRANCH  17  24
ATOM     23  C   UNL     1       8.527   9.638  18.158  0.00  0.00    +0.000 C 
ATOM     24  O   UNL     1       8.670   8.346  18.739  0.00  0.00    +0.000 OA
ENDBRANCH  17  24
BRANCH  21  25
ATOM     25  O   UNL     1       5.404   6.670  15.681  0.00  0.00    +0.000 OA
ATOM     26  H   UNL     1       4.504   6.393  15.888  0.00  0.00    +0.000 HD
ENDBRANCH  21  25
ENDBRANCH  16  20
ENDBRANCH   1  16
TORSDOF 6
ENDMDL
MODEL 3
REMARK VINA RESULT:      -7.7      1.244      2.031
REMARK  Name = 
REMARK  7 active torsions:
REMARK  status: ('A' for Active; 'I' for Inactive)
REMARK    1  A    between atoms: C_1  and  O_2
REMARK    2  A    between atoms: O_2  and  C_3
REMARK    3  A    between atoms: C_6  and  C_7
REMARK    4  A    between atoms: C_7  and  N_8
REMARK    5  A    between atoms: C_12  and  C_13
REMARK    6  A    between atoms: C_13  and  C_15
REMARK    7  A    between atoms: C_23  and  O_24
REMARK                            x       y       z     vdW  Elec       q    Type
REMARK                         _______ _______ _______ _____ _____    ______ ____
ROOT
ATOM      1  N   UNL     1       4.700   4.570  17.743  0.00  0.00    +0.000 NA
ATOM      2  C   UNL     1       4.109   3.244  17.548  0.00  0.00    +0.000 C 
ATOM      3  C   UNL     1       2.581   3.234  17.487  0.00  0.00    +0.000 C 
ATOM      4  C   UNL     1       2.002   3.918  18.717  0.00  0.00    +0.000 C 
ATOM      5  C   UNL     1       2.501   5.363  18.771  0.00  0.00    +0.000 C 
ATOM      6  C   UNL     1       4.037   5.412  18.750  0.00  0.00    +0.000 C 
ENDROOT
BRANCH   5   7
ATOM      7  C   UNL     1       2.020   6.042  20.054  0.00  0.00    +0.000 C 
ATOM      8  O   UNL     1       2.023   5.471  21.144  0.00  0.00    +0.000 OA
BRANCH   7   9
ATOM      9  C   UNL     1       1.636   7.483  20.019  0.00  0.00    +0.000 A 
ATOM     10  C   UNL     1       1.753   8.261  18.864  0.00  0.00    +0.000 A 
ATOM     11  C   UNL     1       1.387   9.610  18.890  0.00  0.00    +0.000 A 
ATOM     12  C   UNL     1       0.901  10.180  20.066  0.00  0.00    +0.000 A 
ATOM     13 CL   UNL     1       0.470  11.845  20.093  0.00  0.00    +0.000 Cl
ATOM     14  C   UNL     1       0.765   9.409  21.219  0.00  0.00    +0.000 A 
ATOM     15  C   UNL     1       1.125   8.059  21.192  0.00  0.00    +0.000 A 
ENDBRANCH   7   9
ENDBRANCH   5   7
BRANCH   1  16
ATOM     16  C   UNL     1       6.168   4.527  17.941  0.00  0.00    +0.000 C 
BRANCH  16  20
ATOM     17  C   UNL     1       8.197   8.394  18.119  0.00  0.00    +0.000 A 
ATOM     18  C   UNL     1       7.255   8.113  17.133  0.00  0.00    +0.000 A 
ATOM     19  C   UNL     1       6.621   6.864  17.081  0.00  0.00    +0.000 A 
ATOM     20  C   UNL     1       6.903   5.859  18.024  0.00  0.00    +0.000 A 
ATOM     21  C   UNL     1       7.869   6.160  18.995  0.00  0.00    +0.000 A 
ATOM     22  C   UNL     1       8.508   7.404  19.047  0.00  0.00    +0.000 A 
BRANCH  17  24
ATOM     23  C   UNL     1       9.261  10.162  19.296  0.00  0.00    +0.000 C 
ATOM     24  O   UNL     1       8.750   9.643  18.073  0.00  0.00    +0.000 OA
ENDBRANCH  17  24
BRANCH  21  25
ATOM     25  O   UNL     1       8.272   5.283  19.968  0.00  0.00    +0.000 OA
ATOM     26  H   UNL     1       7.821   4.438  19.854  0.00  0.00    +0.000 HD
ENDBRANCH  21  25
ENDBRANCH  16  20
ENDBRANCH   1  16
TORSDOF 6
ENDMDL
MODEL 4
REMARK VINA RESULT:      -7.6      2.601      5.624
REMARK  Name = 
REMARK  7 active torsions:
REMARK  status: ('A' for Active; 'I' for Inactive)
REMARK    1  A    between atoms: C_1  and  O_2
REMARK    2  A    between atoms: O_2  and  C_3
REMARK    3  A    between atoms: C_6  and  C_7
REMARK    4  A    between atoms: C_7  and  N_8
REMARK    5  A    between atoms: C_12  and  C_13
REMARK    6  A    between atoms: C_13  and  C_15
REMARK    7  A    between atoms: C_23  and  O_24
REMARK                            x       y       z     vdW  Elec       q    Type
REMARK                         _______ _______ _______ _____ _____    ______ ____
ROOT
ATOM      1  N   UNL     1       2.718   4.449  19.747  0.00  0.00    +0.000 NA
ATOM      2  C   UNL     1       1.543   3.954  19.026  0.00  0.00    +0.000 C 
ATOM      3  C   UNL     1       1.830   2.797  18.068  0.00  0.00    +0.000 C 
ATOM      4  C   UNL     1       2.946   3.176  17.106  0.00  0.00    +0.000 C 
ATOM      5  C   UNL     1       4.210   3.503  17.904  0.00  0.00    +0.000 C 
ATOM      6  C   UNL     1       3.933   4.607  18.937  0.00  0.00    +0.000 C 
ENDROOT
BRANCH   5   7
ATOM      7  C   UNL     1       5.316   3.990  16.969  0.00  0.00    +0.000 C 
ATOM      8  O   UNL     1       5.483   3.521  15.843  0.00  0.00    +0.000 OA
BRANCH   7   9
ATOM      9  C   UNL     1       6.160   5.150  17.376  0.00  0.00    +0.000 A 
ATOM     10  C   UNL     1       7.157   5.044  18.351  0.00  0.00    +0.000 A 
ATOM     11  C   UNL     1       7.913   6.167  18.701  0.00  0.00    +0.000 A 
ATOM     12  C   UNL     1       7.677   7.391  18.077  0.00  0.00    +0.000 A 
ATOM     13 CL   UNL     1       8.601   8.770  18.528  0.00  0.00    +0.000 Cl
ATOM     14  C   UNL     1       6.698   7.504  17.093  0.00  0.00    +0.000 A 
ATOM     15  C   UNL     1       5.946   6.381  16.737  0.00  0.00    +0.000 A 
ENDBRANCH   7   9
ENDBRANCH   5   7
BRANCH   1  16
ATOM     16  C   UNL     1       2.434   5.659  20.556  0.00  0.00    +0.000 C 
BRANCH  16  20
ATOM     17  C   UNL     1       1.889   9.372  18.317  0.00  0.00    +0.000 A 
ATOM     18  C   UNL     1       2.624   8.311  17.796  0.00  0.00    +0.000 A 
ATOM     19  C   UNL     1       2.801   7.130  18.531  0.00  0.00    +0.000 A 
ATOM     20  C   UNL     1       2.236   6.970  19.809  0.00  0.00    +0.000 A 
ATOM     21  C   UNL     1       1.516   8.061  20.319  0.00  0.00    +0.000 A 
ATOM     22  C   UNL     1       1.341   9.243  19.591  0.00  0.00    +0.000 A 
BRANCH  17  24
ATOM     23  C   UNL     1       2.344  11.683  18.008  0.00  0.00    +0.000 C 
ATOM     24  O   UNL     1       1.782  10.471  17.514  0.00  0.00    +0.000 OA
ENDBRANCH  17  24
BRANCH  21  25
ATOM     25  O   UNL     1       0.926   8.073  21.556  0.00  0.00    +0.000 OA
ATOM     26  H   UNL     1      -0.020   8.238  21.466  0.00  0.00    +0.000 HD
ENDBRANCH  21  25
ENDBRANCH  16  20
ENDBRANCH   1  16
TORSDOF 6
ENDMDL
MODEL 5
REMARK VINA RESULT:      -7.6      2.212      2.962
REMARK  Name = 
REMARK  7 active torsions:
REMARK  status: ('A' for Active; 'I' for Inactive)
REMARK    1  A    between atoms: C_1  and  O_2
REMARK    2  A    between atoms: O_2  and  C_3
REMARK    3  A    between atoms: C_6  and  C_7
REMARK    4  A    between atoms: C_7  and  N_8
REMARK    5  A    between atoms: C_12  and  C_13
REMARK    6  A    between atoms: C_13  and  C_15
REMARK    7  A    between atoms: C_23  and  O_24
REMARK                            x       y       z     vdW  Elec       q    Type
REMARK                         _______ _______ _______ _____ _____    ______ ____
ROOT
ATOM      1  N   UNL     1       3.459   4.258  19.137  0.00  0.00    +0.000 NA
ATOM      2  C   UNL     1       2.853   3.735  20.363  0.00  0.00    +0.000 C 
ATOM      3  C   UNL     1       1.458   4.285  20.665  0.00  0.00    +0.000 C 
ATOM      4  C   UNL     1       1.484   5.806  20.669  0.00  0.00    +0.000 C 
ATOM      5  C   UNL     1       1.944   6.307  19.299  0.00  0.00    +0.000 C 
ATOM      6  C   UNL     1       3.309   5.705  18.928  0.00  0.00    +0.000 C 
ENDROOT
BRANCH   5   7
ATOM      7  C   UNL     1       2.081   7.829  19.310  0.00  0.00    +0.000 C 
ATOM      8  O   UNL     1       2.757   8.437  18.480  0.00  0.00    +0.000 OA
BRANCH   7   9
ATOM      9  C   UNL     1       1.283   8.628  20.284  0.00  0.00    +0.000 A 
ATOM     10  C   UNL     1       1.470   8.526  21.666  0.00  0.00    +0.000 A 
ATOM     11  C   UNL     1       0.687   9.293  22.535  0.00  0.00    +0.000 A 
ATOM     12  C   UNL     1      -0.276  10.162  22.025  0.00  0.00    +0.000 A 
ATOM     13 CL   UNL     1      -1.245  11.088  23.104  0.00  0.00    +0.000 Cl
ATOM     14  C   UNL     1      -0.459  10.284  20.650  0.00  0.00    +0.000 A 
ATOM     15  C   UNL     1       0.327   9.523  19.780  0.00  0.00    +0.000 A 
ENDBRANCH   7   9
ENDBRANCH   5   7
BRANCH   1  16
ATOM     16  C   UNL     1       4.863   3.817  18.950  0.00  0.00    +0.000 C 
BRANCH  16  20
ATOM     17  C   UNL     1       6.683   4.788  15.098  0.00  0.00    +0.000 A 
ATOM     18  C   UNL     1       5.388   4.284  15.182  0.00  0.00    +0.000 A 
ATOM     19  C   UNL     1       4.821   3.966  16.424  0.00  0.00    +0.000 A 
ATOM     20  C   UNL     1       5.531   4.153  17.624  0.00  0.00    +0.000 A 
ATOM     21  C   UNL     1       6.840   4.644  17.510  0.00  0.00    +0.000 A 
ATOM     22  C   UNL     1       7.411   4.959  16.272  0.00  0.00    +0.000 A 
BRANCH  17  24
ATOM     23  C   UNL     1       6.853   4.093  12.833  0.00  0.00    +0.000 C 
ATOM     24  O   UNL     1       7.132   5.063  13.837  0.00  0.00    +0.000 OA
ENDBRANCH  17  24
BRANCH  21  25
ATOM     25  O   UNL     1       7.670   4.859  18.580  0.00  0.00    +0.000 OA
ATOM     26  H   UNL     1       7.870   4.021  19.013  0.00  0.00    +0.000 HD
ENDBRANCH  21  25
ENDBRANCH  16  20
ENDBRANCH   1  16
TORSDOF 6
ENDMDL
MODEL 6
REMARK VINA RESULT:      -7.6      1.391      1.963
REMARK  Name = 
REMARK  7 active torsions:
REMARK  status: ('A' for Active; 'I' for Inactive)
REMARK    1  A    between atoms: C_1  and  O_2
REMARK    2  A    between atoms: O_2  and  C_3
REMARK    3  A    between atoms: C_6  and  C_7
REMARK    4  A    between atoms: C_7  and  N_8
REMARK    5  A    between atoms: C_12  and  C_13
REMARK    6  A    between atoms: C_13  and  C_15
REMARK    7  A    between atoms: C_23  and  O_24
REMARK                            x       y       z     vdW  Elec       q    Type
REMARK                         _______ _______ _______ _____ _____    ______ ____
ROOT
ATOM      1  N   UNL     1       4.847   4.650  17.570  0.00  0.00    +0.000 NA
ATOM      2  C   UNL     1       4.234   3.327  17.431  0.00  0.00    +0.000 C 
ATOM      3  C   UNL     1       2.711   3.346  17.298  0.00  0.00    +0.000 C 
ATOM      4  C   UNL     1       2.093   4.119  18.453  0.00  0.00    +0.000 C 
ATOM      5  C   UNL     1       2.623   5.554  18.441  0.00  0.00    +0.000 C 
ATOM      6  C   UNL     1       4.160   5.568  18.489  0.00  0.00    +0.000 C 
ENDROOT
BRANCH   5   7
ATOM      7  C   UNL     1       2.101   6.323  19.654  0.00  0.00    +0.000 C 
ATOM      8  O   UNL     1       2.047   5.826  20.778  0.00  0.00    +0.000 OA
BRANCH   7   9
ATOM      9  C   UNL     1       1.744   7.764  19.508  0.00  0.00    +0.000 A 
ATOM     10  C   UNL     1       1.200   8.510  20.558  0.00  0.00    +0.000 A 
ATOM     11  C   UNL     1       0.875   9.856  20.363  0.00  0.00    +0.000 A 
ATOM     12  C   UNL     1       1.096  10.457  19.125  0.00  0.00    +0.000 A 
ATOM     13 CL   UNL     1       0.676  12.108  18.890  0.00  0.00    +0.000 Cl
ATOM     14  C   UNL     1       1.652   9.727  18.077  0.00  0.00    +0.000 A 
ATOM     15  C   UNL     1       1.984   8.383  18.272  0.00  0.00    +0.000 A 
ENDBRANCH   7   9
ENDBRANCH   5   7
BRANCH   1  16
ATOM     16  C   UNL     1       6.304   4.589  17.841  0.00  0.00    +0.000 C 
BRANCH  16  20
ATOM     17  C   UNL     1       8.354   8.428  18.234  0.00  0.00    +0.000 A 
ATOM     18  C   UNL     1       7.553   8.141  17.132  0.00  0.00    +0.000 A 
ATOM     19  C   UNL     1       6.911   6.901  17.013  0.00  0.00    +0.000 A 
ATOM     20  C   UNL     1       7.042   5.910  18.002  0.00  0.00    +0.000 A 
ATOM     21  C   UNL     1       7.869   6.216  19.093  0.00  0.00    +0.000 A 
ATOM     22  C   UNL     1       8.516   7.451  19.213  0.00  0.00    +0.000 A 
BRANCH  17  24
ATOM     23  C   UNL     1       9.218  10.228  19.521  0.00  0.00    +0.000 C 
ATOM     24  O   UNL     1       8.929   9.667  18.245  0.00  0.00    +0.000 OA
ENDBRANCH  17  24
BRANCH  21  25
ATOM     25  O   UNL     1       8.119   5.351  20.127  0.00  0.00    +0.000 OA
ATOM     26  H   UNL     1       7.459   4.647  20.132  0.00  0.00    +0.000 HD
ENDBRANCH  21  25
ENDBRANCH  16  20
ENDBRANCH   1  16
TORSDOF 6
ENDMDL
MODEL 7
REMARK VINA RESULT:      -7.6      1.958      2.682
REMARK  Name = 
REMARK  7 active torsions:
REMARK  status: ('A' for Active; 'I' for Inactive)
REMARK    1  A    between atoms: C_1  and  O_2
REMARK    2  A    between atoms: O_2  and  C_3
REMARK    3  A    between atoms: C_6  and  C_7
REMARK    4  A    between atoms: C_7  and  N_8
REMARK    5  A    between atoms: C_12  and  C_13
REMARK    6  A    between atoms: C_13  and  C_15
REMARK    7  A    between atoms: C_23  and  O_24
REMARK                            x       y       z     vdW  Elec       q    Type
REMARK                         _______ _______ _______ _____ _____    ______ ____
ROOT
ATOM      1  N   UNL     1       2.907   3.636  18.339  0.00  0.00    +0.000 NA
ATOM      2  C   UNL     1       3.140   3.395  19.764  0.00  0.00    +0.000 C 
ATOM      3  C   UNL     1       2.347   4.309  20.699  0.00  0.00    +0.000 C 
ATOM      4  C   UNL     1       2.592   5.767  20.341  0.00  0.00    +0.000 C 
ATOM      5  C   UNL     1       2.154   6.012  18.896  0.00  0.00    +0.000 C 
ATOM      6  C   UNL     1       2.873   5.050  17.937  0.00  0.00    +0.000 C 
ENDROOT
BRANCH   5   7
ATOM      7  C   UNL     1       2.488   7.443  18.476  0.00  0.00    +0.000 C 
ATOM      8  O   UNL     1       3.432   7.710  17.734  0.00  0.00    +0.000 OA
BRANCH   7   9
ATOM      9  C   UNL     1       1.579   8.555  18.881  0.00  0.00    +0.000 A 
ATOM     10  C   UNL     1       0.932   9.369  17.947  0.00  0.00    +0.000 A 
ATOM     11  C   UNL     1       0.098  10.404  18.382  0.00  0.00    +0.000 A 
ATOM     12  C   UNL     1      -0.092  10.622  19.746  0.00  0.00    +0.000 A 
ATOM     13 CL   UNL     1      -1.105  11.909  20.271  0.00  0.00    +0.000 Cl
ATOM     14  C   UNL     1       0.536   9.807  20.684  0.00  0.00    +0.000 A 
ATOM     15  C   UNL     1       1.364   8.768  20.251  0.00  0.00    +0.000 A 
ENDBRANCH   7   9
ENDBRANCH   5   7
BRANCH   1  16
ATOM     16  C   UNL     1       3.796   2.836  17.462  0.00  0.00    +0.000 C 
BRANCH  16  20
ATOM     17  C   UNL     1       6.983   4.951  15.350  0.00  0.00    +0.000 A 
ATOM     18  C   UNL     1       5.931   4.351  14.663  0.00  0.00    +0.000 A 
ATOM     19  C   UNL     1       4.921   3.665  15.353  0.00  0.00    +0.000 A 
ATOM     20  C   UNL     1       4.928   3.569  16.757  0.00  0.00    +0.000 A 
ATOM     21  C   UNL     1       6.009   4.166  17.423  0.00  0.00    +0.000 A 
ATOM     22  C   UNL     1       7.021   4.847  16.737  0.00  0.00    +0.000 A 
BRANCH  17  24
ATOM     23  C   UNL     1       7.843   5.356  13.172  0.00  0.00    +0.000 C 
ATOM     24  O   UNL     1       7.909   5.592  14.575  0.00  0.00    +0.000 OA
ENDBRANCH  17  24
BRANCH  21  25
ATOM     25  O   UNL     1       6.174   4.140  18.783  0.00  0.00    +0.000 OA
ATOM     26  H   UNL     1       6.977   4.615  19.025  0.00  0.00    +0.000 HD
ENDBRANCH  21  25
ENDBRANCH  16  20
ENDBRANCH   1  16
TORSDOF 6
ENDMDL
MODEL 8
REMARK VINA RESULT:      -7.6      2.108      3.077
REMARK  Name = 
REMARK  7 active torsions:
REMARK  status: ('A' for Active; 'I' for Inactive)
REMARK    1  A    between atoms: C_1  and  O_2
REMARK    2  A    between atoms: O_2  and  C_3
REMARK    3  A    between atoms: C_6  and  C_7
REMARK    4  A    between atoms: C_7  and  N_8
REMARK    5  A    between atoms: C_12  and  C_13
REMARK    6  A    between atoms: C_13  and  C_15
REMARK    7  A    between atoms: C_23  and  O_24
REMARK                            x       y       z     vdW  Elec       q    Type
REMARK                         _______ _______ _______ _____ _____    ______ ____
ROOT
ATOM      1  N   UNL     1       2.734   4.445  18.578  0.00  0.00    +0.000 NA
ATOM      2  C   UNL     1       2.766   4.516  20.040  0.00  0.00    +0.000 C 
ATOM      3  C   UNL     1       1.885   5.613  20.641  0.00  0.00    +0.000 C 
ATOM      4  C   UNL     1       2.225   6.958  20.018  0.00  0.00    +0.000 C 
ATOM      5  C   UNL     1       1.993   6.888  18.508  0.00  0.00    +0.000 C 
ATOM      6  C   UNL     1       2.802   5.739  17.884  0.00  0.00    +0.000 C 
ENDROOT
BRANCH   5   7
ATOM      7  C   UNL     1       2.428   8.194  17.843  0.00  0.00    +0.000 C 
ATOM      8  O   UNL     1       3.346   8.244  17.025  0.00  0.00    +0.000 OA
BRANCH   7   9
ATOM      9  C   UNL     1       1.650   9.440  18.100  0.00  0.00    +0.000 A 
ATOM     10  C   UNL     1       2.267  10.674  18.323  0.00  0.00    +0.000 A 
ATOM     11  C   UNL     1       1.488  11.810  18.568  0.00  0.00    +0.000 A 
ATOM     12  C   UNL     1       0.097  11.713  18.586  0.00  0.00    +0.000 A 
ATOM     13 CL   UNL     1      -0.851  13.113  18.906  0.00  0.00    +0.000 Cl
ATOM     14  C   UNL     1      -0.527  10.492  18.349  0.00  0.00    +0.000 A 
ATOM     15  C   UNL     1       0.249   9.357  18.098  0.00  0.00    +0.000 A 
ENDBRANCH   7   9
ENDBRANCH   5   7
BRANCH   1  16
ATOM     16  C   UNL     1       3.705   3.471  18.023  0.00  0.00    +0.000 C 
BRANCH  16  20
ATOM     17  C   UNL     1       6.932   5.073  15.551  0.00  0.00    +0.000 A 
ATOM     18  C   UNL     1       5.766   4.567  14.984  0.00  0.00    +0.000 A 
ATOM     19  C   UNL     1       4.743   4.046  15.789  0.00  0.00    +0.000 A 
ATOM     20  C   UNL     1       4.853   4.024  17.191  0.00  0.00    +0.000 A 
ATOM     21  C   UNL     1       6.046   4.522  17.736  0.00  0.00    +0.000 A 
ATOM     22  C   UNL     1       7.071   5.039  16.935  0.00  0.00    +0.000 A 
BRANCH  17  24
ATOM     23  C   UNL     1       7.730   5.142  13.314  0.00  0.00    +0.000 C 
ATOM     24  O   UNL     1       7.860   5.555  14.670  0.00  0.00    +0.000 OA
ENDBRANCH  17  24
BRANCH  21  25
ATOM     25  O   UNL     1       6.317   4.549  19.079  0.00  0.00    +0.000 OA
ATOM     26  H   UNL     1       5.667   4.019  19.556  0.00  0.00    +0.000 HD
ENDBRANCH  21  25
ENDBRANCH  16  20
ENDBRANCH   1  16
TORSDOF 6
ENDMDL
MODEL 9
REMARK VINA RESULT:      -7.6      3.465      7.199
REMARK  Name = 
REMARK  7 active torsions:
REMARK  status: ('A' for Active; 'I' for Inactive)
REMARK    1  A    between atoms: C_1  and  O_2
REMARK    2  A    between atoms: O_2  and  C_3
REMARK    3  A    between atoms: C_6  and  C_7
REMARK    4  A    between atoms: C_7  and  N_8
REMARK    5  A    between atoms: C_12  and  C_13
REMARK    6  A    between atoms: C_13  and  C_15
REMARK    7  A    between atoms: C_23  and  O_24
REMARK                            x       y       z     vdW  Elec       q    Type
REMARK                         _______ _______ _______ _____ _____    ______ ____
ROOT
ATOM      1  N   UNL     1       2.980   6.178  18.436  0.00  0.00    +0.000 NA
ATOM      2  C   UNL     1       2.117   5.070  18.020  0.00  0.00    +0.000 C 
ATOM      3  C   UNL     1       2.658   3.682  18.366  0.00  0.00    +0.000 C 
ATOM      4  C   UNL     1       4.067   3.517  17.818  0.00  0.00    +0.000 C 
ATOM      5  C   UNL     1       4.975   4.585  18.431  0.00  0.00    +0.000 C 
ATOM      6  C   UNL     1       4.414   5.992  18.173  0.00  0.00    +0.000 C 
ENDROOT
BRANCH   5   7
ATOM      7  C   UNL     1       6.373   4.508  17.818  0.00  0.00    +0.000 C 
ATOM      8  O   UNL     1       7.388   4.386  18.502  0.00  0.00    +0.000 OA
BRANCH   7   9
ATOM      9  C   UNL     1       6.519   4.466  16.334  0.00  0.00    +0.000 A 
ATOM     10  C   UNL     1       5.815   3.557  15.538  0.00  0.00    +0.000 A 
ATOM     11  C   UNL     1       5.998   3.555  14.152  0.00  0.00    +0.000 A 
ATOM     12  C   UNL     1       6.878   4.460  13.561  0.00  0.00    +0.000 A 
ATOM     13 CL   UNL     1       7.110   4.437  11.857  0.00  0.00    +0.000 Cl
ATOM     14  C   UNL     1       7.573   5.380  14.343  0.00  0.00    +0.000 A 
ATOM     15  C   UNL     1       7.387   5.387  15.728  0.00  0.00    +0.000 A 
ENDBRANCH   7   9
ENDBRANCH   5   7
BRANCH   1  16
ATOM     16  C   UNL     1       2.499   7.498  17.960  0.00  0.00    +0.000 C 
BRANCH  16  20
ATOM     17  C   UNL     1       0.739  10.102  20.996  0.00  0.00    +0.000 A 
ATOM     18  C   UNL     1       1.102   8.790  21.287  0.00  0.00    +0.000 A 
ATOM     19  C   UNL     1       1.655   7.962  20.300  0.00  0.00    +0.000 A 
ATOM     20  C   UNL     1       1.872   8.427  18.990  0.00  0.00    +0.000 A 
ATOM     21  C   UNL     1       1.480   9.746  18.718  0.00  0.00    +0.000 A 
ATOM     22  C   UNL     1       0.923  10.574  19.699  0.00  0.00    +0.000 A 
BRANCH  17  24
ATOM     23  C   UNL     1      -0.421  10.069  23.069  0.00  0.00    +0.000 C 
ATOM     24  O   UNL     1       0.211  10.816  22.034  0.00  0.00    +0.000 OA
ENDBRANCH  17  24
BRANCH  21  25
ATOM     25  O   UNL     1       1.601  10.339  17.488  0.00  0.00    +0.000 OA
ATOM     26  H   UNL     1       2.283  11.020  17.519  0.00  0.00    +0.000 HD
ENDBRANCH  21  25
ENDBRANCH  16  20
ENDBRANCH   1  16
TORSDOF 6
ENDMDL
