MODEL 1
REMARK VINA RESULT:      -8.3      0.000      0.000
REMARK  Name = 
REMARK  10 active torsions:
REMARK  status: ('A' for Active; 'I' for Inactive)
REMARK    1  A    between atoms: C_1  and  S_2
REMARK    2  A    between atoms: S_2  and  C_5
REMARK    3  A    between atoms: C_8  and  C_9
REMARK    4  A    between atoms: C_9  and  O_11
REMARK    5  A    between atoms: O_11  and  C_12
REMARK    6  A    between atoms: C_12  and  C_13
REMARK    7  A    between atoms: N_15  and  C_16
REMARK    8  A    between atoms: C_19  and  O_20
REMARK    9  A    between atoms: O_20  and  C_21
REMARK   10  A    between atoms: C_28  and  N_29
REMARK                            x       y       z     vdW  Elec       q    Type
REMARK                         _______ _______ _______ _____ _____    ______ ____
ROOT
ATOM      1  O   UNL     1       2.830   2.673  20.445  0.00  0.00    +0.000 OA
ENDROOT
BRANCH   1   2
ATOM      2  C   UNL     1       4.170   2.528  20.295  0.00  0.00    +0.000 C 
ATOM      3  O   UNL     1       4.902   1.910  21.054  0.00  0.00    +0.000 OA
BRANCH   2   7
ATOM      4  C   UNL     1       5.589   4.549  16.756  0.00  0.00    +0.000 A 
ATOM      5  C   UNL     1       4.665   3.499  16.676  0.00  0.00    +0.000 A 
ATOM      6  C   UNL     1       4.218   2.865  17.842  0.00  0.00    +0.000 A 
ATOM      7  C   UNL     1       4.674   3.270  19.106  0.00  0.00    +0.000 A 
ATOM      8  C   UNL     1       5.572   4.340  19.195  0.00  0.00    +0.000 A 
ATOM      9  C   UNL     1       6.019   4.972  18.017  0.00  0.00    +0.000 A 
BRANCH   4  11
ATOM     10  C   UNL     1       5.508   4.273  13.954  0.00  0.00    +0.000 C 
ATOM     11  S   UNL     1       6.038   5.370  15.243  0.00  0.00    +0.000 S 
ATOM     12  O   UNL     1       7.480   5.491  15.212  0.00  0.00    +0.000 OA
ATOM     13  O   UNL     1       5.214   6.562  15.161  0.00  0.00    +0.000 OA
ENDBRANCH   4  11
BRANCH   9  14
ATOM     14  N   UNL     1       7.013   6.013  18.175  0.00  0.00    +0.000 N 
ATOM     15  O   UNL     1       8.091   5.665  18.673  0.00  0.00    +0.000 OA
ATOM     16  O   UNL     1       6.668   7.170  17.905  0.00  0.00    +0.000 OA
ENDBRANCH   9  14
ENDBRANCH   2   7
ENDBRANCH   1   2
BRANCH   1  17
ATOM     17  C   UNL     1       2.466   3.701  21.376  0.00  0.00    +0.000 C 
BRANCH  17  18
ATOM     18  C   UNL     1       1.732   4.863  20.694  0.00  0.00    +0.000 C 
ATOM     19  O   UNL     1       0.559   4.736  20.348  0.00  0.00    +0.000 OA
ATOM     20  N   UNL     1       2.523   5.987  20.492  0.00  0.00    +0.000 N 
ATOM     21  H   UNL     1       3.515   5.906  20.679  0.00  0.00    +0.000 HD
BRANCH  20  22
ATOM     22  C   UNL     1       2.081   7.227  19.974  0.00  0.00    +0.000 A 
ATOM     23  C   UNL     1       2.320   7.630  18.661  0.00  0.00    +0.000 A 
ATOM     24  C   UNL     1       1.860   8.865  18.196  0.00  0.00    +0.000 A 
ATOM     25  C   UNL     1       1.142   9.718  19.032  0.00  0.00    +0.000 A 
ATOM     26  C   UNL     1       0.923   9.338  20.354  0.00  0.00    +0.000 A 
ATOM     27  C   UNL     1       1.364   8.087  20.815  0.00  0.00    +0.000 A 
BRANCH  25  28
ATOM     28  O   UNL     1       0.796  10.908  18.472  0.00  0.00    +0.000 OA
BRANCH  28  29
ATOM     29  C   UNL     1       1.658  12.029  18.614  0.00  0.00    +0.000 C 
ATOM     30  F   UNL     1       1.173  13.178  18.102  0.00  0.00    +0.000 F 
ATOM     31  F   UNL     1       1.913  12.218  19.927  0.00  0.00    +0.000 F 
ATOM     32  F   UNL     1       2.828  11.756  17.994  0.00  0.00    +0.000 F 
ENDBRANCH  28  29
ENDBRANCH  25  28
ENDBRANCH  20  22
ENDBRANCH  17  18
ENDBRANCH   1  17
TORSDOF 9
ENDMDL
MODEL 2
REMARK VINA RESULT:      -8.1      1.167      1.574
REMARK  Name = 
REMARK  10 active torsions:
REMARK  status: ('A' for Active; 'I' for Inactive)
REMARK    1  A    between atoms: C_1  and  S_2
REMARK    2  A    between atoms: S_2  and  C_5
REMARK    3  A    between atoms: C_8  and  C_9
REMARK    4  A    between atoms: C_9  and  O_11
REMARK    5  A    between atoms: O_11  and  C_12
REMARK    6  A    between atoms: C_12  and  C_13
REMARK    7  A    between atoms: N_15  and  C_16
REMARK    8  A    between atoms: C_19  and  O_20
REMARK    9  A    between atoms: O_20  and  C_21
REMARK   10  A    between atoms: C_28  and  N_29
REMARK                            x       y       z     vdW  Elec       q    Type
REMARK                         _______ _______ _______ _____ _____    ______ ____
ROOT
ATOM      1  O   UNL     1       2.863   2.588  20.401  0.00  0.00    +0.000 OA
ENDROOT
BRANCH   1   2
ATOM      2  C   UNL     1       4.205   2.472  20.252  0.00  0.00    +0.000 C 
ATOM      3  O   UNL     1       4.951   1.868  21.010  0.00  0.00    +0.000 OA
BRANCH   2   7
ATOM      4  C   UNL     1       5.584   4.531  16.718  0.00  0.00    +0.000 A 
ATOM      5  C   UNL     1       4.688   3.458  16.635  0.00  0.00    +0.000 A 
ATOM      6  C   UNL     1       4.252   2.812  17.799  0.00  0.00    +0.000 A 
ATOM      7  C   UNL     1       4.694   3.228  19.064  0.00  0.00    +0.000 A 
ATOM      8  C   UNL     1       5.565   4.319  19.157  0.00  0.00    +0.000 A 
ATOM      9  C   UNL     1       5.999   4.963  17.981  0.00  0.00    +0.000 A 
BRANCH   4  11
ATOM     10  C   UNL     1       5.480   4.274  13.915  0.00  0.00    +0.000 C 
ATOM     11  S   UNL     1       6.017   5.364  15.207  0.00  0.00    +0.000 S 
ATOM     12  O   UNL     1       7.458   5.491  15.165  0.00  0.00    +0.000 OA
ATOM     13  O   UNL     1       5.188   6.554  15.141  0.00  0.00    +0.000 OA
ENDBRANCH   4  11
BRANCH   9  14
ATOM     14  N   UNL     1       6.967   6.029  18.143  0.00  0.00    +0.000 N 
ATOM     15  O   UNL     1       8.047   5.711  18.656  0.00  0.00    +0.000 OA
ATOM     16  O   UNL     1       6.598   7.176  17.860  0.00  0.00    +0.000 OA
ENDBRANCH   9  14
ENDBRANCH   2   7
ENDBRANCH   1   2
BRANCH   1  17
ATOM     17  C   UNL     1       2.477   3.566  21.377  0.00  0.00    +0.000 C 
BRANCH  17  18
ATOM     18  C   UNL     1       1.715   4.739  20.748  0.00  0.00    +0.000 C 
ATOM     19  O   UNL     1       0.547   4.598  20.392  0.00  0.00    +0.000 OA
ATOM     20  N   UNL     1       2.477   5.891  20.602  0.00  0.00    +0.000 N 
ATOM     21  H   UNL     1       3.471   5.827  20.788  0.00  0.00    +0.000 HD
BRANCH  20  22
ATOM     22  C   UNL     1       2.005   7.142  20.141  0.00  0.00    +0.000 A 
ATOM     23  C   UNL     1       1.316   8.041  20.954  0.00  0.00    +0.000 A 
ATOM     24  C   UNL     1       0.872   9.267  20.450  0.00  0.00    +0.000 A 
ATOM     25  C   UNL     1       1.117   9.624  19.125  0.00  0.00    +0.000 A 
ATOM     26  C   UNL     1       1.778   8.721  18.296  0.00  0.00    +0.000 A 
ATOM     27  C   UNL     1       2.246   7.499  18.808  0.00  0.00    +0.000 A 
BRANCH  25  28
ATOM     28  O   UNL     1       0.589  10.819  18.750  0.00  0.00    +0.000 OA
BRANCH  28  29
ATOM     29  C   UNL     1      -0.810  10.930  18.525  0.00  0.00    +0.000 C 
ATOM     30  F   UNL     1      -1.558  10.026  19.189  0.00  0.00    +0.000 F 
ATOM     31  F   UNL     1      -1.212  12.169  18.886  0.00  0.00    +0.000 F 
ATOM     32  F   UNL     1      -1.049  10.780  17.203  0.00  0.00    +0.000 F 
ENDBRANCH  28  29
ENDBRANCH  25  28
ENDBRANCH  20  22
ENDBRANCH  17  18
ENDBRANCH   1  17
TORSDOF 9
ENDMDL
MODEL 3
REMARK VINA RESULT:      -7.8      0.869      1.505
REMARK  Name = 
REMARK  10 active torsions:
REMARK  status: ('A' for Active; 'I' for Inactive)
REMARK    1  A    between atoms: C_1  and  S_2
REMARK    2  A    between atoms: S_2  and  C_5
REMARK    3  A    between atoms: C_8  and  C_9
REMARK    4  A    between atoms: C_9  and  O_11
REMARK    5  A    between atoms: O_11  and  C_12
REMARK    6  A    between atoms: C_12  and  C_13
REMARK    7  A    between atoms: N_15  and  C_16
REMARK    8  A    between atoms: C_19  and  O_20
REMARK    9  A    between atoms: O_20  and  C_21
REMARK   10  A    between atoms: C_28  and  N_29
REMARK                            x       y       z     vdW  Elec       q    Type
REMARK                         _______ _______ _______ _____ _____    ______ ____
ROOT
ATOM      1  O   UNL     1       3.359   2.966  20.831  0.00  0.00    +0.000 OA
ENDROOT
BRANCH   1   2
ATOM      2  C   UNL     1       3.233   2.547  19.548  0.00  0.00    +0.000 C 
ATOM      3  O   UNL     1       2.572   1.588  19.179  0.00  0.00    +0.000 OA
BRANCH   2   7
ATOM      4  C   UNL     1       5.516   4.889  16.731  0.00  0.00    +0.000 A 
ATOM      5  C   UNL     1       4.188   4.528  16.473  0.00  0.00    +0.000 A 
ATOM      6  C   UNL     1       3.468   3.772  17.407  0.00  0.00    +0.000 A 
ATOM      7  C   UNL     1       4.056   3.371  18.618  0.00  0.00    +0.000 A 
ATOM      8  C   UNL     1       5.372   3.755  18.897  0.00  0.00    +0.000 A 
ATOM      9  C   UNL     1       6.089   4.515  17.950  0.00  0.00    +0.000 A 
BRANCH   4  11
ATOM     10  C   UNL     1       6.801   4.837  14.225  0.00  0.00    +0.000 C 
ATOM     11  S   UNL     1       6.335   5.930  15.543  0.00  0.00    +0.000 S 
ATOM     12  O   UNL     1       7.523   6.470  16.167  0.00  0.00    +0.000 OA
ATOM     13  O   UNL     1       5.324   6.830  15.020  0.00  0.00    +0.000 OA
ENDBRANCH   4  11
BRANCH   9  14
ATOM     14  N   UNL     1       7.474   4.805  18.263  0.00  0.00    +0.000 N 
ATOM     15  O   UNL     1       8.316   4.061  17.745  0.00  0.00    +0.000 OA
ATOM     16  O   UNL     1       7.691   5.691  19.098  0.00  0.00    +0.000 OA
ENDBRANCH   9  14
ENDBRANCH   2   7
ENDBRANCH   1   2
BRANCH   1  17
ATOM     17  C   UNL     1       2.131   3.443  21.401  0.00  0.00    +0.000 C 
BRANCH  17  18
ATOM     18  C   UNL     1       1.567   4.643  20.632  0.00  0.00    +0.000 C 
ATOM     19  O   UNL     1       0.699   4.478  19.776  0.00  0.00    +0.000 OA
ATOM     20  N   UNL     1       2.154   5.856  20.972  0.00  0.00    +0.000 N 
ATOM     21  H   UNL     1       2.967   5.834  21.575  0.00  0.00    +0.000 HD
BRANCH  20  22
ATOM     22  C   UNL     1       1.764   7.127  20.490  0.00  0.00    +0.000 A 
ATOM     23  C   UNL     1       0.963   8.004  21.220  0.00  0.00    +0.000 A 
ATOM     24  C   UNL     1       0.608   9.252  20.699  0.00  0.00    +0.000 A 
ATOM     25  C   UNL     1       1.056   9.653  19.442  0.00  0.00    +0.000 A 
ATOM     26  C   UNL     1       1.833   8.773  18.692  0.00  0.00    +0.000 A 
ATOM     27  C   UNL     1       2.210   7.529  19.225  0.00  0.00    +0.000 A 
BRANCH  25  28
ATOM     28  O   UNL     1       0.599  10.866  19.034  0.00  0.00    +0.000 OA
BRANCH  28  29
ATOM     29  C   UNL     1       1.524  11.911  18.764  0.00  0.00    +0.000 C 
ATOM     30  F   UNL     1       2.599  11.535  18.043  0.00  0.00    +0.000 F 
ATOM     31  F   UNL     1       0.884  12.899  18.101  0.00  0.00    +0.000 F 
ATOM     32  F   UNL     1       1.965  12.412  19.940  0.00  0.00    +0.000 F 
ENDBRANCH  28  29
ENDBRANCH  25  28
ENDBRANCH  20  22
ENDBRANCH  17  18
ENDBRANCH   1  17
TORSDOF 9
ENDMDL
MODEL 4
REMARK VINA RESULT:      -7.6      0.941      1.603
REMARK  Name = 
REMARK  10 active torsions:
REMARK  status: ('A' for Active; 'I' for Inactive)
REMARK    1  A    between atoms: C_1  and  S_2
REMARK    2  A    between atoms: S_2  and  C_5
REMARK    3  A    between atoms: C_8  and  C_9
REMARK    4  A    between atoms: C_9  and  O_11
REMARK    5  A    between atoms: O_11  and  C_12
REMARK    6  A    between atoms: C_12  and  C_13
REMARK    7  A    between atoms: N_15  and  C_16
REMARK    8  A    between atoms: C_19  and  O_20
REMARK    9  A    between atoms: O_20  and  C_21
REMARK   10  A    between atoms: C_28  and  N_29
REMARK                            x       y       z     vdW  Elec       q    Type
REMARK                         _______ _______ _______ _____ _____    ______ ____
ROOT
ATOM      1  O   UNL     1       3.325   2.846  20.945  0.00  0.00    +0.000 OA
ENDROOT
BRANCH   1   2
ATOM      2  C   UNL     1       2.984   2.415  19.706  0.00  0.00    +0.000 C 
ATOM      3  O   UNL     1       2.156   1.551  19.461  0.00  0.00    +0.000 OA
BRANCH   2   7
ATOM      4  C   UNL     1       5.260   4.259  16.535  0.00  0.00    +0.000 A 
ATOM      5  C   UNL     1       4.102   3.518  16.267  0.00  0.00    +0.000 A 
ATOM      6  C   UNL     1       3.380   2.935  17.316  0.00  0.00    +0.000 A 
ATOM      7  C   UNL     1       3.792   3.088  18.649  0.00  0.00    +0.000 A 
ATOM      8  C   UNL     1       4.930   3.854  18.927  0.00  0.00    +0.000 A 
ATOM      9  C   UNL     1       5.651   4.436  17.865  0.00  0.00    +0.000 A 
BRANCH   4  11
ATOM     10  C   UNL     1       5.500   6.729  15.202  0.00  0.00    +0.000 C 
ATOM     11  S   UNL     1       6.070   5.050  15.163  0.00  0.00    +0.000 S 
ATOM     12  O   UNL     1       5.612   4.412  13.947  0.00  0.00    +0.000 OA
ATOM     13  O   UNL     1       7.487   5.067  15.477  0.00  0.00    +0.000 OA
ENDBRANCH   4  11
BRANCH   9  14
ATOM     14  N   UNL     1       6.867   5.142  18.215  0.00  0.00    +0.000 N 
ATOM     15  O   UNL     1       7.869   4.441  18.403  0.00  0.00    +0.000 OA
ATOM     16  O   UNL     1       6.778   6.362  18.403  0.00  0.00    +0.000 OA
ENDBRANCH   9  14
ENDBRANCH   2   7
ENDBRANCH   1   2
BRANCH   1  17
ATOM     17  C   UNL     1       2.234   3.434  21.668  0.00  0.00    +0.000 C 
BRANCH  17  18
ATOM     18  C   UNL     1       1.590   4.592  20.895  0.00  0.00    +0.000 C 
ATOM     19  O   UNL     1       0.501   4.439  20.344  0.00  0.00    +0.000 OA
ATOM     20  N   UNL     1       2.362   5.747  20.865  0.00  0.00    +0.000 N 
ATOM     21  H   UNL     1       3.309   5.691  21.222  0.00  0.00    +0.000 HD
BRANCH  20  22
ATOM     22  C   UNL     1       1.974   6.987  20.307  0.00  0.00    +0.000 A 
ATOM     23  C   UNL     1       1.190   7.915  20.990  0.00  0.00    +0.000 A 
ATOM     24  C   UNL     1       0.835   9.129  20.395  0.00  0.00    +0.000 A 
ATOM     25  C   UNL     1       1.267   9.445  19.108  0.00  0.00    +0.000 A 
ATOM     26  C   UNL     1       2.027   8.512  18.405  0.00  0.00    +0.000 A 
ATOM     27  C   UNL     1       2.404   7.303  19.012  0.00  0.00    +0.000 A 
BRANCH  25  28
ATOM     28  O   UNL     1       0.812  10.633  18.629  0.00  0.00    +0.000 OA
BRANCH  28  29
ATOM     29  C   UNL     1       1.662  11.772  18.652  0.00  0.00    +0.000 C 
ATOM     30  F   UNL     1       2.806  11.631  17.953  0.00  0.00    +0.000 F 
ATOM     31  F   UNL     1       0.985  12.832  18.159  0.00  0.00    +0.000 F 
ATOM     32  F   UNL     1       1.989  12.042  19.936  0.00  0.00    +0.000 F 
ENDBRANCH  28  29
ENDBRANCH  25  28
ENDBRANCH  20  22
ENDBRANCH  17  18
ENDBRANCH   1  17
TORSDOF 9
ENDMDL
MODEL 5
REMARK VINA RESULT:      -7.5      1.140      1.421
REMARK  Name = 
REMARK  10 active torsions:
REMARK  status: ('A' for Active; 'I' for Inactive)
REMARK    1  A    between atoms: C_1  and  S_2
REMARK    2  A    between atoms: S_2  and  C_5
REMARK    3  A    between atoms: C_8  and  C_9
REMARK    4  A    between atoms: C_9  and  O_11
REMARK    5  A    between atoms: O_11  and  C_12
REMARK    6  A    between atoms: C_12  and  C_13
REMARK    7  A    between atoms: N_15  and  C_16
REMARK    8  A    between atoms: C_19  and  O_20
REMARK    9  A    between atoms: O_20  and  C_21
REMARK   10  A    between atoms: C_28  and  N_29
REMARK                            x       y       z     vdW  Elec       q    Type
REMARK                         _______ _______ _______ _____ _____    ______ ____
ROOT
ATOM      1  O   UNL     1       2.755   2.107  19.930  0.00  0.00    +0.000 OA
ENDROOT
BRANCH   1   2
ATOM      2  C   UNL     1       4.084   2.345  20.052  0.00  0.00    +0.000 C 
ATOM      3  O   UNL     1       4.778   2.009  21.000  0.00  0.00    +0.000 OA
BRANCH   2   7
ATOM      4  C   UNL     1       5.575   4.495  16.619  0.00  0.00    +0.000 A 
ATOM      5  C   UNL     1       4.699   3.411  16.478  0.00  0.00    +0.000 A 
ATOM      6  C   UNL     1       4.227   2.735  17.610  0.00  0.00    +0.000 A 
ATOM      7  C   UNL     1       4.610   3.132  18.900  0.00  0.00    +0.000 A 
ATOM      8  C   UNL     1       5.460   4.234  19.051  0.00  0.00    +0.000 A 
ATOM      9  C   UNL     1       5.932   4.907  17.906  0.00  0.00    +0.000 A 
BRANCH   4  11
ATOM     10  C   UNL     1       5.502   4.339  13.808  0.00  0.00    +0.000 C 
ATOM     11  S   UNL     1       6.057   5.365  15.144  0.00  0.00    +0.000 S 
ATOM     12  O   UNL     1       7.502   5.444  15.124  0.00  0.00    +0.000 OA
ATOM     13  O   UNL     1       5.269   6.583  15.109  0.00  0.00    +0.000 OA
ENDBRANCH   4  11
BRANCH   9  14
ATOM     14  N   UNL     1       6.876   5.984  18.129  0.00  0.00    +0.000 N 
ATOM     15  O   UNL     1       6.483   7.120  17.839  0.00  0.00    +0.000 OA
ATOM     16  O   UNL     1       8.019   5.669  18.481  0.00  0.00    +0.000 OA
ENDBRANCH   9  14
ENDBRANCH   2   7
ENDBRANCH   1   2
BRANCH   1  17
ATOM     17  C   UNL     1       1.942   2.976  20.731  0.00  0.00    +0.000 C 
BRANCH  17  18
ATOM     18  C   UNL     1       1.644   4.302  20.021  0.00  0.00    +0.000 C 
ATOM     19  O   UNL     1       1.191   4.304  18.877  0.00  0.00    +0.000 OA
ATOM     20  N   UNL     1       1.969   5.427  20.769  0.00  0.00    +0.000 N 
ATOM     21  H   UNL     1       2.482   5.288  21.631  0.00  0.00    +0.000 HD
BRANCH  20  22
ATOM     22  C   UNL     1       1.714   6.768  20.399  0.00  0.00    +0.000 A 
ATOM     23  C   UNL     1       2.287   7.370  19.281  0.00  0.00    +0.000 A 
ATOM     24  C   UNL     1       2.001   8.700  18.957  0.00  0.00    +0.000 A 
ATOM     25  C   UNL     1       1.127   9.451  19.740  0.00  0.00    +0.000 A 
ATOM     26  C   UNL     1       0.572   8.869  20.877  0.00  0.00    +0.000 A 
ATOM     27  C   UNL     1       0.840   7.526  21.189  0.00  0.00    +0.000 A 
BRANCH  25  28
ATOM     28  O   UNL     1       0.973  10.743  19.344  0.00  0.00    +0.000 OA
BRANCH  28  29
ATOM     29  C   UNL     1      -0.308  11.205  18.937  0.00  0.00    +0.000 C 
ATOM     30  F   UNL     1      -0.304  12.414  18.340  0.00  0.00    +0.000 F 
ATOM     31  F   UNL     1      -0.844  10.306  18.083  0.00  0.00    +0.000 F 
ATOM     32  F   UNL     1      -1.107  11.279  20.025  0.00  0.00    +0.000 F 
ENDBRANCH  28  29
ENDBRANCH  25  28
ENDBRANCH  20  22
ENDBRANCH  17  18
ENDBRANCH   1  17
TORSDOF 9
ENDMDL
MODEL 6
REMARK VINA RESULT:      -7.3      0.754      1.204
REMARK  Name = 
REMARK  10 active torsions:
REMARK  status: ('A' for Active; 'I' for Inactive)
REMARK    1  A    between atoms: C_1  and  S_2
REMARK    2  A    between atoms: S_2  and  C_5
REMARK    3  A    between atoms: C_8  and  C_9
REMARK    4  A    between atoms: C_9  and  O_11
REMARK    5  A    between atoms: O_11  and  C_12
REMARK    6  A    between atoms: C_12  and  C_13
REMARK    7  A    between atoms: N_15  and  C_16
REMARK    8  A    between atoms: C_19  and  O_20
REMARK    9  A    between atoms: O_20  and  C_21
REMARK   10  A    between atoms: C_28  and  N_29
REMARK                            x       y       z     vdW  Elec       q    Type
REMARK                         _______ _______ _______ _____ _____    ______ ____
ROOT
ATOM      1  O   UNL     1       2.564   2.915  20.514  0.00  0.00    +0.000 OA
ENDROOT
BRANCH   1   2
ATOM      2  C   UNL     1       3.870   2.575  20.380  0.00  0.00    +0.000 C 
ATOM      3  O   UNL     1       4.477   1.802  21.106  0.00  0.00    +0.000 OA
BRANCH   2   7
ATOM      4  C   UNL     1       5.633   4.635  17.021  0.00  0.00    +0.000 A 
ATOM      5  C   UNL     1       4.317   4.156  16.976  0.00  0.00    +0.000 A 
ATOM      6  C   UNL     1       3.768   3.497  18.082  0.00  0.00    +0.000 A 
ATOM      7  C   UNL     1       4.516   3.310  19.256  0.00  0.00    +0.000 A 
ATOM      8  C   UNL     1       5.820   3.813  19.320  0.00  0.00    +0.000 A 
ATOM      9  C   UNL     1       6.365   4.475  18.201  0.00  0.00    +0.000 A 
BRANCH   4  11
ATOM     10  C   UNL     1       6.662   4.309  14.420  0.00  0.00    +0.000 C 
ATOM     11  S   UNL     1       6.229   5.547  15.615  0.00  0.00    +0.000 S 
ATOM     12  O   UNL     1       7.418   6.265  16.020  0.00  0.00    +0.000 OA
ATOM     13  O   UNL     1       5.092   6.277  15.086  0.00  0.00    +0.000 OA
ENDBRANCH   4  11
BRANCH   9  14
ATOM     14  N   UNL     1       7.748   4.894  18.303  0.00  0.00    +0.000 N 
ATOM     15  O   UNL     1       7.943   6.004  18.814  0.00  0.00    +0.000 OA
ATOM     16  O   UNL     1       8.600   4.166  17.779  0.00  0.00    +0.000 OA
ENDBRANCH   9  14
ENDBRANCH   2   7
ENDBRANCH   1   2
BRANCH   1  17
ATOM     17  C   UNL     1       2.351   4.040  21.379  0.00  0.00    +0.000 C 
BRANCH  17  18
ATOM     18  C   UNL     1       1.619   5.184  20.666  0.00  0.00    +0.000 C 
ATOM     19  O   UNL     1       0.496   5.003  20.198  0.00  0.00    +0.000 OA
ATOM     20  N   UNL     1       2.355   6.359  20.585  0.00  0.00    +0.000 N 
ATOM     21  H   UNL     1       3.327   6.328  20.868  0.00  0.00    +0.000 HD
BRANCH  20  22
ATOM     22  C   UNL     1       1.892   7.591  20.067  0.00  0.00    +0.000 A 
ATOM     23  C   UNL     1       2.090   7.982  18.744  0.00  0.00    +0.000 A 
ATOM     24  C   UNL     1       1.610   9.211  18.280  0.00  0.00    +0.000 A 
ATOM     25  C   UNL     1       0.912  10.069  19.128  0.00  0.00    +0.000 A 
ATOM     26  C   UNL     1       0.733   9.701  20.459  0.00  0.00    +0.000 A 
ATOM     27  C   UNL     1       1.194   8.456  20.920  0.00  0.00    +0.000 A 
BRANCH  25  28
ATOM     28  O   UNL     1       0.543  11.250  18.566  0.00  0.00    +0.000 OA
BRANCH  28  29
ATOM     29  C   UNL     1       1.047  12.468  19.098  0.00  0.00    +0.000 C 
ATOM     30  F   UNL     1       2.319  12.403  19.541  0.00  0.00    +0.000 F 
ATOM     31  F   UNL     1       0.971  13.424  18.146  0.00  0.00    +0.000 F 
ATOM     32  F   UNL     1       0.263  12.844  20.134  0.00  0.00    +0.000 F 
ENDBRANCH  28  29
ENDBRANCH  25  28
ENDBRANCH  20  22
ENDBRANCH  17  18
ENDBRANCH   1  17
TORSDOF 9
ENDMDL
MODEL 7
REMARK VINA RESULT:      -7.3      5.455      7.442
REMARK  Name = 
REMARK  10 active torsions:
REMARK  status: ('A' for Active; 'I' for Inactive)
REMARK    1  A    between atoms: C_1  and  S_2
REMARK    2  A    between atoms: S_2  and  C_5
REMARK    3  A    between atoms: C_8  and  C_9
REMARK    4  A    between atoms: C_9  and  O_11
REMARK    5  A    between atoms: O_11  and  C_12
REMARK    6  A    between atoms: C_12  and  C_13
REMARK    7  A    between atoms: N_15  and  C_16
REMARK    8  A    between atoms: C_19  and  O_20
REMARK    9  A    between atoms: O_20  and  C_21
REMARK   10  A    between atoms: C_28  and  N_29
REMARK                            x       y       z     vdW  Elec       q    Type
REMARK                         _______ _______ _______ _____ _____    ______ ____
ROOT
ATOM      1  O   UNL     1       6.933   7.343  17.066  0.00  0.00    +0.000 OA
ENDROOT
BRANCH   1   2
ATOM      2  C   UNL     1       6.684   6.033  16.822  0.00  0.00    +0.000 C 
ATOM      3  O   UNL     1       7.255   5.350  15.985  0.00  0.00    +0.000 OA
BRANCH   2   7
ATOM      4  C   UNL     1       3.429   4.696  19.322  0.00  0.00    +0.000 A 
ATOM      5  C   UNL     1       3.537   6.032  18.916  0.00  0.00    +0.000 A 
ATOM      6  C   UNL     1       4.601   6.437  18.100  0.00  0.00    +0.000 A 
ATOM      7  C   UNL     1       5.569   5.518  17.666  0.00  0.00    +0.000 A 
ATOM      8  C   UNL     1       5.450   4.175  18.041  0.00  0.00    +0.000 A 
ATOM      9  C   UNL     1       4.377   3.776  18.864  0.00  0.00    +0.000 A 
BRANCH   4  11
ATOM     10  C   UNL     1       1.241   5.773  20.730  0.00  0.00    +0.000 C 
ATOM     11  S   UNL     1       2.001   4.235  20.277  0.00  0.00    +0.000 S 
ATOM     12  O   UNL     1       2.461   3.554  21.468  0.00  0.00    +0.000 OA
ATOM     13  O   UNL     1       1.097   3.559  19.365  0.00  0.00    +0.000 OA
ENDBRANCH   4  11
BRANCH   9  14
ATOM     14  N   UNL     1       4.362   2.390  19.285  0.00  0.00    +0.000 N 
ATOM     15  O   UNL     1       3.638   1.630  18.630  0.00  0.00    +0.000 OA
ATOM     16  O   UNL     1       4.980   2.106  20.319  0.00  0.00    +0.000 OA
ENDBRANCH   9  14
ENDBRANCH   2   7
ENDBRANCH   1   2
BRANCH   1  17
ATOM     17  C   UNL     1       7.986   7.559  18.016  0.00  0.00    +0.000 C 
BRANCH  17  18
ATOM     18  C   UNL     1       8.294   9.049  18.207  0.00  0.00    +0.000 C 
ATOM     19  O   UNL     1       7.757   9.889  17.487  0.00  0.00    +0.000 OA
ATOM     20  N   UNL     1       9.229   9.308  19.202  0.00  0.00    +0.000 N 
ATOM     21  H   UNL     1       9.714   8.518  19.611  0.00  0.00    +0.000 HD
BRANCH  20  22
ATOM     22  C   UNL     1       9.627  10.589  19.650  0.00  0.00    +0.000 A 
ATOM     23  C   UNL     1       9.233  11.120  20.877  0.00  0.00    +0.000 A 
ATOM     24  C   UNL     1       9.656  12.392  21.275  0.00  0.00    +0.000 A 
ATOM     25  C   UNL     1      10.490  13.154  20.459  0.00  0.00    +0.000 A 
ATOM     26  C   UNL     1      10.866  12.644  19.218  0.00  0.00    +0.000 A 
ATOM     27  C   UNL     1      10.461  11.356  18.828  0.00  0.00    +0.000 A 
BRANCH  25  28
ATOM     28  O   UNL     1      10.787  14.389  20.941  0.00  0.00    +0.000 OA
BRANCH  28  29
ATOM     29  C   UNL     1       9.893  15.469  20.705  0.00  0.00    +0.000 C 
ATOM     30  F   UNL     1      10.487  16.673  20.587  0.00  0.00    +0.000 F 
ATOM     31  F   UNL     1       9.198  15.220  19.573  0.00  0.00    +0.000 F 
ATOM     32  F   UNL     1       9.015  15.536  21.731  0.00  0.00    +0.000 F 
ENDBRANCH  28  29
ENDBRANCH  25  28
ENDBRANCH  20  22
ENDBRANCH  17  18
ENDBRANCH   1  17
TORSDOF 9
ENDMDL
MODEL 8
REMARK VINA RESULT:      -7.2      1.721      2.304
REMARK  Name = 
REMARK  10 active torsions:
REMARK  status: ('A' for Active; 'I' for Inactive)
REMARK    1  A    between atoms: C_1  and  S_2
REMARK    2  A    between atoms: S_2  and  C_5
REMARK    3  A    between atoms: C_8  and  C_9
REMARK    4  A    between atoms: C_9  and  O_11
REMARK    5  A    between atoms: O_11  and  C_12
REMARK    6  A    between atoms: C_12  and  C_13
REMARK    7  A    between atoms: N_15  and  C_16
REMARK    8  A    between atoms: C_19  and  O_20
REMARK    9  A    between atoms: O_20  and  C_21
REMARK   10  A    between atoms: C_28  and  N_29
REMARK                            x       y       z     vdW  Elec       q    Type
REMARK                         _______ _______ _______ _____ _____    ______ ____
ROOT
ATOM      1  O   UNL     1       2.425   2.849  20.573  0.00  0.00    +0.000 OA
ENDROOT
BRANCH   1   2
ATOM      2  C   UNL     1       2.859   2.339  19.395  0.00  0.00    +0.000 C 
ATOM      3  O   UNL     1       2.602   1.221  18.972  0.00  0.00    +0.000 OA
BRANCH   2   7
ATOM      4  C   UNL     1       5.361   5.073  17.183  0.00  0.00    +0.000 A 
ATOM      5  C   UNL     1       4.070   4.750  16.748  0.00  0.00    +0.000 A 
ATOM      6  C   UNL     1       3.277   3.864  17.488  0.00  0.00    +0.000 A 
ATOM      7  C   UNL     1       3.752   3.292  18.679  0.00  0.00    +0.000 A 
ATOM      8  C   UNL     1       5.030   3.635  19.137  0.00  0.00    +0.000 A 
ATOM      9  C   UNL     1       5.821   4.526  18.384  0.00  0.00    +0.000 A 
BRANCH   4  11
ATOM     10  C   UNL     1       6.790   7.487  17.435  0.00  0.00    +0.000 C 
ATOM     11  S   UNL     1       6.272   6.279  16.244  0.00  0.00    +0.000 S 
ATOM     12  O   UNL     1       5.361   6.890  15.300  0.00  0.00    +0.000 OA
ATOM     13  O   UNL     1       7.465   5.608  15.762  0.00  0.00    +0.000 OA
ENDBRANCH   4  11
BRANCH   9  14
ATOM     14  N   UNL     1       7.165   4.771  18.869  0.00  0.00    +0.000 N 
ATOM     15  O   UNL     1       7.259   5.492  19.870  0.00  0.00    +0.000 OA
ATOM     16  O   UNL     1       8.100   4.334  18.186  0.00  0.00    +0.000 OA
ENDBRANCH   9  14
ENDBRANCH   2   7
ENDBRANCH   1   2
BRANCH   1  17
ATOM     17  C   UNL     1       2.965   4.145  20.870  0.00  0.00    +0.000 C 
BRANCH  17  18
ATOM     18  C   UNL     1       2.010   5.274  20.463  0.00  0.00    +0.000 C 
ATOM     19  O   UNL     1       0.793   5.095  20.487  0.00  0.00    +0.000 OA
ATOM     20  N   UNL     1       2.653   6.434  20.050  0.00  0.00    +0.000 N 
ATOM     21  H   UNL     1       3.658   6.398  19.925  0.00  0.00    +0.000 HD
BRANCH  20  22
ATOM     22  C   UNL     1       2.023   7.654  19.712  0.00  0.00    +0.000 A 
ATOM     23  C   UNL     1       1.334   8.436  20.637  0.00  0.00    +0.000 A 
ATOM     24  C   UNL     1       0.730   9.636  20.252  0.00  0.00    +0.000 A 
ATOM     25  C   UNL     1       0.811  10.085  18.936  0.00  0.00    +0.000 A 
ATOM     26  C   UNL     1       1.472   9.297  17.996  0.00  0.00    +0.000 A 
ATOM     27  C   UNL     1       2.100   8.103  18.387  0.00  0.00    +0.000 A 
BRANCH  25  28
ATOM     28  O   UNL     1       0.140  11.240  18.684  0.00  0.00    +0.000 OA
BRANCH  28  29
ATOM     29  C   UNL     1      -1.263  11.202  18.458  0.00  0.00    +0.000 C 
ATOM     30  F   UNL     1      -2.013  11.451  19.550  0.00  0.00    +0.000 F 
ATOM     31  F   UNL     1      -1.576  12.108  17.506  0.00  0.00    +0.000 F 
ATOM     32  F   UNL     1      -1.594   9.975  17.996  0.00  0.00    +0.000 F 
ENDBRANCH  28  29
ENDBRANCH  25  28
ENDBRANCH  20  22
ENDBRANCH  17  18
ENDBRANCH   1  17
TORSDOF 9
ENDMDL
MODEL 9
REMARK VINA RESULT:      -7.1      0.878      1.339
REMARK  Name = 
REMARK  10 active torsions:
REMARK  status: ('A' for Active; 'I' for Inactive)
REMARK    1  A    between atoms: C_1  and  S_2
REMARK    2  A    between atoms: S_2  and  C_5
REMARK    3  A    between atoms: C_8  and  C_9
REMARK    4  A    between atoms: C_9  and  O_11
REMARK    5  A    between atoms: O_11  and  C_12
REMARK    6  A    between atoms: C_12  and  C_13
REMARK    7  A    between atoms: N_15  and  C_16
REMARK    8  A    between atoms: C_19  and  O_20
REMARK    9  A    between atoms: O_20  and  C_21
REMARK   10  A    between atoms: C_28  and  N_29
REMARK                            x       y       z     vdW  Elec       q    Type
REMARK                         _______ _______ _______ _____ _____    ______ ____
ROOT
ATOM      1  O   UNL     1       3.418   3.157  21.029  0.00  0.00    +0.000 OA
ENDROOT
BRANCH   1   2
ATOM      2  C   UNL     1       3.206   2.518  19.852  0.00  0.00    +0.000 C 
ATOM      3  O   UNL     1       2.569   1.484  19.715  0.00  0.00    +0.000 OA
BRANCH   2   7
ATOM      4  C   UNL     1       5.135   4.393  16.477  0.00  0.00    +0.000 A 
ATOM      5  C   UNL     1       3.931   3.693  16.334  0.00  0.00    +0.000 A 
ATOM      6  C   UNL     1       3.323   3.099  17.447  0.00  0.00    +0.000 A 
ATOM      7  C   UNL     1       3.900   3.200  18.723  0.00  0.00    +0.000 A 
ATOM      8  C   UNL     1       5.087   3.925  18.880  0.00  0.00    +0.000 A 
ATOM      9  C   UNL     1       5.691   4.518  17.754  0.00  0.00    +0.000 A 
BRANCH   4  11
ATOM     10  C   UNL     1       7.519   4.777  15.027  0.00  0.00    +0.000 C 
ATOM     11  S   UNL     1       5.797   5.203  15.038  0.00  0.00    +0.000 S 
ATOM     12  O   UNL     1       5.653   6.631  15.223  0.00  0.00    +0.000 OA
ATOM     13  O   UNL     1       5.186   4.561  13.888  0.00  0.00    +0.000 OA
ENDBRANCH   4  11
BRANCH   9  14
ATOM     14  N   UNL     1       6.962   5.180  17.971  0.00  0.00    +0.000 N 
ATOM     15  O   UNL     1       6.913   6.400  18.165  0.00  0.00    +0.000 OA
ATOM     16  O   UNL     1       7.985   4.497  17.838  0.00  0.00    +0.000 OA
ENDBRANCH   9  14
ENDBRANCH   2   7
ENDBRANCH   1   2
BRANCH   1  17
ATOM     17  C   UNL     1       2.217   3.657  21.634  0.00  0.00    +0.000 C 
BRANCH  17  18
ATOM     18  C   UNL     1       1.588   4.791  20.815  0.00  0.00    +0.000 C 
ATOM     19  O   UNL     1       0.514   4.618  20.241  0.00  0.00    +0.000 OA
ATOM     20  N   UNL     1       2.357   5.947  20.772  0.00  0.00    +0.000 N 
ATOM     21  H   UNL     1       3.294   5.906  21.154  0.00  0.00    +0.000 HD
BRANCH  20  22
ATOM     22  C   UNL     1       1.977   7.171  20.172  0.00  0.00    +0.000 A 
ATOM     23  C   UNL     1       2.358   7.534  18.881  0.00  0.00    +0.000 A 
ATOM     24  C   UNL     1       1.954   8.754  18.332  0.00  0.00    +0.000 A 
ATOM     25  C   UNL     1       1.152   9.632  19.059  0.00  0.00    +0.000 A 
ATOM     26  C   UNL     1       0.790   9.292  20.360  0.00  0.00    +0.000 A 
ATOM     27  C   UNL     1       1.176   8.055  20.904  0.00  0.00    +0.000 A 
BRANCH  25  28
ATOM     28  O   UNL     1       0.872  10.804  18.428  0.00  0.00    +0.000 OA
BRANCH  28  29
ATOM     29  C   UNL     1       1.733  11.921  18.608  0.00  0.00    +0.000 C 
ATOM     30  F   UNL     1       2.005  12.218  19.894  0.00  0.00    +0.000 F 
ATOM     31  F   UNL     1       2.898  11.681  17.966  0.00  0.00    +0.000 F 
ATOM     32  F   UNL     1       1.157  13.005  18.041  0.00  0.00    +0.000 F 
ENDBRANCH  28  29
ENDBRANCH  25  28
ENDBRANCH  20  22
ENDBRANCH  17  18
ENDBRANCH   1  17
TORSDOF 9
ENDMDL
