MODEL 1
REMARK VINA RESULT:      -7.1      0.000      0.000
REMARK  Name = 
REMARK  4 active torsions:
REMARK  status: ('A' for Active; 'I' for Inactive)
REMARK    1  A    between atoms: C_1  and  N_2
REMARK    2  A    between atoms: N_9  and  C_10
REMARK    3  A    between atoms: C_10  and  C_11
REMARK    4  A    between atoms: C_10  and  C_12
REMARK                            x       y       z     vdW  Elec       q    Type
REMARK                         _______ _______ _______ _____ _____    ______ ____
ROOT
ATOM      1  C   UNL     1       2.024   7.538  19.931  0.00  0.00    +0.000 C 
ATOM      2  N   UNL     1       2.411   7.195  18.578  0.00  0.00    +0.000 N 
ATOM      3  C   UNL     1       2.723   5.854  18.387  0.00  0.00    +0.000 A 
ATOM      4  N   UNL     1       2.088   4.933  19.087  0.00  0.00    +0.000 NA
ATOM      5  C   UNL     1       2.478   3.705  18.815  0.00  0.00    +0.000 A 
ATOM      6 CL   UNL     1       1.721   2.460  19.709  0.00  0.00    +0.000 Cl
ATOM      7  N   UNL     1       3.417   3.315  17.962  0.00  0.00    +0.000 NA
ATOM      8  C   UNL     1       3.987   4.310  17.309  0.00  0.00    +0.000 A 
ATOM      9  N   UNL     1       4.928   3.926  16.374  0.00  0.00    +0.000 N 
ATOM     10  N   UNL     1       3.681   5.592  17.499  0.00  0.00    +0.000 NA
ATOM     11  H   UNL     1       3.169   7.742  18.188  0.00  0.00    +0.000 HD
ATOM     12  H   UNL     1       5.166   2.953  16.522  0.00  0.00    +0.000 HD
ENDROOT
BRANCH   9  13
ATOM     13  C   UNL     1       6.024   4.812  16.021  0.00  0.00    +0.000 C 
ATOM     14  C   UNL     1       7.228   4.589  16.943  0.00  0.00    +0.000 C 
BRANCH  13  15
ATOM     15  C   UNL     1       6.411   4.584  14.562  0.00  0.00    +0.000 A 
ATOM     16  C   UNL     1       5.651   3.698  13.780  0.00  0.00    +0.000 A 
ATOM     17  C   UNL     1       5.964   3.468  12.438  0.00  0.00    +0.000 A 
ATOM     18  C   UNL     1       7.045   4.119  11.852  0.00  0.00    +0.000 A 
ATOM     19  C   UNL     1       7.814   5.002  12.608  0.00  0.00    +0.000 A 
ATOM     20  C   UNL     1       7.499   5.234  13.953  0.00  0.00    +0.000 A 
ENDBRANCH  13  15
ENDBRANCH   9  13
TORSDOF 2
ENDMDL
MODEL 2
REMARK VINA RESULT:      -6.7      2.959      6.408
REMARK  Name = 
REMARK  4 active torsions:
REMARK  status: ('A' for Active; 'I' for Inactive)
REMARK    1  A    between atoms: C_1  and  N_2
REMARK    2  A    between atoms: N_9  and  C_10
REMARK    3  A    between atoms: C_10  and  C_11
REMARK    4  A    between atoms: C_10  and  C_12
REMARK                            x       y       z     vdW  Elec       q    Type
REMARK                         _______ _______ _______ _____ _____    ______ ____
ROOT
ATOM      1  C   UNL     1       7.943   8.162  17.559  0.00  0.00    +0.000 C 
ATOM      2  N   UNL     1       7.227   7.048  18.149  0.00  0.00    +0.000 N 
ATOM      3  C   UNL     1       6.614   6.202  17.233  0.00  0.00    +0.000 A 
ATOM      4  N   UNL     1       7.176   6.005  16.054  0.00  0.00    +0.000 NA
ATOM      5  C   UNL     1       6.494   5.187  15.279  0.00  0.00    +0.000 A 
ATOM      6 CL   UNL     1       7.144   4.910  13.723  0.00  0.00    +0.000 Cl
ATOM      7  N   UNL     1       5.342   4.582  15.540  0.00  0.00    +0.000 NA
ATOM      8  C   UNL     1       4.869   4.840  16.745  0.00  0.00    +0.000 A 
ATOM      9  N   UNL     1       3.699   4.177  17.062  0.00  0.00    +0.000 N 
ATOM     10  N   UNL     1       5.464   5.653  17.616  0.00  0.00    +0.000 NA
ATOM     11  H   UNL     1       6.535   7.294  18.846  0.00  0.00    +0.000 HD
ATOM     12  H   UNL     1       3.302   3.783  16.219  0.00  0.00    +0.000 HD
ENDROOT
BRANCH   9  13
ATOM     13  C   UNL     1       2.761   4.748  18.012  0.00  0.00    +0.000 C 
ATOM     14  C   UNL     1       1.343   4.783  17.429  0.00  0.00    +0.000 C 
BRANCH  13  15
ATOM     15  C   UNL     1       2.793   3.937  19.306  0.00  0.00    +0.000 A 
ATOM     16  C   UNL     1       3.768   2.939  19.466  0.00  0.00    +0.000 A 
ATOM     17  C   UNL     1       3.839   2.181  20.638  0.00  0.00    +0.000 A 
ATOM     18  C   UNL     1       2.936   2.406  21.671  0.00  0.00    +0.000 A 
ATOM     19  C   UNL     1       1.959   3.391  21.534  0.00  0.00    +0.000 A 
ATOM     20  C   UNL     1       1.888   4.152  20.360  0.00  0.00    +0.000 A 
ENDBRANCH  13  15
ENDBRANCH   9  13
TORSDOF 2
ENDMDL
MODEL 3
REMARK VINA RESULT:      -6.7      1.172      1.720
REMARK  Name = 
REMARK  4 active torsions:
REMARK  status: ('A' for Active; 'I' for Inactive)
REMARK    1  A    between atoms: C_1  and  N_2
REMARK    2  A    between atoms: N_9  and  C_10
REMARK    3  A    between atoms: C_10  and  C_11
REMARK    4  A    between atoms: C_10  and  C_12
REMARK                            x       y       z     vdW  Elec       q    Type
REMARK                         _______ _______ _______ _____ _____    ______ ____
ROOT
ATOM      1  C   UNL     1       1.784   8.121  19.941  0.00  0.00    +0.000 C 
ATOM      2  N   UNL     1       2.307   7.392  18.803  0.00  0.00    +0.000 N 
ATOM      3  C   UNL     1       2.810   6.132  19.104  0.00  0.00    +0.000 A 
ATOM      4  N   UNL     1       2.258   5.426  20.074  0.00  0.00    +0.000 NA
ATOM      5  C   UNL     1       2.829   4.254  20.260  0.00  0.00    +0.000 A 
ATOM      6 CL   UNL     1       2.187   3.298  21.523  0.00  0.00    +0.000 Cl
ATOM      7  N   UNL     1       3.869   3.739  19.616  0.00  0.00    +0.000 NA
ATOM      8  C   UNL     1       4.342   4.520  18.663  0.00  0.00    +0.000 A 
ATOM      9  N   UNL     1       5.390   3.982  17.941  0.00  0.00    +0.000 N 
ATOM     10  N   UNL     1       3.853   5.726  18.383  0.00  0.00    +0.000 NA
ATOM     11  H   UNL     1       3.009   7.878  18.259  0.00  0.00    +0.000 HD
ATOM     12  H   UNL     1       5.746   3.169  18.427  0.00  0.00    +0.000 HD
ENDROOT
BRANCH   9  13
ATOM     13  C   UNL     1       6.377   4.845  17.317  0.00  0.00    +0.000 C 
ATOM     14  C   UNL     1       7.773   4.593  17.900  0.00  0.00    +0.000 C 
BRANCH  13  15
ATOM     15  C   UNL     1       6.372   4.613  15.808  0.00  0.00    +0.000 A 
ATOM     16  C   UNL     1       7.441   5.098  15.035  0.00  0.00    +0.000 A 
ATOM     17  C   UNL     1       7.481   4.898  13.653  0.00  0.00    +0.000 A 
ATOM     18  C   UNL     1       6.452   4.212  13.016  0.00  0.00    +0.000 A 
ATOM     19  C   UNL     1       5.381   3.723  13.762  0.00  0.00    +0.000 A 
ATOM     20  C   UNL     1       5.341   3.921  15.148  0.00  0.00    +0.000 A 
ENDBRANCH  13  15
ENDBRANCH   9  13
TORSDOF 2
ENDMDL
MODEL 4
REMARK VINA RESULT:      -6.7      1.661      3.325
REMARK  Name = 
REMARK  4 active torsions:
REMARK  status: ('A' for Active; 'I' for Inactive)
REMARK    1  A    between atoms: C_1  and  N_2
REMARK    2  A    between atoms: N_9  and  C_10
REMARK    3  A    between atoms: C_10  and  C_11
REMARK    4  A    between atoms: C_10  and  C_12
REMARK                            x       y       z     vdW  Elec       q    Type
REMARK                         _______ _______ _______ _____ _____    ______ ____
ROOT
ATOM      1  C   UNL     1       2.195   7.576  19.368  0.00  0.00    +0.000 C 
ATOM      2  N   UNL     1       2.507   6.824  18.170  0.00  0.00    +0.000 N 
ATOM      3  C   UNL     1       3.006   5.547  18.400  0.00  0.00    +0.000 A 
ATOM      4  N   UNL     1       2.588   4.867  19.451  0.00  0.00    +0.000 NA
ATOM      5  C   UNL     1       3.139   3.675  19.558  0.00  0.00    +0.000 A 
ATOM      6 CL   UNL     1       2.670   2.748  20.915  0.00  0.00    +0.000 Cl
ATOM      7  N   UNL     1       4.046   3.120  18.764  0.00  0.00    +0.000 NA
ATOM      8  C   UNL     1       4.392   3.879  17.740  0.00  0.00    +0.000 A 
ATOM      9  N   UNL     1       5.293   3.300  16.868  0.00  0.00    +0.000 N 
ATOM     10  N   UNL     1       3.908   5.101  17.528  0.00  0.00    +0.000 NA
ATOM     11  H   UNL     1       3.132   7.281  17.517  0.00  0.00    +0.000 HD
ATOM     12  H   UNL     1       5.692   2.476  17.301  0.00  0.00    +0.000 HD
ENDROOT
BRANCH   9  13
ATOM     13  C   UNL     1       6.200   4.124  16.089  0.00  0.00    +0.000 C 
ATOM     14  C   UNL     1       5.455   4.836  14.953  0.00  0.00    +0.000 C 
BRANCH  13  15
ATOM     15  C   UNL     1       6.882   5.136  17.007  0.00  0.00    +0.000 A 
ATOM     16  C   UNL     1       6.913   6.489  16.633  0.00  0.00    +0.000 A 
ATOM     17  C   UNL     1       7.517   7.450  17.449  0.00  0.00    +0.000 A 
ATOM     18  C   UNL     1       8.103   7.074  18.653  0.00  0.00    +0.000 A 
ATOM     19  C   UNL     1       8.085   5.736  19.044  0.00  0.00    +0.000 A 
ATOM     20  C   UNL     1       7.479   4.773  18.227  0.00  0.00    +0.000 A 
ENDBRANCH  13  15
ENDBRANCH   9  13
TORSDOF 2
ENDMDL
MODEL 5
REMARK VINA RESULT:      -6.6      3.077      6.526
REMARK  Name = 
REMARK  4 active torsions:
REMARK  status: ('A' for Active; 'I' for Inactive)
REMARK    1  A    between atoms: C_1  and  N_2
REMARK    2  A    between atoms: N_9  and  C_10
REMARK    3  A    between atoms: C_10  and  C_11
REMARK    4  A    between atoms: C_10  and  C_12
REMARK                            x       y       z     vdW  Elec       q    Type
REMARK                         _______ _______ _______ _____ _____    ______ ____
ROOT
ATOM      1  C   UNL     1       6.932   4.860  14.182  0.00  0.00    +0.000 C 
ATOM      2  N   UNL     1       5.816   4.738  15.098  0.00  0.00    +0.000 N 
ATOM      3  C   UNL     1       6.099   5.102  16.409  0.00  0.00    +0.000 A 
ATOM      4  N   UNL     1       6.971   6.066  16.642  0.00  0.00    +0.000 NA
ATOM      5  C   UNL     1       7.152   6.311  17.923  0.00  0.00    +0.000 A 
ATOM      6 CL   UNL     1       8.293   7.525  18.302  0.00  0.00    +0.000 Cl
ATOM      7  N   UNL     1       6.589   5.703  18.960  0.00  0.00    +0.000 NA
ATOM      8  C   UNL     1       5.730   4.760  18.620  0.00  0.00    +0.000 A 
ATOM      9  N   UNL     1       5.089   4.151  19.681  0.00  0.00    +0.000 N 
ATOM     10  N   UNL     1       5.466   4.419  17.360  0.00  0.00    +0.000 NA
ATOM     11  H   UNL     1       5.370   3.829  15.125  0.00  0.00    +0.000 HD
ATOM     12  H   UNL     1       5.565   4.393  20.541  0.00  0.00    +0.000 HD
ENDROOT
BRANCH   9  13
ATOM     13  C   UNL     1       4.612   2.783  19.570  0.00  0.00    +0.000 C 
ATOM     14  C   UNL     1       5.213   1.902  20.672  0.00  0.00    +0.000 C 
BRANCH  13  15
ATOM     15  C   UNL     1       3.087   2.771  19.639  0.00  0.00    +0.000 A 
ATOM     16  C   UNL     1       2.348   2.566  18.462  0.00  0.00    +0.000 A 
ATOM     17  C   UNL     1       0.951   2.536  18.482  0.00  0.00    +0.000 A 
ATOM     18  C   UNL     1       0.267   2.713  19.681  0.00  0.00    +0.000 A 
ATOM     19  C   UNL     1       0.979   2.918  20.861  0.00  0.00    +0.000 A 
ATOM     20  C   UNL     1       2.379   2.947  20.841  0.00  0.00    +0.000 A 
ENDBRANCH  13  15
ENDBRANCH   9  13
TORSDOF 2
ENDMDL
MODEL 6
REMARK VINA RESULT:      -6.6      1.685      3.298
REMARK  Name = 
REMARK  4 active torsions:
REMARK  status: ('A' for Active; 'I' for Inactive)
REMARK    1  A    between atoms: C_1  and  N_2
REMARK    2  A    between atoms: N_9  and  C_10
REMARK    3  A    between atoms: C_10  and  C_11
REMARK    4  A    between atoms: C_10  and  C_12
REMARK                            x       y       z     vdW  Elec       q    Type
REMARK                         _______ _______ _______ _____ _____    ______ ____
ROOT
ATOM      1  C   UNL     1       2.124   7.710  19.300  0.00  0.00    +0.000 C 
ATOM      2  N   UNL     1       2.441   6.926  18.123  0.00  0.00    +0.000 N 
ATOM      3  C   UNL     1       2.942   5.657  18.390  0.00  0.00    +0.000 A 
ATOM      4  N   UNL     1       2.524   5.005  19.459  0.00  0.00    +0.000 NA
ATOM      5  C   UNL     1       3.078   3.818  19.599  0.00  0.00    +0.000 A 
ATOM      6 CL   UNL     1       2.607   2.928  20.980  0.00  0.00    +0.000 Cl
ATOM      7  N   UNL     1       3.988   3.243  18.823  0.00  0.00    +0.000 NA
ATOM      8  C   UNL     1       4.334   3.975  17.780  0.00  0.00    +0.000 A 
ATOM      9  N   UNL     1       5.239   3.374  16.926  0.00  0.00    +0.000 N 
ATOM     10  N   UNL     1       3.847   5.190  17.533  0.00  0.00    +0.000 NA
ATOM     11  H   UNL     1       3.066   7.367  17.459  0.00  0.00    +0.000 HD
ATOM     12  H   UNL     1       5.638   2.564  17.382  0.00  0.00    +0.000 HD
ENDROOT
BRANCH   9  13
ATOM     13  C   UNL     1       6.145   4.178  16.126  0.00  0.00    +0.000 C 
ATOM     14  C   UNL     1       5.399   4.868  14.977  0.00  0.00    +0.000 C 
BRANCH  13  15
ATOM     15  C   UNL     1       6.832   5.209  17.019  0.00  0.00    +0.000 A 
ATOM     16  C   UNL     1       7.427   4.788  18.220  0.00  0.00    +0.000 A 
ATOM     17  C   UNL     1       8.076   5.696  19.062  0.00  0.00    +0.000 A 
ATOM     18  C   UNL     1       8.139   7.043  18.718  0.00  0.00    +0.000 A 
ATOM     19  C   UNL     1       7.555   7.483  17.532  0.00  0.00    +0.000 A 
ATOM     20  C   UNL     1       6.906   6.573  16.688  0.00  0.00    +0.000 A 
ENDBRANCH  13  15
ENDBRANCH   9  13
TORSDOF 2
ENDMDL
MODEL 7
REMARK VINA RESULT:      -6.6      0.559      1.260
REMARK  Name = 
REMARK  4 active torsions:
REMARK  status: ('A' for Active; 'I' for Inactive)
REMARK    1  A    between atoms: C_1  and  N_2
REMARK    2  A    between atoms: N_9  and  C_10
REMARK    3  A    between atoms: C_10  and  C_11
REMARK    4  A    between atoms: C_10  and  C_12
REMARK                            x       y       z     vdW  Elec       q    Type
REMARK                         _______ _______ _______ _____ _____    ______ ____
ROOT
ATOM      1  C   UNL     1       2.100   6.623  20.690  0.00  0.00    +0.000 C 
ATOM      2  N   UNL     1       2.373   6.595  19.267  0.00  0.00    +0.000 N 
ATOM      3  C   UNL     1       2.615   5.329  18.748  0.00  0.00    +0.000 A 
ATOM      4  N   UNL     1       1.995   4.284  19.267  0.00  0.00    +0.000 NA
ATOM      5  C   UNL     1       2.315   3.145  18.689  0.00  0.00    +0.000 A 
ATOM      6 CL   UNL     1       1.575   1.744  19.330  0.00  0.00    +0.000 Cl
ATOM      7  N   UNL     1       3.173   2.943  17.697  0.00  0.00    +0.000 NA
ATOM      8  C   UNL     1       3.733   4.050  17.247  0.00  0.00    +0.000 A 
ATOM      9  N   UNL     1       4.588   3.873  16.176  0.00  0.00    +0.000 N 
ATOM     10  N   UNL     1       3.494   5.259  17.751  0.00  0.00    +0.000 NA
ATOM     11  H   UNL     1       3.122   7.200  18.955  0.00  0.00    +0.000 HD
ATOM     12  H   UNL     1       4.796   2.887  16.076  0.00  0.00    +0.000 HD
ENDROOT
BRANCH   9  13
ATOM     13  C   UNL     1       5.690   4.791  15.950  0.00  0.00    +0.000 C 
ATOM     14  C   UNL     1       6.797   4.585  16.991  0.00  0.00    +0.000 C 
BRANCH  13  15
ATOM     15  C   UNL     1       6.234   4.593  14.537  0.00  0.00    +0.000 A 
ATOM     16  C   UNL     1       7.357   5.329  14.124  0.00  0.00    +0.000 A 
ATOM     17  C   UNL     1       7.893   5.171  12.843  0.00  0.00    +0.000 A 
ATOM     18  C   UNL     1       7.315   4.274  11.951  0.00  0.00    +0.000 A 
ATOM     19  C   UNL     1       6.199   3.534  12.338  0.00  0.00    +0.000 A 
ATOM     20  C   UNL     1       5.662   3.691  13.622  0.00  0.00    +0.000 A 
ENDBRANCH  13  15
ENDBRANCH   9  13
TORSDOF 2
ENDMDL
MODEL 8
REMARK VINA RESULT:      -6.5      3.262      7.429
REMARK  Name = 
REMARK  4 active torsions:
REMARK  status: ('A' for Active; 'I' for Inactive)
REMARK    1  A    between atoms: C_1  and  N_2
REMARK    2  A    between atoms: N_9  and  C_10
REMARK    3  A    between atoms: C_10  and  C_11
REMARK    4  A    between atoms: C_10  and  C_12
REMARK                            x       y       z     vdW  Elec       q    Type
REMARK                         _______ _______ _______ _____ _____    ______ ____
ROOT
ATOM      1  C   UNL     1       7.501   4.657  17.997  0.00  0.00    +0.000 C 
ATOM      2  N   UNL     1       6.719   5.417  18.951  0.00  0.00    +0.000 N 
ATOM      3  C   UNL     1       5.411   4.975  19.111  0.00  0.00    +0.000 A 
ATOM      4  N   UNL     1       5.141   3.688  18.994  0.00  0.00    +0.000 NA
ATOM      5  C   UNL     1       3.866   3.402  19.163  0.00  0.00    +0.000 A 
ATOM      6 CL   UNL     1       3.436   1.757  18.994  0.00  0.00    +0.000 Cl
ATOM      7  N   UNL     1       2.866   4.239  19.408  0.00  0.00    +0.000 NA
ATOM      8  C   UNL     1       3.242   5.500  19.512  0.00  0.00    +0.000 A 
ATOM      9  N   UNL     1       2.227   6.384  19.822  0.00  0.00    +0.000 N 
ATOM     10  N   UNL     1       4.499   5.913  19.357  0.00  0.00    +0.000 NA
ATOM     11  H   UNL     1       6.685   6.416  18.791  0.00  0.00    +0.000 HD
ATOM     12  H   UNL     1       1.334   5.923  19.695  0.00  0.00    +0.000 HD
ENDROOT
BRANCH   9  13
ATOM     13  C   UNL     1       2.302   7.773  19.404  0.00  0.00    +0.000 C 
ATOM     14  C   UNL     1       1.925   7.921  17.925  0.00  0.00    +0.000 C 
BRANCH  13  15
ATOM     15  C   UNL     1       1.384   8.618  20.284  0.00  0.00    +0.000 A 
ATOM     16  C   UNL     1       0.586   9.610  19.690  0.00  0.00    +0.000 A 
ATOM     17  C   UNL     1      -0.276  10.398  20.456  0.00  0.00    +0.000 A 
ATOM     18  C   UNL     1      -0.355  10.210  21.832  0.00  0.00    +0.000 A 
ATOM     19  C   UNL     1       0.427   9.232  22.444  0.00  0.00    +0.000 A 
ATOM     20  C   UNL     1       1.290   8.441  21.676  0.00  0.00    +0.000 A 
ENDBRANCH  13  15
ENDBRANCH   9  13
TORSDOF 2
ENDMDL
MODEL 9
REMARK VINA RESULT:      -6.5      0.882      1.439
REMARK  Name = 
REMARK  4 active torsions:
REMARK  status: ('A' for Active; 'I' for Inactive)
REMARK    1  A    between atoms: C_1  and  N_2
REMARK    2  A    between atoms: N_9  and  C_10
REMARK    3  A    between atoms: C_10  and  C_11
REMARK    4  A    between atoms: C_10  and  C_12
REMARK                            x       y       z     vdW  Elec       q    Type
REMARK                         _______ _______ _______ _____ _____    ______ ____
ROOT
ATOM      1  C   UNL     1       2.053   8.838  18.745  0.00  0.00    +0.000 C 
ATOM      2  N   UNL     1       2.555   8.082  17.615  0.00  0.00    +0.000 N 
ATOM      3  C   UNL     1       2.828   6.746  17.887  0.00  0.00    +0.000 A 
ATOM      4  N   UNL     1       2.088   6.098  18.768  0.00  0.00    +0.000 NA
ATOM      5  C   UNL     1       2.451   4.844  18.936  0.00  0.00    +0.000 A 
ATOM      6 CL   UNL     1       1.558   3.951  20.088  0.00  0.00    +0.000 Cl
ATOM      7  N   UNL     1       3.452   4.196  18.352  0.00  0.00    +0.000 NA
ATOM      8  C   UNL     1       4.124   4.930  17.484  0.00  0.00    +0.000 A 
ATOM      9  N   UNL     1       5.135   4.262  16.822  0.00  0.00    +0.000 N 
ATOM     10  N   UNL     1       3.855   6.210  17.232  0.00  0.00    +0.000 NA
ATOM     11  H   UNL     1       3.370   8.471  17.157  0.00  0.00    +0.000 HD
ATOM     12  H   UNL     1       5.316   3.383  17.290  0.00  0.00    +0.000 HD
ENDROOT
BRANCH   9  13
ATOM     13  C   UNL     1       6.296   4.982  16.328  0.00  0.00    +0.000 C 
ATOM     14  C   UNL     1       7.549   4.619  17.135  0.00  0.00    +0.000 C 
BRANCH  13  15
ATOM     15  C   UNL     1       6.497   4.666  14.848  0.00  0.00    +0.000 A 
ATOM     16  C   UNL     1       7.520   5.318  14.140  0.00  0.00    +0.000 A 
ATOM     17  C   UNL     1       7.746   5.051  12.787  0.00  0.00    +0.000 A 
ATOM     18  C   UNL     1       6.950   4.128  12.116  0.00  0.00    +0.000 A 
ATOM     19  C   UNL     1       5.928   3.470  12.798  0.00  0.00    +0.000 A 
ATOM     20  C   UNL     1       5.703   3.736  14.154  0.00  0.00    +0.000 A 
ENDBRANCH  13  15
ENDBRANCH   9  13
TORSDOF 2
ENDMDL
