MODEL 1
REMARK VINA RESULT:      -6.8      0.000      0.000
REMARK  Name = 
REMARK  8 active torsions:
REMARK  status: ('A' for Active; 'I' for Inactive)
REMARK    1  A    between atoms: C_1  and  C_2
REMARK    2  A    between atoms: C_2  and  C_3
REMARK    3  A    between atoms: C_3  and  N_4
REMARK    4  A    between atoms: N_4  and  C_5
REMARK    5  A    between atoms: C_5  and  C_6
REMARK    6  A    between atoms: C_6  and  C_7
REMARK    7  A    between atoms: C_8  and  C_10
REMARK    8  A    between atoms: C_10  and  C_11
REMARK                            x       y       z     vdW  Elec       q    Type
REMARK                         _______ _______ _______ _____ _____    ______ ____
ROOT
ATOM      1  C   UNL     1      -3.370  12.215  19.532  0.00  0.00    +0.000 A 
ATOM      2  C   UNL     1      -4.761  12.394  19.455  0.00  0.00    +0.000 A 
ATOM      3  N   UNL     1      -5.163  11.921  18.225  0.00  0.00    +0.000 N 
ATOM      4  C   UNL     1      -4.074  11.549  17.479  0.00  0.00    +0.000 A 
ATOM      5  C   UNL     1      -3.978  11.152  16.142  0.00  0.00    +0.000 A 
ATOM      6  C   UNL     1      -3.106  10.097  15.903  0.00  0.00    +0.000 A 
ATOM      7  C   UNL     1      -2.150   9.747  16.851  0.00  0.00    +0.000 A 
ATOM      8  C   UNL     1      -2.013  10.500  18.036  0.00  0.00    +0.000 A 
ATOM      9  C   UNL     1      -3.040  11.386  18.392  0.00  0.00    +0.000 A 
ATOM     10  C   UNL     1      -6.508  11.405  17.971  0.00  0.00    +0.000 C 
ATOM     11  C   UNL     1      -6.843  10.260  18.931  0.00  0.00    +0.000 C 
ATOM     12  C   UNL     1      -7.083  10.649  20.396  0.00  0.00    +0.000 C 
ATOM     13  C   UNL     1      -6.859  12.083  20.846  0.00  0.00    +0.000 A 
ATOM     14  C   UNL     1      -7.775  12.630  21.743  0.00  0.00    +0.000 A 
ATOM     15  C   UNL     1      -7.623  13.929  22.247  0.00  0.00    +0.000 A 
ATOM     16  C   UNL     1      -6.536  14.687  21.856  0.00  0.00    +0.000 A 
ATOM     17  C   UNL     1      -5.613  14.160  20.951  0.00  0.00    +0.000 A 
ATOM     18  C   UNL     1      -5.755  12.858  20.445  0.00  0.00    +0.000 A 
ENDROOT
BRANCH   1  19
ATOM     19  C   UNL     1      -2.463  12.570  20.672  0.00  0.00    +0.000 C 
BRANCH  19  21
ATOM     20  N   UNL     1       0.110  12.491  20.804  0.00  0.00    +0.000 N 
ATOM     21  C   UNL     1      -1.058  13.089  20.283  0.00  0.00    +0.000 C 
ATOM     22  O   UNL     1      -0.978  14.098  19.578  0.00  0.00    +0.000 OA
BRANCH  20  23
ATOM     23  C   UNL     1       1.403  13.105  20.461  0.00  0.00    +0.000 C 
BRANCH  23  25
ATOM     24  C   UNL     1       2.490  13.824  18.250  0.00  0.00    +0.000 C 
ATOM     25  C   UNL     1       2.087  12.679  19.153  0.00  0.00    +0.000 C 
ENDBRANCH  23  25
ENDBRANCH  20  23
BRANCH  20  26
ATOM     26  C   UNL     1       0.051  11.235  21.566  0.00  0.00    +0.000 C 
BRANCH  26  27
ATOM     27  C   UNL     1       0.251   9.904  20.832  0.00  0.00    +0.000 C 
ATOM     28  C   UNL     1      -0.295   8.679  21.550  0.00  0.00    +0.000 C 
ENDBRANCH  26  27
ENDBRANCH  20  26
ENDBRANCH  19  21
ENDBRANCH   1  19
TORSDOF 6
ENDMDL
MODEL 2
REMARK VINA RESULT:      -6.8      1.195      2.340
REMARK  Name = 
REMARK  8 active torsions:
REMARK  status: ('A' for Active; 'I' for Inactive)
REMARK    1  A    between atoms: C_1  and  C_2
REMARK    2  A    between atoms: C_2  and  C_3
REMARK    3  A    between atoms: C_3  and  N_4
REMARK    4  A    between atoms: N_4  and  C_5
REMARK    5  A    between atoms: C_5  and  C_6
REMARK    6  A    between atoms: C_6  and  C_7
REMARK    7  A    between atoms: C_8  and  C_10
REMARK    8  A    between atoms: C_10  and  C_11
REMARK                            x       y       z     vdW  Elec       q    Type
REMARK                         _______ _______ _______ _____ _____    ______ ____
ROOT
ATOM      1  C   UNL     1      -3.512  12.550  19.386  0.00  0.00    +0.000 A 
ATOM      2  C   UNL     1      -4.913  12.614  19.310  0.00  0.00    +0.000 A 
ATOM      3  N   UNL     1      -5.288  11.938  18.169  0.00  0.00    +0.000 N 
ATOM      4  C   UNL     1      -4.180  11.542  17.465  0.00  0.00    +0.000 A 
ATOM      5  C   UNL     1      -4.065  10.962  16.197  0.00  0.00    +0.000 A 
ATOM      6  C   UNL     1      -3.118   9.950  16.097  0.00  0.00    +0.000 A 
ATOM      7  C   UNL     1      -2.131   9.814  17.068  0.00  0.00    +0.000 A 
ATOM      8  C   UNL     1      -2.042  10.740  18.128  0.00  0.00    +0.000 A 
ATOM      9  C   UNL     1      -3.129  11.591  18.371  0.00  0.00    +0.000 A 
ATOM     10  C   UNL     1      -6.592  11.292  18.019  0.00  0.00    +0.000 C 
ATOM     11  C   UNL     1      -6.832  10.278  19.141  0.00  0.00    +0.000 C 
ATOM     12  C   UNL     1      -7.088  10.858  20.539  0.00  0.00    +0.000 C 
ATOM     13  C   UNL     1      -6.969  12.355  20.771  0.00  0.00    +0.000 A 
ATOM     14  C   UNL     1      -7.917  12.958  21.597  0.00  0.00    +0.000 A 
ATOM     15  C   UNL     1      -7.859  14.324  21.904  0.00  0.00    +0.000 A 
ATOM     16  C   UNL     1      -6.836  15.095  21.387  0.00  0.00    +0.000 A 
ATOM     17  C   UNL     1      -5.884  14.511  20.551  0.00  0.00    +0.000 A 
ATOM     18  C   UNL     1      -5.931  13.142  20.242  0.00  0.00    +0.000 A 
ENDROOT
BRANCH   1  19
ATOM     19  C   UNL     1      -2.625  13.134  20.444  0.00  0.00    +0.000 C 
BRANCH  19  21
ATOM     20  N   UNL     1      -1.124  11.798  22.060  0.00  0.00    +0.000 N 
ATOM     21  C   UNL     1      -2.410  12.261  21.704  0.00  0.00    +0.000 C 
ATOM     22  O   UNL     1      -3.400  11.899  22.345  0.00  0.00    +0.000 OA
BRANCH  20  23
ATOM     23  C   UNL     1      -1.020  10.894  23.217  0.00  0.00    +0.000 C 
BRANCH  23  25
ATOM     24  C   UNL     1      -0.523   8.662  22.051  0.00  0.00    +0.000 C 
ATOM     25  C   UNL     1      -0.102   9.668  23.101  0.00  0.00    +0.000 C 
ENDBRANCH  23  25
ENDBRANCH  20  23
BRANCH  20  26
ATOM     26  C   UNL     1       0.082  12.288  21.375  0.00  0.00    +0.000 C 
BRANCH  26  27
ATOM     27  C   UNL     1       0.632  11.507  20.177  0.00  0.00    +0.000 C 
ATOM     28  C   UNL     1       1.132  12.360  19.021  0.00  0.00    +0.000 C 
ENDBRANCH  26  27
ENDBRANCH  20  26
ENDBRANCH  19  21
ENDBRANCH   1  19
TORSDOF 6
ENDMDL
MODEL 3
REMARK VINA RESULT:      -6.7      7.375     10.189
REMARK  Name = 
REMARK  8 active torsions:
REMARK  status: ('A' for Active; 'I' for Inactive)
REMARK    1  A    between atoms: C_1  and  C_2
REMARK    2  A    between atoms: C_2  and  C_3
REMARK    3  A    between atoms: C_3  and  N_4
REMARK    4  A    between atoms: N_4  and  C_5
REMARK    5  A    between atoms: C_5  and  C_6
REMARK    6  A    between atoms: C_6  and  C_7
REMARK    7  A    between atoms: C_8  and  C_10
REMARK    8  A    between atoms: C_10  and  C_11
REMARK                            x       y       z     vdW  Elec       q    Type
REMARK                         _______ _______ _______ _____ _____    ______ ____
ROOT
ATOM      1  C   UNL     1       3.715   5.752  17.685  0.00  0.00    +0.000 A 
ATOM      2  C   UNL     1       2.533   6.204  18.294  0.00  0.00    +0.000 A 
ATOM      3  N   UNL     1       1.787   5.088  18.608  0.00  0.00    +0.000 N 
ATOM      4  C   UNL     1       2.397   3.958  18.128  0.00  0.00    +0.000 A 
ATOM      5  C   UNL     1       1.952   2.633  18.080  0.00  0.00    +0.000 A 
ATOM      6  C   UNL     1       2.914   1.678  18.385  0.00  0.00    +0.000 A 
ATOM      7  C   UNL     1       4.265   2.008  18.356  0.00  0.00    +0.000 A 
ATOM      8  C   UNL     1       4.675   3.297  17.955  0.00  0.00    +0.000 A 
ATOM      9  C   UNL     1       3.718   4.320  17.898  0.00  0.00    +0.000 A 
ATOM     10  C   UNL     1       0.822   5.060  19.707  0.00  0.00    +0.000 C 
ATOM     11  C   UNL     1       1.491   5.438  21.031  0.00  0.00    +0.000 C 
ATOM     12  C   UNL     1       1.892   6.910  21.194  0.00  0.00    +0.000 C 
ATOM     13  C   UNL     1       1.735   7.872  20.029  0.00  0.00    +0.000 A 
ATOM     14  C   UNL     1       1.267   9.156  20.308  0.00  0.00    +0.000 A 
ATOM     15  C   UNL     1       1.134  10.123  19.303  0.00  0.00    +0.000 A 
ATOM     16  C   UNL     1       1.482   9.806  18.004  0.00  0.00    +0.000 A 
ATOM     17  C   UNL     1       1.943   8.525  17.703  0.00  0.00    +0.000 A 
ATOM     18  C   UNL     1       2.084   7.551  18.705  0.00  0.00    +0.000 A 
ENDROOT
BRANCH   1  19
ATOM     19  C   UNL     1       4.851   6.580  17.164  0.00  0.00    +0.000 C 
BRANCH  19  21
ATOM     20  N   UNL     1       6.659   5.349  15.800  0.00  0.00    +0.000 N 
ATOM     21  C   UNL     1       5.472   6.113  15.826  0.00  0.00    +0.000 C 
ATOM     22  O   UNL     1       4.960   6.501  14.773  0.00  0.00    +0.000 OA
BRANCH  20  23
ATOM     23  C   UNL     1       7.236   5.028  14.484  0.00  0.00    +0.000 C 
BRANCH  23  25
ATOM     24  C   UNL     1       6.934   3.974  12.163  0.00  0.00    +0.000 C 
ATOM     25  C   UNL     1       6.540   3.962  13.625  0.00  0.00    +0.000 C 
ENDBRANCH  23  25
ENDBRANCH  20  23
BRANCH  20  26
ATOM     26  C   UNL     1       7.238   4.793  17.033  0.00  0.00    +0.000 C 
BRANCH  26  27
ATOM     27  C   UNL     1       7.800   5.748  18.092  0.00  0.00    +0.000 C 
ATOM     28  C   UNL     1       7.312   5.500  19.512  0.00  0.00    +0.000 C 
ENDBRANCH  26  27
ENDBRANCH  20  26
ENDBRANCH  19  21
ENDBRANCH   1  19
TORSDOF 6
ENDMDL
MODEL 4
REMARK VINA RESULT:      -6.7      1.198      1.381
REMARK  Name = 
REMARK  8 active torsions:
REMARK  status: ('A' for Active; 'I' for Inactive)
REMARK    1  A    between atoms: C_1  and  C_2
REMARK    2  A    between atoms: C_2  and  C_3
REMARK    3  A    between atoms: C_3  and  N_4
REMARK    4  A    between atoms: N_4  and  C_5
REMARK    5  A    between atoms: C_5  and  C_6
REMARK    6  A    between atoms: C_6  and  C_7
REMARK    7  A    between atoms: C_8  and  C_10
REMARK    8  A    between atoms: C_10  and  C_11
REMARK                            x       y       z     vdW  Elec       q    Type
REMARK                         _______ _______ _______ _____ _____    ______ ____
ROOT
ATOM      1  C   UNL     1      -2.841  11.685  19.026  0.00  0.00    +0.000 A 
ATOM      2  C   UNL     1      -4.152  12.180  19.126  0.00  0.00    +0.000 A 
ATOM      3  N   UNL     1      -4.750  11.991  17.899  0.00  0.00    +0.000 N 
ATOM      4  C   UNL     1      -3.843  11.497  16.998  0.00  0.00    +0.000 A 
ATOM      5  C   UNL     1      -3.950  11.286  15.620  0.00  0.00    +0.000 A 
ATOM      6  C   UNL     1      -3.374  10.108  15.159  0.00  0.00    +0.000 A 
ATOM      7  C   UNL     1      -2.456   9.420  15.946  0.00  0.00    +0.000 A 
ATOM      8  C   UNL     1      -2.052   9.944  17.191  0.00  0.00    +0.000 A 
ATOM      9  C   UNL     1      -2.808  10.977  17.764  0.00  0.00    +0.000 A 
ATOM     10  C   UNL     1      -6.195  11.830  17.734  0.00  0.00    +0.000 C 
ATOM     11  C   UNL     1      -6.715  10.664  18.579  0.00  0.00    +0.000 C 
ATOM     12  C   UNL     1      -6.739  10.881  20.098  0.00  0.00    +0.000 C 
ATOM     13  C   UNL     1      -6.147  12.149  20.691  0.00  0.00    +0.000 A 
ATOM     14  C   UNL     1      -6.833  12.751  21.744  0.00  0.00    +0.000 A 
ATOM     15  C   UNL     1      -6.339  13.896  22.383  0.00  0.00    +0.000 A 
ATOM     16  C   UNL     1      -5.138  14.440  21.969  0.00  0.00    +0.000 A 
ATOM     17  C   UNL     1      -4.441  13.857  20.911  0.00  0.00    +0.000 A 
ATOM     18  C   UNL     1      -4.926  12.706  20.269  0.00  0.00    +0.000 A 
ENDROOT
BRANCH   1  19
ATOM     19  C   UNL     1      -1.789  11.660  20.093  0.00  0.00    +0.000 C 
BRANCH  19  21
ATOM     20  N   UNL     1       0.726  11.995  19.639  0.00  0.00    +0.000 N 
ATOM     21  C   UNL     1      -0.552  12.557  19.846  0.00  0.00    +0.000 C 
ATOM     22  O   UNL     1      -0.688  13.781  19.924  0.00  0.00    +0.000 OA
BRANCH  20  23
ATOM     23  C   UNL     1       1.866  12.918  19.507  0.00  0.00    +0.000 C 
BRANCH  23  25
ATOM     24  C   UNL     1       2.903  14.789  18.088  0.00  0.00    +0.000 C 
ATOM     25  C   UNL     1       2.224  13.435  18.106  0.00  0.00    +0.000 C 
ENDBRANCH  23  25
ENDBRANCH  20  23
BRANCH  20  26
ATOM     26  C   UNL     1       0.904  10.548  19.445  0.00  0.00    +0.000 C 
BRANCH  26  27
ATOM     27  C   UNL     1       1.512  10.038  18.134  0.00  0.00    +0.000 C 
ATOM     28  C   UNL     1       1.872   8.560  18.119  0.00  0.00    +0.000 C 
ENDBRANCH  26  27
ENDBRANCH  20  26
ENDBRANCH  19  21
ENDBRANCH   1  19
TORSDOF 6
ENDMDL
MODEL 5
REMARK VINA RESULT:      -6.6      1.156      4.958
REMARK  Name = 
REMARK  8 active torsions:
REMARK  status: ('A' for Active; 'I' for Inactive)
REMARK    1  A    between atoms: C_1  and  C_2
REMARK    2  A    between atoms: C_2  and  C_3
REMARK    3  A    between atoms: C_3  and  N_4
REMARK    4  A    between atoms: N_4  and  C_5
REMARK    5  A    between atoms: C_5  and  C_6
REMARK    6  A    between atoms: C_6  and  C_7
REMARK    7  A    between atoms: C_8  and  C_10
REMARK    8  A    between atoms: C_10  and  C_11
REMARK                            x       y       z     vdW  Elec       q    Type
REMARK                         _______ _______ _______ _____ _____    ______ ____
ROOT
ATOM      1  C   UNL     1      -4.029  12.632  20.395  0.00  0.00    +0.000 A 
ATOM      2  C   UNL     1      -4.508  11.802  19.368  0.00  0.00    +0.000 A 
ATOM      3  N   UNL     1      -5.832  11.540  19.645  0.00  0.00    +0.000 N 
ATOM      4  C   UNL     1      -6.181  12.080  20.856  0.00  0.00    +0.000 A 
ATOM      5  C   UNL     1      -7.354  11.953  21.606  0.00  0.00    +0.000 A 
ATOM      6  C   UNL     1      -7.794  13.123  22.213  0.00  0.00    +0.000 A 
ATOM      7  C   UNL     1      -6.930  14.204  22.364  0.00  0.00    +0.000 A 
ATOM      8  C   UNL     1      -5.582  14.100  21.960  0.00  0.00    +0.000 A 
ATOM      9  C   UNL     1      -5.210  13.034  21.129  0.00  0.00    +0.000 A 
ATOM     10  C   UNL     1      -6.815  11.225  18.608  0.00  0.00    +0.000 C 
ATOM     11  C   UNL     1      -6.874  12.335  17.556  0.00  0.00    +0.000 C 
ATOM     12  C   UNL     1      -5.665  12.447  16.617  0.00  0.00    +0.000 C 
ATOM     13  C   UNL     1      -4.445  11.569  16.844  0.00  0.00    +0.000 A 
ATOM     14  C   UNL     1      -3.821  11.026  15.722  0.00  0.00    +0.000 A 
ATOM     15  C   UNL     1      -2.665  10.242  15.831  0.00  0.00    +0.000 A 
ATOM     16  C   UNL     1      -2.121  10.006  17.079  0.00  0.00    +0.000 A 
ATOM     17  C   UNL     1      -2.736  10.533  18.215  0.00  0.00    +0.000 A 
ATOM     18  C   UNL     1      -3.892  11.323  18.113  0.00  0.00    +0.000 A 
ENDROOT
BRANCH   1  19
ATOM     19  C   UNL     1      -2.647  13.194  20.547  0.00  0.00    +0.000 C 
BRANCH  19  21
ATOM     20  N   UNL     1      -0.391  11.949  20.587  0.00  0.00    +0.000 N 
ATOM     21  C   UNL     1      -1.609  12.268  21.224  0.00  0.00    +0.000 C 
ATOM     22  O   UNL     1      -1.908  11.735  22.296  0.00  0.00    +0.000 OA
BRANCH  20  23
ATOM     23  C   UNL     1       0.498  10.984  21.256  0.00  0.00    +0.000 C 
BRANCH  23  25
ATOM     24  C   UNL     1      -0.415   8.636  21.751  0.00  0.00    +0.000 C 
ATOM     25  C   UNL     1       0.417   9.509  20.835  0.00  0.00    +0.000 C 
ENDBRANCH  23  25
ENDBRANCH  20  23
BRANCH  20  26
ATOM     26  C   UNL     1       0.034  12.638  19.359  0.00  0.00    +0.000 C 
BRANCH  26  27
ATOM     27  C   UNL     1       1.235  12.098  18.575  0.00  0.00    +0.000 C 
ATOM     28  C   UNL     1       2.435  13.031  18.504  0.00  0.00    +0.000 C 
ENDBRANCH  26  27
ENDBRANCH  20  26
ENDBRANCH  19  21
ENDBRANCH   1  19
TORSDOF 6
ENDMDL
MODEL 6
REMARK VINA RESULT:      -6.6      1.912      2.809
REMARK  Name = 
REMARK  8 active torsions:
REMARK  status: ('A' for Active; 'I' for Inactive)
REMARK    1  A    between atoms: C_1  and  C_2
REMARK    2  A    between atoms: C_2  and  C_3
REMARK    3  A    between atoms: C_3  and  N_4
REMARK    4  A    between atoms: N_4  and  C_5
REMARK    5  A    between atoms: C_5  and  C_6
REMARK    6  A    between atoms: C_6  and  C_7
REMARK    7  A    between atoms: C_8  and  C_10
REMARK    8  A    between atoms: C_10  and  C_11
REMARK                            x       y       z     vdW  Elec       q    Type
REMARK                         _______ _______ _______ _____ _____    ______ ____
ROOT
ATOM      1  C   UNL     1      -3.162  12.120  19.590  0.00  0.00    +0.000 A 
ATOM      2  C   UNL     1      -4.537  12.394  19.494  0.00  0.00    +0.000 A 
ATOM      3  N   UNL     1      -4.940  12.005  18.235  0.00  0.00    +0.000 N 
ATOM      4  C   UNL     1      -3.861  11.598  17.494  0.00  0.00    +0.000 A 
ATOM      5  C   UNL     1      -3.760  11.258  16.141  0.00  0.00    +0.000 A 
ATOM      6  C   UNL     1      -2.953  10.160  15.870  0.00  0.00    +0.000 A 
ATOM      7  C   UNL     1      -2.043   9.705  16.818  0.00  0.00    +0.000 A 
ATOM      8  C   UNL     1      -1.886  10.391  18.041  0.00  0.00    +0.000 A 
ATOM      9  C   UNL     1      -2.861  11.326  18.418  0.00  0.00    +0.000 A 
ATOM     10  C   UNL     1      -6.309  11.590  17.931  0.00  0.00    +0.000 C 
ATOM     11  C   UNL     1      -6.740  10.427  18.828  0.00  0.00    +0.000 C 
ATOM     12  C   UNL     1      -6.987  10.762  20.305  0.00  0.00    +0.000 C 
ATOM     13  C   UNL     1      -6.681  12.156  20.827  0.00  0.00    +0.000 A 
ATOM     14  C   UNL     1      -7.580  12.720  21.731  0.00  0.00    +0.000 A 
ATOM     15  C   UNL     1      -7.356  13.981  22.299  0.00  0.00    +0.000 A 
ATOM     16  C   UNL     1      -6.214  14.684  21.966  0.00  0.00    +0.000 A 
ATOM     17  C   UNL     1      -5.307  14.140  21.056  0.00  0.00    +0.000 A 
ATOM     18  C   UNL     1      -5.521  12.875  20.486  0.00  0.00    +0.000 A 
ENDROOT
BRANCH   1  19
ATOM     19  C   UNL     1      -2.260  12.362  20.763  0.00  0.00    +0.000 C 
BRANCH  19  21
ATOM     20  N   UNL     1      -1.616  14.427  22.164  0.00  0.00    +0.000 N 
ATOM     21  C   UNL     1      -1.702  13.798  20.903  0.00  0.00    +0.000 C 
ATOM     22  O   UNL     1      -1.418  14.422  19.877  0.00  0.00    +0.000 OA
BRANCH  20  23
ATOM     23  C   UNL     1      -1.165  15.828  22.199  0.00  0.00    +0.000 C 
BRANCH  23  25
ATOM     24  C   UNL     1      -3.383  17.044  22.638  0.00  0.00    +0.000 C 
ATOM     25  C   UNL     1      -2.153  16.921  21.764  0.00  0.00    +0.000 C 
ENDBRANCH  23  25
ENDBRANCH  20  23
BRANCH  20  26
ATOM     26  C   UNL     1      -1.855  13.681  23.409  0.00  0.00    +0.000 C 
BRANCH  26  27
ATOM     27  C   UNL     1      -3.226  13.779  24.088  0.00  0.00    +0.000 C 
ATOM     28  C   UNL     1      -4.002  12.472  24.171  0.00  0.00    +0.000 C 
ENDBRANCH  26  27
ENDBRANCH  20  26
ENDBRANCH  19  21
ENDBRANCH   1  19
TORSDOF 6
ENDMDL
MODEL 7
REMARK VINA RESULT:      -6.5      6.079     10.709
REMARK  Name = 
REMARK  8 active torsions:
REMARK  status: ('A' for Active; 'I' for Inactive)
REMARK    1  A    between atoms: C_1  and  C_2
REMARK    2  A    between atoms: C_2  and  C_3
REMARK    3  A    between atoms: C_3  and  N_4
REMARK    4  A    between atoms: N_4  and  C_5
REMARK    5  A    between atoms: C_5  and  C_6
REMARK    6  A    between atoms: C_6  and  C_7
REMARK    7  A    between atoms: C_8  and  C_10
REMARK    8  A    between atoms: C_10  and  C_11
REMARK                            x       y       z     vdW  Elec       q    Type
REMARK                         _______ _______ _______ _____ _____    ______ ____
ROOT
ATOM      1  C   UNL     1       2.893   5.940  19.228  0.00  0.00    +0.000 A 
ATOM      2  C   UNL     1       4.091   5.328  18.825  0.00  0.00    +0.000 A 
ATOM      3  N   UNL     1       4.131   4.086  19.422  0.00  0.00    +0.000 N 
ATOM      4  C   UNL     1       3.064   3.931  20.269  0.00  0.00    +0.000 A 
ATOM      5  C   UNL     1       2.766   2.915  21.183  0.00  0.00    +0.000 A 
ATOM      6  C   UNL     1       1.430   2.535  21.224  0.00  0.00    +0.000 A 
ATOM      7  C   UNL     1       0.448   3.359  20.686  0.00  0.00    +0.000 A 
ATOM      8  C   UNL     1       0.790   4.618  20.150  0.00  0.00    +0.000 A 
ATOM      9  C   UNL     1       2.138   4.889  19.876  0.00  0.00    +0.000 A 
ATOM     10  C   UNL     1       4.860   2.953  18.854  0.00  0.00    +0.000 C 
ATOM     11  C   UNL     1       4.386   2.658  17.428  0.00  0.00    +0.000 C 
ATOM     12  C   UNL     1       4.789   3.676  16.353  0.00  0.00    +0.000 C 
ATOM     13  C   UNL     1       5.503   4.957  16.752  0.00  0.00    +0.000 A 
ATOM     14  C   UNL     1       6.543   5.399  15.934  0.00  0.00    +0.000 A 
ATOM     15  C   UNL     1       7.228   6.591  16.199  0.00  0.00    +0.000 A 
ATOM     16  C   UNL     1       6.863   7.358  17.289  0.00  0.00    +0.000 A 
ATOM     17  C   UNL     1       5.832   6.928  18.124  0.00  0.00    +0.000 A 
ATOM     18  C   UNL     1       5.136   5.736  17.864  0.00  0.00    +0.000 A 
ENDROOT
BRANCH   1  19
ATOM     19  C   UNL     1       2.386   7.299  18.846  0.00  0.00    +0.000 C 
BRANCH  19  21
ATOM     20  N   UNL     1       1.100   9.343  19.746  0.00  0.00    +0.000 N 
ATOM     21  C   UNL     1       1.837   8.167  20.003  0.00  0.00    +0.000 C 
ATOM     22  O   UNL     1       2.135   7.860  21.161  0.00  0.00    +0.000 OA
BRANCH  20  23
ATOM     23  C   UNL     1       0.696  10.163  20.901  0.00  0.00    +0.000 C 
BRANCH  23  25
ATOM     24  C   UNL     1      -0.174   9.536  23.233  0.00  0.00    +0.000 C 
ATOM     25  C   UNL     1      -0.484   9.680  21.758  0.00  0.00    +0.000 C 
ENDBRANCH  23  25
ENDBRANCH  20  23
BRANCH  20  26
ATOM     26  C   UNL     1       0.649   9.682  18.388  0.00  0.00    +0.000 C 
BRANCH  26  27
ATOM     27  C   UNL     1      -0.655  10.467  18.207  0.00  0.00    +0.000 C 
ATOM     28  C   UNL     1      -1.645   9.860  17.224  0.00  0.00    +0.000 C 
ENDBRANCH  26  27
ENDBRANCH  20  26
ENDBRANCH  19  21
ENDBRANCH   1  19
TORSDOF 6
ENDMDL
MODEL 8
REMARK VINA RESULT:      -6.5      0.931      1.223
REMARK  Name = 
REMARK  8 active torsions:
REMARK  status: ('A' for Active; 'I' for Inactive)
REMARK    1  A    between atoms: C_1  and  C_2
REMARK    2  A    between atoms: C_2  and  C_3
REMARK    3  A    between atoms: C_3  and  N_4
REMARK    4  A    between atoms: N_4  and  C_5
REMARK    5  A    between atoms: C_5  and  C_6
REMARK    6  A    between atoms: C_6  and  C_7
REMARK    7  A    between atoms: C_8  and  C_10
REMARK    8  A    between atoms: C_10  and  C_11
REMARK                            x       y       z     vdW  Elec       q    Type
REMARK                         _______ _______ _______ _____ _____    ______ ____
ROOT
ATOM      1  C   UNL     1      -3.060  11.911  19.062  0.00  0.00    +0.000 A 
ATOM      2  C   UNL     1      -4.418  12.256  19.159  0.00  0.00    +0.000 A 
ATOM      3  N   UNL     1      -5.003  11.935  17.952  0.00  0.00    +0.000 N 
ATOM      4  C   UNL     1      -4.054  11.502  17.063  0.00  0.00    +0.000 A 
ATOM      5  C   UNL     1      -4.150  11.209  15.699  0.00  0.00    +0.000 A 
ATOM      6  C   UNL     1      -3.446  10.083  15.289  0.00  0.00    +0.000 A 
ATOM      7  C   UNL     1      -2.445   9.548  16.095  0.00  0.00    +0.000 A 
ATOM      8  C   UNL     1      -2.092  10.180  17.306  0.00  0.00    +0.000 A 
ATOM      9  C   UNL     1      -2.957  11.147  17.837  0.00  0.00    +0.000 A 
ATOM     10  C   UNL     1      -6.421  11.600  17.820  0.00  0.00    +0.000 C 
ATOM     11  C   UNL     1      -6.792  10.426  18.731  0.00  0.00    +0.000 C 
ATOM     12  C   UNL     1      -6.826  10.718  20.237  0.00  0.00    +0.000 C 
ATOM     13  C   UNL     1      -6.379  12.075  20.756  0.00  0.00    +0.000 A 
ATOM     14  C   UNL     1      -7.120  12.648  21.788  0.00  0.00    +0.000 A 
ATOM     15  C   UNL     1      -6.756  13.875  22.360  0.00  0.00    +0.000 A 
ATOM     16  C   UNL     1      -5.631  14.532  21.900  0.00  0.00    +0.000 A 
ATOM     17  C   UNL     1      -4.882  13.979  20.861  0.00  0.00    +0.000 A 
ATOM     18  C   UNL     1      -5.237  12.747  20.286  0.00  0.00    +0.000 A 
ENDROOT
BRANCH   1  19
ATOM     19  C   UNL     1      -2.000  12.064  20.112  0.00  0.00    +0.000 C 
BRANCH  19  21
ATOM     20  N   UNL     1       0.572  12.200  20.034  0.00  0.00    +0.000 N 
ATOM     21  C   UNL     1      -0.680  12.726  19.651  0.00  0.00    +0.000 C 
ATOM     22  O   UNL     1      -0.743  13.782  19.016  0.00  0.00    +0.000 OA
BRANCH  20  23
ATOM     23  C   UNL     1       1.778  12.945  19.633  0.00  0.00    +0.000 C 
BRANCH  23  25
ATOM     24  C   UNL     1       1.791  14.636  21.565  0.00  0.00    +0.000 C 
ATOM     25  C   UNL     1       2.588  13.659  20.726  0.00  0.00    +0.000 C 
ENDBRANCH  23  25
ENDBRANCH  20  23
BRANCH  20  26
ATOM     26  C   UNL     1       0.681  10.897  20.706  0.00  0.00    +0.000 C 
BRANCH  26  27
ATOM     27  C   UNL     1       0.691   9.618  19.861  0.00  0.00    +0.000 C 
ATOM     28  C   UNL     1       1.215   9.782  18.442  0.00  0.00    +0.000 C 
ENDBRANCH  26  27
ENDBRANCH  20  26
ENDBRANCH  19  21
ENDBRANCH   1  19
TORSDOF 6
ENDMDL
MODEL 9
REMARK VINA RESULT:      -6.5      2.211      5.959
REMARK  Name = 
REMARK  8 active torsions:
REMARK  status: ('A' for Active; 'I' for Inactive)
REMARK    1  A    between atoms: C_1  and  C_2
REMARK    2  A    between atoms: C_2  and  C_3
REMARK    3  A    between atoms: C_3  and  N_4
REMARK    4  A    between atoms: N_4  and  C_5
REMARK    5  A    between atoms: C_5  and  C_6
REMARK    6  A    between atoms: C_6  and  C_7
REMARK    7  A    between atoms: C_8  and  C_10
REMARK    8  A    between atoms: C_10  and  C_11
REMARK                            x       y       z     vdW  Elec       q    Type
REMARK                         _______ _______ _______ _____ _____    ______ ____
ROOT
ATOM      1  C   UNL     1      -4.207  12.252  19.045  0.00  0.00    +0.000 A 
ATOM      2  C   UNL     1      -2.970  12.335  19.705  0.00  0.00    +0.000 A 
ATOM      3  N   UNL     1      -2.099  11.503  19.037  0.00  0.00    +0.000 N 
ATOM      4  C   UNL     1      -2.758  10.817  18.050  0.00  0.00    +0.000 A 
ATOM      5  C   UNL     1      -2.328   9.775  17.221  0.00  0.00    +0.000 A 
ATOM      6  C   UNL     1      -2.748   9.864  15.900  0.00  0.00    +0.000 A 
ATOM      7  C   UNL     1      -3.804  10.701  15.553  0.00  0.00    +0.000 A 
ATOM      8  C   UNL     1      -4.501  11.419  16.548  0.00  0.00    +0.000 A 
ATOM      9  C   UNL     1      -3.928  11.530  17.822  0.00  0.00    +0.000 A 
ATOM     10  C   UNL     1      -0.651  11.715  19.020  0.00  0.00    +0.000 C 
ATOM     11  C   UNL     1      -0.309  13.108  18.486  0.00  0.00    +0.000 C 
ATOM     12  C   UNL     1      -0.644  14.290  19.406  0.00  0.00    +0.000 C 
ATOM     13  C   UNL     1      -1.393  14.050  20.706  0.00  0.00    +0.000 A 
ATOM     14  C   UNL     1      -0.987  14.770  21.829  0.00  0.00    +0.000 A 
ATOM     15  C   UNL     1      -1.647  14.647  23.058  0.00  0.00    +0.000 A 
ATOM     16  C   UNL     1      -2.735  13.800  23.164  0.00  0.00    +0.000 A 
ATOM     17  C   UNL     1      -3.151  13.065  22.054  0.00  0.00    +0.000 A 
ATOM     18  C   UNL     1      -2.497  13.186  20.817  0.00  0.00    +0.000 A 
ENDROOT
BRANCH   1  19
ATOM     19  C   UNL     1      -5.478  12.970  19.389  0.00  0.00    +0.000 C 
BRANCH  19  21
ATOM     20  N   UNL     1      -6.958  13.160  21.490  0.00  0.00    +0.000 N 
ATOM     21  C   UNL     1      -6.321  12.348  20.527  0.00  0.00    +0.000 C 
ATOM     22  O   UNL     1      -6.351  11.119  20.633  0.00  0.00    +0.000 OA
BRANCH  20  23
ATOM     23  C   UNL     1      -7.660  12.487  22.596  0.00  0.00    +0.000 C 
BRANCH  23  25
ATOM     24  C   UNL     1      -5.844  12.481  24.410  0.00  0.00    +0.000 C 
ATOM     25  C   UNL     1      -7.265  12.847  24.035  0.00  0.00    +0.000 C 
ENDBRANCH  23  25
ENDBRANCH  20  23
BRANCH  20  26
ATOM     26  C   UNL     1      -7.021  14.621  21.338  0.00  0.00    +0.000 C 
BRANCH  26  27
ATOM     27  C   UNL     1      -5.808  15.468  21.739  0.00  0.00    +0.000 C 
ATOM     28  C   UNL     1      -5.894  16.113  23.114  0.00  0.00    +0.000 C 
ENDBRANCH  26  27
ENDBRANCH  20  26
ENDBRANCH  19  21
ENDBRANCH   1  19
TORSDOF 6
ENDMDL
