MODEL 1
REMARK VINA RESULT:      -7.4      0.000      0.000
REMARK  Name = 
REMARK  8 active torsions:
REMARK  status: ('A' for Active; 'I' for Inactive)
REMARK    1  A    between atoms: C_1  and  C_2
REMARK    2  A    between atoms: C_2  and  N_3
REMARK    3  A    between atoms: C_2  and  C_7
REMARK    4  A    between atoms: C_7  and  O_9
REMARK    5  A    between atoms: O_9  and  C_10
REMARK    6  A    between atoms: C_10  and  C_11
REMARK    7  A    between atoms: N_13  and  C_14
REMARK    8  A    between atoms: C_18  and  C_19
REMARK                            x       y       z     vdW  Elec       q    Type
REMARK                         _______ _______ _______ _____ _____    ______ ____
ROOT
ATOM      1  C   UNL     1       7.509   4.726  17.544  0.00  0.00    +0.000 C 
ENDROOT
BRANCH   1   2
ATOM      2  C   UNL     1       6.450   5.048  18.597  0.00  0.00    +0.000 C 
ATOM      3  O   UNL     1       6.789   5.438  19.712  0.00  0.00    +0.000 OA
ATOM      4  N   UNL     1       5.144   4.851  18.171  0.00  0.00    +0.000 N 
ATOM      5  H   UNL     1       5.009   4.431  17.258  0.00  0.00    +0.000 HD
BRANCH   4   6
ATOM      6  C   UNL     1       3.980   5.095  18.934  0.00  0.00    +0.000 A 
ATOM      7  C   UNL     1       3.300   6.316  18.923  0.00  0.00    +0.000 A 
ATOM      8  C   UNL     1       2.189   6.526  19.742  0.00  0.00    +0.000 A 
ATOM      9  C   UNL     1       1.745   5.514  20.588  0.00  0.00    +0.000 A 
ATOM     10  C   UNL     1       2.397   4.278  20.590  0.00  0.00    +0.000 A 
ATOM     11  C   UNL     1       3.499   4.062  19.748  0.00  0.00    +0.000 A 
BRANCH  10  12
ATOM     12  C   UNL     1       1.953   3.242  21.476  0.00  0.00    +0.000 C 
ATOM     13  N   UNL     1       1.597   2.412  22.203  0.00  0.00    +0.000 NA
ENDBRANCH  10  12
ENDBRANCH   4   6
ENDBRANCH   1   2
BRANCH   1  14
ATOM     14  O   UNL     1       6.891   4.119  16.407  0.00  0.00    +0.000 OA
BRANCH  14  15
ATOM     15  C   UNL     1       6.985   4.839  15.257  0.00  0.00    +0.000 C 
ATOM     16  O   UNL     1       7.807   5.729  15.066  0.00  0.00    +0.000 OA
BRANCH  15  18
ATOM     17  C   UNL     1       4.602   4.092  15.054  0.00  0.00    +0.000 C 
ATOM     18  C   UNL     1       5.866   4.455  14.283  0.00  0.00    +0.000 C 
BRANCH  18  19
ATOM     19  N   UNL     1       6.291   3.319  13.473  0.00  0.00    +0.000 N 
ATOM     20  C   UNL     1       5.671   3.027  12.301  0.00  0.00    +0.000 C 
ATOM     21  N   UNL     1       6.226   1.971  11.656  0.00  0.00    +0.000 N 
ATOM     22  O   UNL     1       4.685   3.593  11.859  0.00  0.00    +0.000 OA
ATOM     23  H   UNL     1       7.192   2.903  13.659  0.00  0.00    +0.000 HD
ATOM     24  H   UNL     1       7.220   1.821  11.720  0.00  0.00    +0.000 HD
ATOM     25  H   UNL     1       5.814   1.786  10.752  0.00  0.00    +0.000 HD
ENDBRANCH  18  19
ENDBRANCH  15  18
ENDBRANCH  14  15
ENDBRANCH   1  14
TORSDOF 7
ENDMDL
MODEL 2
REMARK VINA RESULT:      -7.0      5.336      7.350
REMARK  Name = 
REMARK  8 active torsions:
REMARK  status: ('A' for Active; 'I' for Inactive)
REMARK    1  A    between atoms: C_1  and  C_2
REMARK    2  A    between atoms: C_2  and  N_3
REMARK    3  A    between atoms: C_2  and  C_7
REMARK    4  A    between atoms: C_7  and  O_9
REMARK    5  A    between atoms: O_9  and  C_10
REMARK    6  A    between atoms: C_10  and  C_11
REMARK    7  A    between atoms: N_13  and  C_14
REMARK    8  A    between atoms: C_18  and  C_19
REMARK                            x       y       z     vdW  Elec       q    Type
REMARK                         _______ _______ _______ _____ _____    ______ ____
ROOT
ATOM      1  C   UNL     1       8.296   9.243  17.934  0.00  0.00    +0.000 C 
ENDROOT
BRANCH   1   2
ATOM      2  C   UNL     1       7.815   7.792  17.940  0.00  0.00    +0.000 C 
ATOM      3  O   UNL     1       8.263   6.999  18.765  0.00  0.00    +0.000 OA
ATOM      4  N   UNL     1       6.879   7.499  16.960  0.00  0.00    +0.000 N 
ATOM      5  H   UNL     1       6.670   8.222  16.281  0.00  0.00    +0.000 HD
BRANCH   4   6
ATOM      6  C   UNL     1       6.257   6.246  16.760  0.00  0.00    +0.000 A 
ATOM      7  C   UNL     1       6.825   5.222  15.998  0.00  0.00    +0.000 A 
ATOM      8  C   UNL     1       6.142   4.024  15.780  0.00  0.00    +0.000 A 
ATOM      9  C   UNL     1       4.874   3.837  16.323  0.00  0.00    +0.000 A 
ATOM     10  C   UNL     1       4.303   4.840  17.110  0.00  0.00    +0.000 A 
ATOM     11  C   UNL     1       5.003   6.033  17.346  0.00  0.00    +0.000 A 
BRANCH  10  12
ATOM     12  C   UNL     1       2.988   4.656  17.651  0.00  0.00    +0.000 C 
ATOM     13  N   UNL     1       1.921   4.518  18.084  0.00  0.00    +0.000 NA
ENDBRANCH  10  12
ENDBRANCH   4   6
ENDBRANCH   1   2
BRANCH   1  14
ATOM     14  O   UNL     1       9.186   9.462  19.029  0.00  0.00    +0.000 OA
BRANCH  14  15
ATOM     15  C   UNL     1       9.405  10.771  19.331  0.00  0.00    +0.000 C 
ATOM     16  O   UNL     1       9.175  11.275  20.425  0.00  0.00    +0.000 OA
BRANCH  15  18
ATOM     17  C   UNL     1      11.403  11.597  18.062  0.00  0.00    +0.000 C 
ATOM     18  C   UNL     1       9.880  11.541  18.093  0.00  0.00    +0.000 C 
BRANCH  18  19
ATOM     19  N   UNL     1       9.339  12.896  18.124  0.00  0.00    +0.000 N 
ATOM     20  C   UNL     1       8.155  13.188  17.526  0.00  0.00    +0.000 C 
ATOM     21  N   UNL     1       7.781  14.481  17.695  0.00  0.00    +0.000 N 
ATOM     22  O   UNL     1       7.490  12.417  16.855  0.00  0.00    +0.000 OA
ATOM     23  H   UNL     1       9.718  13.553  18.791  0.00  0.00    +0.000 HD
ATOM     24  H   UNL     1       8.010  14.952  18.554  0.00  0.00    +0.000 HD
ATOM     25  H   UNL     1       6.871  14.693  17.309  0.00  0.00    +0.000 HD
ENDBRANCH  18  19
ENDBRANCH  15  18
ENDBRANCH  14  15
ENDBRANCH   1  14
TORSDOF 7
ENDMDL
MODEL 3
REMARK VINA RESULT:      -7.0      1.399      1.461
REMARK  Name = 
REMARK  8 active torsions:
REMARK  status: ('A' for Active; 'I' for Inactive)
REMARK    1  A    between atoms: C_1  and  C_2
REMARK    2  A    between atoms: C_2  and  N_3
REMARK    3  A    between atoms: C_2  and  C_7
REMARK    4  A    between atoms: C_7  and  O_9
REMARK    5  A    between atoms: O_9  and  C_10
REMARK    6  A    between atoms: C_10  and  C_11
REMARK    7  A    between atoms: N_13  and  C_14
REMARK    8  A    between atoms: C_18  and  C_19
REMARK                            x       y       z     vdW  Elec       q    Type
REMARK                         _______ _______ _______ _____ _____    ______ ____
ROOT
ATOM      1  C   UNL     1       6.888   6.005  17.132  0.00  0.00    +0.000 C 
ENDROOT
BRANCH   1   2
ATOM      2  C   UNL     1       5.875   5.477  18.146  0.00  0.00    +0.000 C 
ATOM      3  O   UNL     1       6.248   4.768  19.078  0.00  0.00    +0.000 OA
ATOM      4  N   UNL     1       4.566   5.863  17.897  0.00  0.00    +0.000 N 
ATOM      5  H   UNL     1       4.383   6.367  17.037  0.00  0.00    +0.000 HD
BRANCH   4   6
ATOM      6  C   UNL     1       3.443   5.535  18.688  0.00  0.00    +0.000 A 
ATOM      7  C   UNL     1       3.057   6.270  19.813  0.00  0.00    +0.000 A 
ATOM      8  C   UNL     1       1.975   5.869  20.598  0.00  0.00    +0.000 A 
ATOM      9  C   UNL     1       1.263   4.719  20.266  0.00  0.00    +0.000 A 
ATOM     10  C   UNL     1       1.617   3.988  19.130  0.00  0.00    +0.000 A 
ATOM     11  C   UNL     1       2.692   4.409  18.330  0.00  0.00    +0.000 A 
BRANCH  10  12
ATOM     12  C   UNL     1       0.898   2.793  18.800  0.00  0.00    +0.000 C 
ATOM     13  N   UNL     1       0.323   1.825  18.524  0.00  0.00    +0.000 NA
ENDBRANCH  10  12
ENDBRANCH   4   6
ENDBRANCH   1   2
BRANCH   1  14
ATOM     14  O   UNL     1       6.273   6.121  15.848  0.00  0.00    +0.000 OA
BRANCH  14  15
ATOM     15  C   UNL     1       6.807   5.319  14.887  0.00  0.00    +0.000 C 
ATOM     16  O   UNL     1       7.969   5.387  14.500  0.00  0.00    +0.000 OA
BRANCH  15  18
ATOM     17  C   UNL     1       4.956   3.711  15.405  0.00  0.00    +0.000 C 
ATOM     18  C   UNL     1       5.736   4.399  14.291  0.00  0.00    +0.000 C 
BRANCH  18  19
ATOM     19  N   UNL     1       6.372   3.395  13.444  0.00  0.00    +0.000 N 
ATOM     20  C   UNL     1       5.814   3.024  12.262  0.00  0.00    +0.000 C 
ATOM     21  N   UNL     1       6.562   2.120  11.583  0.00  0.00    +0.000 N 
ATOM     22  O   UNL     1       4.734   3.401  11.839  0.00  0.00    +0.000 OA
ATOM     23  H   UNL     1       7.338   3.158  13.617  0.00  0.00    +0.000 HD
ATOM     24  H   UNL     1       7.566   2.165  11.643  0.00  0.00    +0.000 HD
ATOM     25  H   UNL     1       6.188   1.886  10.673  0.00  0.00    +0.000 HD
ENDBRANCH  18  19
ENDBRANCH  15  18
ENDBRANCH  14  15
ENDBRANCH   1  14
TORSDOF 7
ENDMDL
MODEL 4
REMARK VINA RESULT:      -7.0      2.637      4.293
REMARK  Name = 
REMARK  8 active torsions:
REMARK  status: ('A' for Active; 'I' for Inactive)
REMARK    1  A    between atoms: C_1  and  C_2
REMARK    2  A    between atoms: C_2  and  N_3
REMARK    3  A    between atoms: C_2  and  C_7
REMARK    4  A    between atoms: C_7  and  O_9
REMARK    5  A    between atoms: O_9  and  C_10
REMARK    6  A    between atoms: C_10  and  C_11
REMARK    7  A    between atoms: N_13  and  C_14
REMARK    8  A    between atoms: C_18  and  C_19
REMARK                            x       y       z     vdW  Elec       q    Type
REMARK                         _______ _______ _______ _____ _____    ______ ____
ROOT
ATOM      1  C   UNL     1       5.382   5.070  15.533  0.00  0.00    +0.000 C 
ENDROOT
BRANCH   1   2
ATOM      2  C   UNL     1       4.508   4.880  16.772  0.00  0.00    +0.000 C 
ATOM      3  O   UNL     1       4.319   3.753  17.225  0.00  0.00    +0.000 OA
ATOM      4  N   UNL     1       3.982   6.057  17.285  0.00  0.00    +0.000 N 
ATOM      5  H   UNL     1       4.137   6.907  16.755  0.00  0.00    +0.000 HD
BRANCH   4   6
ATOM      6  C   UNL     1       3.165   6.166  18.432  0.00  0.00    +0.000 A 
ATOM      7  C   UNL     1       2.534   7.354  18.812  0.00  0.00    +0.000 A 
ATOM      8  C   UNL     1       1.786   7.427  19.988  0.00  0.00    +0.000 A 
ATOM      9  C   UNL     1       1.663   6.306  20.805  0.00  0.00    +0.000 A 
ATOM     10  C   UNL     1       2.264   5.103  20.426  0.00  0.00    +0.000 A 
ATOM     11  C   UNL     1       2.996   5.029  19.230  0.00  0.00    +0.000 A 
BRANCH  10  12
ATOM     12  C   UNL     1       2.156   3.956  21.278  0.00  0.00    +0.000 C 
ATOM     13  N   UNL     1       2.057   3.024  21.962  0.00  0.00    +0.000 NA
ENDBRANCH  10  12
ENDBRANCH   4   6
ENDBRANCH   1   2
BRANCH   1  14
ATOM     14  O   UNL     1       6.355   6.087  15.779  0.00  0.00    +0.000 OA
BRANCH  14  15
ATOM     15  C   UNL     1       7.280   5.771  16.726  0.00  0.00    +0.000 C 
ATOM     16  O   UNL     1       7.963   4.752  16.711  0.00  0.00    +0.000 OA
BRANCH  15  18
ATOM     17  C   UNL     1       7.793   8.145  17.342  0.00  0.00    +0.000 C 
ATOM     18  C   UNL     1       7.276   6.807  17.856  0.00  0.00    +0.000 C 
BRANCH  18  19
ATOM     19  N   UNL     1       8.121   6.340  18.950  0.00  0.00    +0.000 N 
ATOM     20  C   UNL     1       7.640   5.482  19.886  0.00  0.00    +0.000 C 
ATOM     21  N   UNL     1       8.574   5.115  20.798  0.00  0.00    +0.000 N 
ATOM     22  O   UNL     1       6.486   5.094  19.967  0.00  0.00    +0.000 OA
ATOM     23  H   UNL     1       9.121   6.461  18.874  0.00  0.00    +0.000 HD
ATOM     24  H   UNL     1       9.533   5.018  20.510  0.00  0.00    +0.000 HD
ATOM     25  H   UNL     1       8.244   4.426  21.461  0.00  0.00    +0.000 HD
ENDBRANCH  18  19
ENDBRANCH  15  18
ENDBRANCH  14  15
ENDBRANCH   1  14
TORSDOF 7
ENDMDL
MODEL 5
REMARK VINA RESULT:      -6.9      1.120      1.336
REMARK  Name = 
REMARK  8 active torsions:
REMARK  status: ('A' for Active; 'I' for Inactive)
REMARK    1  A    between atoms: C_1  and  C_2
REMARK    2  A    between atoms: C_2  and  N_3
REMARK    3  A    between atoms: C_2  and  C_7
REMARK    4  A    between atoms: C_7  and  O_9
REMARK    5  A    between atoms: O_9  and  C_10
REMARK    6  A    between atoms: C_10  and  C_11
REMARK    7  A    between atoms: N_13  and  C_14
REMARK    8  A    between atoms: C_18  and  C_19
REMARK                            x       y       z     vdW  Elec       q    Type
REMARK                         _______ _______ _______ _____ _____    ______ ____
ROOT
ATOM      1  C   UNL     1       7.244   4.384  17.055  0.00  0.00    +0.000 C 
ENDROOT
BRANCH   1   2
ATOM      2  C   UNL     1       6.310   4.771  18.200  0.00  0.00    +0.000 C 
ATOM      3  O   UNL     1       6.775   5.105  19.288  0.00  0.00    +0.000 OA
ATOM      4  N   UNL     1       4.961   4.696  17.885  0.00  0.00    +0.000 N 
ATOM      5  H   UNL     1       4.713   4.311  16.981  0.00  0.00    +0.000 HD
BRANCH   4   6
ATOM      6  C   UNL     1       3.891   5.021  18.749  0.00  0.00    +0.000 A 
ATOM      7  C   UNL     1       3.311   6.291  18.806  0.00  0.00    +0.000 A 
ATOM      8  C   UNL     1       2.297   6.578  19.720  0.00  0.00    +0.000 A 
ATOM      9  C   UNL     1       1.850   5.593  20.596  0.00  0.00    +0.000 A 
ATOM     10  C   UNL     1       2.400   4.310  20.535  0.00  0.00    +0.000 A 
ATOM     11  C   UNL     1       3.403   4.019  19.597  0.00  0.00    +0.000 A 
BRANCH  10  12
ATOM     12  C   UNL     1       1.955   3.301  21.451  0.00  0.00    +0.000 C 
ATOM     13  N   UNL     1       1.607   2.486  22.198  0.00  0.00    +0.000 NA
ENDBRANCH  10  12
ENDBRANCH   4   6
ENDBRANCH   1   2
BRANCH   1  14
ATOM     14  O   UNL     1       7.379   5.480  16.149  0.00  0.00    +0.000 OA
BRANCH  14  15
ATOM     15  C   UNL     1       6.465   5.502  15.142  0.00  0.00    +0.000 C 
ATOM     16  O   UNL     1       5.406   6.120  15.184  0.00  0.00    +0.000 OA
BRANCH  15  18
ATOM     17  C   UNL     1       7.889   5.284  13.091  0.00  0.00    +0.000 C 
ATOM     18  C   UNL     1       6.893   4.574  14.000  0.00  0.00    +0.000 C 
BRANCH  18  19
ATOM     19  N   UNL     1       5.721   4.176  13.228  0.00  0.00    +0.000 N 
ATOM     20  C   UNL     1       5.821   3.264  12.227  0.00  0.00    +0.000 C 
ATOM     21  N   UNL     1       4.628   2.976  11.650  0.00  0.00    +0.000 N 
ATOM     22  O   UNL     1       6.858   2.769  11.820  0.00  0.00    +0.000 OA
ATOM     23  H   UNL     1       4.804   4.391  13.595  0.00  0.00    +0.000 HD
ATOM     24  H   UNL     1       3.795   2.974  12.216  0.00  0.00    +0.000 HD
ATOM     25  H   UNL     1       4.681   2.251  10.948  0.00  0.00    +0.000 HD
ENDBRANCH  18  19
ENDBRANCH  15  18
ENDBRANCH  14  15
ENDBRANCH   1  14
TORSDOF 7
ENDMDL
MODEL 6
REMARK VINA RESULT:      -6.9      3.196      5.057
REMARK  Name = 
REMARK  8 active torsions:
REMARK  status: ('A' for Active; 'I' for Inactive)
REMARK    1  A    between atoms: C_1  and  C_2
REMARK    2  A    between atoms: C_2  and  N_3
REMARK    3  A    between atoms: C_2  and  C_7
REMARK    4  A    between atoms: C_7  and  O_9
REMARK    5  A    between atoms: O_9  and  C_10
REMARK    6  A    between atoms: C_10  and  C_11
REMARK    7  A    between atoms: N_13  and  C_14
REMARK    8  A    between atoms: C_18  and  C_19
REMARK                            x       y       z     vdW  Elec       q    Type
REMARK                         _______ _______ _______ _____ _____    ______ ____
ROOT
ATOM      1  C   UNL     1       3.384   3.399  18.615  0.00  0.00    +0.000 C 
ENDROOT
BRANCH   1   2
ATOM      2  C   UNL     1       2.500   4.638  18.479  0.00  0.00    +0.000 C 
ATOM      3  O   UNL     1       1.458   4.582  17.830  0.00  0.00    +0.000 OA
ATOM      4  N   UNL     1       2.991   5.761  19.128  0.00  0.00    +0.000 N 
ATOM      5  H   UNL     1       3.913   5.695  19.544  0.00  0.00    +0.000 HD
BRANCH   4   6
ATOM      6  C   UNL     1       2.362   7.025  19.181  0.00  0.00    +0.000 A 
ATOM      7  C   UNL     1       2.207   7.851  18.064  0.00  0.00    +0.000 A 
ATOM      8  C   UNL     1       1.633   9.117  18.180  0.00  0.00    +0.000 A 
ATOM      9  C   UNL     1       1.207   9.577  19.423  0.00  0.00    +0.000 A 
ATOM     10  C   UNL     1       1.329   8.754  20.546  0.00  0.00    +0.000 A 
ATOM     11  C   UNL     1       1.885   7.471  20.420  0.00  0.00    +0.000 A 
BRANCH  10  12
ATOM     12  C   UNL     1       0.911   9.236  21.829  0.00  0.00    +0.000 C 
ATOM     13  N   UNL     1       0.574   9.614  22.872  0.00  0.00    +0.000 NA
ENDBRANCH  10  12
ENDBRANCH   4   6
ENDBRANCH   1   2
BRANCH   1  14
ATOM     14  O   UNL     1       4.759   3.769  18.494  0.00  0.00    +0.000 OA
BRANCH  14  15
ATOM     15  C   UNL     1       5.137   4.150  17.243  0.00  0.00    +0.000 C 
ATOM     16  O   UNL     1       4.590   3.772  16.212  0.00  0.00    +0.000 OA
BRANCH  15  18
ATOM     17  C   UNL     1       7.302   4.718  16.116  0.00  0.00    +0.000 C 
ATOM     18  C   UNL     1       6.392   5.028  17.299  0.00  0.00    +0.000 C 
BRANCH  18  19
ATOM     19  N   UNL     1       7.106   4.779  18.546  0.00  0.00    +0.000 N 
ATOM     20  C   UNL     1       7.851   5.754  19.130  0.00  0.00    +0.000 C 
ATOM     21  N   UNL     1       8.403   5.366  20.307  0.00  0.00    +0.000 N 
ATOM     22  O   UNL     1       8.069   6.857  18.660  0.00  0.00    +0.000 OA
ATOM     23  H   UNL     1       6.853   3.971  19.097  0.00  0.00    +0.000 HD
ATOM     24  H   UNL     1       7.900   4.730  20.902  0.00  0.00    +0.000 HD
ATOM     25  H   UNL     1       8.906   6.104  20.781  0.00  0.00    +0.000 HD
ENDBRANCH  18  19
ENDBRANCH  15  18
ENDBRANCH  14  15
ENDBRANCH   1  14
TORSDOF 7
ENDMDL
MODEL 7
REMARK VINA RESULT:      -6.8      5.074      8.104
REMARK  Name = 
REMARK  8 active torsions:
REMARK  status: ('A' for Active; 'I' for Inactive)
REMARK    1  A    between atoms: C_1  and  C_2
REMARK    2  A    between atoms: C_2  and  N_3
REMARK    3  A    between atoms: C_2  and  C_7
REMARK    4  A    between atoms: C_7  and  O_9
REMARK    5  A    between atoms: O_9  and  C_10
REMARK    6  A    between atoms: C_10  and  C_11
REMARK    7  A    between atoms: N_13  and  C_14
REMARK    8  A    between atoms: C_18  and  C_19
REMARK                            x       y       z     vdW  Elec       q    Type
REMARK                         _______ _______ _______ _____ _____    ______ ____
ROOT
ATOM      1  C   UNL     1       1.335   8.530  21.114  0.00  0.00    +0.000 C 
ENDROOT
BRANCH   1   2
ATOM      2  C   UNL     1       1.904   7.812  19.892  0.00  0.00    +0.000 C 
ATOM      3  O   UNL     1       1.973   8.394  18.812  0.00  0.00    +0.000 OA
ATOM      4  N   UNL     1       2.300   6.504  20.132  0.00  0.00    +0.000 N 
ATOM      5  H   UNL     1       2.096   6.115  21.046  0.00  0.00    +0.000 HD
BRANCH   4   6
ATOM      6  C   UNL     1       2.878   5.629  19.186  0.00  0.00    +0.000 A 
ATOM      7  C   UNL     1       2.126   4.781  18.368  0.00  0.00    +0.000 A 
ATOM      8  C   UNL     1       2.748   3.890  17.492  0.00  0.00    +0.000 A 
ATOM      9  C   UNL     1       4.137   3.834  17.426  0.00  0.00    +0.000 A 
ATOM     10  C   UNL     1       4.904   4.694  18.217  0.00  0.00    +0.000 A 
ATOM     11  C   UNL     1       4.274   5.605  19.079  0.00  0.00    +0.000 A 
BRANCH  10  12
ATOM     12  C   UNL     1       6.334   4.621  18.165  0.00  0.00    +0.000 C 
ATOM     13  N   UNL     1       7.492   4.556  18.133  0.00  0.00    +0.000 NA
ENDBRANCH  10  12
ENDBRANCH   4   6
ENDBRANCH   1   2
BRANCH   1  14
ATOM     14  O   UNL     1       0.169   9.268  20.743  0.00  0.00    +0.000 OA
BRANCH  14  15
ATOM     15  C   UNL     1       0.324  10.620  20.757  0.00  0.00    +0.000 C 
ATOM     16  O   UNL     1       0.719  11.259  21.727  0.00  0.00    +0.000 OA
BRANCH  15  18
ATOM     17  C   UNL     1      -1.251  10.371  18.824  0.00  0.00    +0.000 C 
ATOM     18  C   UNL     1      -0.156  11.235  19.438  0.00  0.00    +0.000 C 
BRANCH  18  19
ATOM     19  N   UNL     1       0.965  11.340  18.511  0.00  0.00    +0.000 N 
ATOM     20  C   UNL     1       1.722  12.466  18.455  0.00  0.00    +0.000 C 
ATOM     21  N   UNL     1       2.750  12.371  17.576  0.00  0.00    +0.000 N 
ATOM     22  O   UNL     1       1.509  13.495  19.074  0.00  0.00    +0.000 OA
ATOM     23  H   UNL     1       1.326  10.495  18.090  0.00  0.00    +0.000 HD
ATOM     24  H   UNL     1       3.206  11.484  17.443  0.00  0.00    +0.000 HD
ATOM     25  H   UNL     1       3.358  13.180  17.574  0.00  0.00    +0.000 HD
ENDBRANCH  18  19
ENDBRANCH  15  18
ENDBRANCH  14  15
ENDBRANCH   1  14
TORSDOF 7
ENDMDL
MODEL 8
REMARK VINA RESULT:      -6.8      3.229      5.096
REMARK  Name = 
REMARK  8 active torsions:
REMARK  status: ('A' for Active; 'I' for Inactive)
REMARK    1  A    between atoms: C_1  and  C_2
REMARK    2  A    between atoms: C_2  and  N_3
REMARK    3  A    between atoms: C_2  and  C_7
REMARK    4  A    between atoms: C_7  and  O_9
REMARK    5  A    between atoms: O_9  and  C_10
REMARK    6  A    between atoms: C_10  and  C_11
REMARK    7  A    between atoms: N_13  and  C_14
REMARK    8  A    between atoms: C_18  and  C_19
REMARK                            x       y       z     vdW  Elec       q    Type
REMARK                         _______ _______ _______ _____ _____    ______ ____
ROOT
ATOM      1  C   UNL     1       3.396   3.902  19.985  0.00  0.00    +0.000 C 
ENDROOT
BRANCH   1   2
ATOM      2  C   UNL     1       2.344   5.009  20.012  0.00  0.00    +0.000 C 
ATOM      3  O   UNL     1       1.156   4.727  20.157  0.00  0.00    +0.000 OA
ATOM      4  N   UNL     1       2.858   6.288  19.856  0.00  0.00    +0.000 N 
ATOM      5  H   UNL     1       3.847   6.371  19.646  0.00  0.00    +0.000 HD
BRANCH   4   6
ATOM      6  C   UNL     1       2.111   7.487  19.867  0.00  0.00    +0.000 A 
ATOM      7  C   UNL     1       1.916   8.278  18.731  0.00  0.00    +0.000 A 
ATOM      8  C   UNL     1       1.221   9.486  18.807  0.00  0.00    +0.000 A 
ATOM      9  C   UNL     1       0.712   9.920  20.027  0.00  0.00    +0.000 A 
ATOM     10  C   UNL     1       0.873   9.129  21.167  0.00  0.00    +0.000 A 
ATOM     11  C   UNL     1       1.552   7.903  21.081  0.00  0.00    +0.000 A 
BRANCH  10  12
ATOM     12  C   UNL     1       0.368   9.586  22.428  0.00  0.00    +0.000 C 
ATOM     13  N   UNL     1      -0.040   9.968  23.444  0.00  0.00    +0.000 NA
ENDBRANCH  10  12
ENDBRANCH   4   6
ENDBRANCH   1   2
BRANCH   1  14
ATOM     14  O   UNL     1       4.547   4.346  19.264  0.00  0.00    +0.000 OA
BRANCH  14  15
ATOM     15  C   UNL     1       4.566   3.993  17.950  0.00  0.00    +0.000 C 
ATOM     16  O   UNL     1       3.925   3.060  17.477  0.00  0.00    +0.000 OA
BRANCH  15  18
ATOM     17  C   UNL     1       6.160   4.052  16.017  0.00  0.00    +0.000 C 
ATOM     18  C   UNL     1       5.569   4.852  17.172  0.00  0.00    +0.000 C 
BRANCH  18  19
ATOM     19  N   UNL     1       6.637   5.287  18.066  0.00  0.00    +0.000 N 
ATOM     20  C   UNL     1       7.247   6.487  17.892  0.00  0.00    +0.000 C 
ATOM     21  N   UNL     1       8.179   6.751  18.840  0.00  0.00    +0.000 N 
ATOM     22  O   UNL     1       7.046   7.257  16.968  0.00  0.00    +0.000 OA
ATOM     23  H   UNL     1       6.753   4.810  18.948  0.00  0.00    +0.000 HD
ATOM     24  H   UNL     1       8.033   6.422  19.780  0.00  0.00    +0.000 HD
ATOM     25  H   UNL     1       8.593   7.669  18.758  0.00  0.00    +0.000 HD
ENDBRANCH  18  19
ENDBRANCH  15  18
ENDBRANCH  14  15
ENDBRANCH   1  14
TORSDOF 7
ENDMDL
MODEL 9
REMARK VINA RESULT:      -6.8      3.485      5.705
REMARK  Name = 
REMARK  8 active torsions:
REMARK  status: ('A' for Active; 'I' for Inactive)
REMARK    1  A    between atoms: C_1  and  C_2
REMARK    2  A    between atoms: C_2  and  N_3
REMARK    3  A    between atoms: C_2  and  C_7
REMARK    4  A    between atoms: C_7  and  O_9
REMARK    5  A    between atoms: O_9  and  C_10
REMARK    6  A    between atoms: C_10  and  C_11
REMARK    7  A    between atoms: N_13  and  C_14
REMARK    8  A    between atoms: C_18  and  C_19
REMARK                            x       y       z     vdW  Elec       q    Type
REMARK                         _______ _______ _______ _____ _____    ______ ____
ROOT
ATOM      1  C   UNL     1       2.406   3.408  21.438  0.00  0.00    +0.000 C 
ENDROOT
BRANCH   1   2
ATOM      2  C   UNL     1       1.728   4.567  20.710  0.00  0.00    +0.000 C 
ATOM      3  O   UNL     1       0.591   4.433  20.263  0.00  0.00    +0.000 OA
ATOM      4  N   UNL     1       2.505   5.712  20.615  0.00  0.00    +0.000 N 
ATOM      5  H   UNL     1       3.464   5.655  20.940  0.00  0.00    +0.000 HD
BRANCH   4   6
ATOM      6  C   UNL     1       2.112   6.930  20.015  0.00  0.00    +0.000 A 
ATOM      7  C   UNL     1       2.295   7.209  18.658  0.00  0.00    +0.000 A 
ATOM      8  C   UNL     1       1.945   8.451  18.125  0.00  0.00    +0.000 A 
ATOM      9  C   UNL     1       1.409   9.436  18.950  0.00  0.00    +0.000 A 
ATOM     10  C   UNL     1       1.194   9.164  20.304  0.00  0.00    +0.000 A 
ATOM     11  C   UNL     1       1.525   7.905  20.830  0.00  0.00    +0.000 A 
BRANCH  10  12
ATOM     12  C   UNL     1       0.663  10.185  21.158  0.00  0.00    +0.000 C 
ATOM     13  N   UNL     1       0.235  11.020  21.840  0.00  0.00    +0.000 NA
ENDBRANCH  10  12
ENDBRANCH   4   6
ENDBRANCH   1   2
BRANCH   1  14
ATOM     14  O   UNL     1       3.553   2.978  20.702  0.00  0.00    +0.000 OA
BRANCH  14  15
ATOM     15  C   UNL     1       3.308   2.670  19.399  0.00  0.00    +0.000 C 
ATOM     16  O   UNL     1       2.611   1.731  19.031  0.00  0.00    +0.000 OA
BRANCH  15  18
ATOM     17  C   UNL     1       4.229   2.957  17.085  0.00  0.00    +0.000 C 
ATOM     18  C   UNL     1       4.103   3.591  18.465  0.00  0.00    +0.000 C 
BRANCH  18  19
ATOM     19  N   UNL     1       5.431   3.824  19.023  0.00  0.00    +0.000 N 
ATOM     20  C   UNL     1       6.012   5.049  18.953  0.00  0.00    +0.000 C 
ATOM     21  N   UNL     1       7.222   5.098  19.564  0.00  0.00    +0.000 N 
ATOM     22  O   UNL     1       5.555   6.018  18.371  0.00  0.00    +0.000 OA
ATOM     23  H   UNL     1       5.810   3.146  19.668  0.00  0.00    +0.000 HD
ATOM     24  H   UNL     1       7.381   4.540  20.387  0.00  0.00    +0.000 HD
ATOM     25  H   UNL     1       7.633   6.021  19.575  0.00  0.00    +0.000 HD
ENDBRANCH  18  19
ENDBRANCH  15  18
ENDBRANCH  14  15
ENDBRANCH   1  14
TORSDOF 7
ENDMDL
