MODEL 1
REMARK VINA RESULT:      -8.8      0.000      0.000
REMARK  Name = 
REMARK  5 active torsions:
REMARK  status: ('A' for Active; 'I' for Inactive)
REMARK    1  A    between atoms: C_1  and  C_2
REMARK    2  A    between atoms: N_7  and  C_8
REMARK    3  A    between atoms: C_11  and  C_12
REMARK    4  A    between atoms: C_14  and  C_15
REMARK    5  A    between atoms: C_28  and  C_29
REMARK                            x       y       z     vdW  Elec       q    Type
REMARK                         _______ _______ _______ _____ _____    ______ ____
ROOT
ATOM      1  C   UNL     1       1.279   7.824  20.596  0.00  0.00    +0.000 A 
ATOM      2  N   UNL     1       1.989   7.691  19.500  0.00  0.00    +0.000 NA
ATOM      3  C   UNL     1       2.372   6.367  19.544  0.00  0.00    +0.000 A 
ATOM      4  N   UNL     1       1.921   5.709  20.627  0.00  0.00    +0.000 NA
ATOM      5  O   UNL     1       1.196   6.674  21.322  0.00  0.00    +0.000 OA
ENDROOT
BRANCH   3   6
ATOM      6  C   UNL     1       3.194   5.759  18.501  0.00  0.00    +0.000 A 
ATOM      7  C   UNL     1       2.967   4.435  18.089  0.00  0.00    +0.000 A 
ATOM      8  C   UNL     1       3.759   3.846  17.101  0.00  0.00    +0.000 A 
ATOM      9  C   UNL     1       4.800   4.574  16.527  0.00  0.00    +0.000 A 
ATOM     10  C   UNL     1       5.035   5.904  16.915  0.00  0.00    +0.000 A 
ATOM     11  C   UNL     1       4.226   6.493  17.893  0.00  0.00    +0.000 A 
ATOM     12  C   UNL     1       6.118   6.664  16.193  0.00  0.00    +0.000 C 
ATOM     13  N   UNL     1       7.357   5.898  16.006  0.00  0.00    +0.000 NA
ATOM     14  C   UNL     1       7.155   4.454  15.786  0.00  0.00    +0.000 C 
ATOM     15  C   UNL     1       5.718   4.003  15.480  0.00  0.00    +0.000 C 
ATOM     16  H   UNL     1       7.937   6.015  16.835  0.00  0.00    +0.000 HD
ENDBRANCH   3   6
BRANCH   1  20
ATOM     17  C   UNL     1      -0.849  11.342  22.005  0.00  0.00    +0.000 A 
ATOM     18  C   UNL     1      -0.496  10.278  22.864  0.00  0.00    +0.000 A 
ATOM     19  C   UNL     1       0.192   9.131  22.434  0.00  0.00    +0.000 A 
ATOM     20  C   UNL     1       0.580   8.996  21.104  0.00  0.00    +0.000 A 
ATOM     21  C   UNL     1       0.268  10.039  20.231  0.00  0.00    +0.000 A 
ATOM     22  C   UNL     1      -0.432  11.189  20.659  0.00  0.00    +0.000 A 
BRANCH  17  29
ATOM     23  C   UNL     1      -3.603  12.495  23.917  0.00  0.00    +0.000 C 
ATOM     24  C   UNL     1      -3.039  12.501  22.492  0.00  0.00    +0.000 C 
ATOM     25  C   UNL     1      -3.483  13.745  21.705  0.00  0.00    +0.000 C 
ATOM     26  C   UNL     1      -2.824  15.025  22.205  0.00  0.00    +0.000 C 
ATOM     27  C   UNL     1      -1.306  14.871  22.221  0.00  0.00    +0.000 C 
ATOM     28  C   UNL     1      -0.871  13.636  23.010  0.00  0.00    +0.000 C 
ATOM     29  N   UNL     1      -1.561  12.429  22.511  0.00  0.00    +0.000 N 
ENDBRANCH  17  29
BRANCH  22  30
ATOM     30  C   UNL     1      -0.701  12.138  19.617  0.00  0.00    +0.000 C 
ATOM     31  N   UNL     1      -0.897  12.956  18.814  0.00  0.00    +0.000 NA
ENDBRANCH  22  30
ENDBRANCH   1  20
TORSDOF 4
ENDMDL
MODEL 2
REMARK VINA RESULT:      -8.7      2.209     10.629
REMARK  Name = 
REMARK  5 active torsions:
REMARK  status: ('A' for Active; 'I' for Inactive)
REMARK    1  A    between atoms: C_1  and  C_2
REMARK    2  A    between atoms: N_7  and  C_8
REMARK    3  A    between atoms: C_11  and  C_12
REMARK    4  A    between atoms: C_14  and  C_15
REMARK    5  A    between atoms: C_28  and  C_29
REMARK                            x       y       z     vdW  Elec       q    Type
REMARK                         _______ _______ _______ _____ _____    ______ ____
ROOT
ATOM      1  C   UNL     1       0.870   8.720  21.348  0.00  0.00    +0.000 A 
ATOM      2  N   UNL     1      -0.165   9.420  20.947  0.00  0.00    +0.000 NA
ATOM      3  C   UNL     1      -0.323  10.338  21.963  0.00  0.00    +0.000 A 
ATOM      4  N   UNL     1       0.576  10.208  22.955  0.00  0.00    +0.000 NA
ATOM      5  O   UNL     1       1.367   9.136  22.546  0.00  0.00    +0.000 OA
ENDROOT
BRANCH   3   6
ATOM      6  C   UNL     1      -1.378  11.348  21.943  0.00  0.00    +0.000 A 
ATOM      7  C   UNL     1      -1.660  12.068  20.770  0.00  0.00    +0.000 A 
ATOM      8  C   UNL     1      -2.659  13.044  20.751  0.00  0.00    +0.000 A 
ATOM      9  C   UNL     1      -3.375  13.320  21.914  0.00  0.00    +0.000 A 
ATOM     10  C   UNL     1      -3.118  12.602  23.094  0.00  0.00    +0.000 A 
ATOM     11  C   UNL     1      -2.127  11.614  23.101  0.00  0.00    +0.000 A 
ATOM     12  C   UNL     1      -3.988  12.887  24.292  0.00  0.00    +0.000 C 
ATOM     13  N   UNL     1      -4.215  14.317  24.533  0.00  0.00    +0.000 NA
ATOM     14  C   UNL     1      -4.299  15.137  23.311  0.00  0.00    +0.000 C 
ATOM     15  C   UNL     1      -4.445  14.376  21.985  0.00  0.00    +0.000 C 
ATOM     16  H   UNL     1      -3.449  14.674  25.104  0.00  0.00    +0.000 HD
ENDBRANCH   3   6
BRANCH   1  20
ATOM     17  C   UNL     1       2.793   5.327  19.428  0.00  0.00    +0.000 A 
ATOM     18  C   UNL     1       2.869   6.636  18.902  0.00  0.00    +0.000 A 
ATOM     19  C   UNL     1       2.257   7.748  19.503  0.00  0.00    +0.000 A 
ATOM     20  C   UNL     1       1.540   7.607  20.688  0.00  0.00    +0.000 A 
ATOM     21  C   UNL     1       1.464   6.332  21.249  0.00  0.00    +0.000 A 
ATOM     22  C   UNL     1       2.070   5.210  20.642  0.00  0.00    +0.000 A 
BRANCH  17  29
ATOM     23  C   UNL     1       3.871   3.984  16.329  0.00  0.00    +0.000 C 
ATOM     24  C   UNL     1       2.884   3.730  17.474  0.00  0.00    +0.000 C 
ATOM     25  C   UNL     1       2.574   2.234  17.643  0.00  0.00    +0.000 C 
ATOM     26  C   UNL     1       3.755   1.446  18.197  0.00  0.00    +0.000 C 
ATOM     27  C   UNL     1       4.254   2.075  19.493  0.00  0.00    +0.000 C 
ATOM     28  C   UNL     1       4.566   3.562  19.318  0.00  0.00    +0.000 C 
ATOM     29  N   UNL     1       3.405   4.274  18.748  0.00  0.00    +0.000 N 
ENDBRANCH  17  29
BRANCH  22  30
ATOM     30  C   UNL     1       1.854   3.974  21.338  0.00  0.00    +0.000 C 
ATOM     31  N   UNL     1       1.733   2.946  21.868  0.00  0.00    +0.000 NA
ENDBRANCH  22  30
ENDBRANCH   1  20
TORSDOF 4
ENDMDL
MODEL 3
REMARK VINA RESULT:      -8.6      0.516      1.384
REMARK  Name = 
REMARK  5 active torsions:
REMARK  status: ('A' for Active; 'I' for Inactive)
REMARK    1  A    between atoms: C_1  and  C_2
REMARK    2  A    between atoms: N_7  and  C_8
REMARK    3  A    between atoms: C_11  and  C_12
REMARK    4  A    between atoms: C_14  and  C_15
REMARK    5  A    between atoms: C_28  and  C_29
REMARK                            x       y       z     vdW  Elec       q    Type
REMARK                         _______ _______ _______ _____ _____    ______ ____
ROOT
ATOM      1  C   UNL     1       1.270   8.011  20.488  0.00  0.00    +0.000 A 
ATOM      2  N   UNL     1       1.974   7.818  19.397  0.00  0.00    +0.000 NA
ATOM      3  C   UNL     1       2.363   6.500  19.515  0.00  0.00    +0.000 A 
ATOM      4  N   UNL     1       1.921   5.904  20.637  0.00  0.00    +0.000 NA
ATOM      5  O   UNL     1       1.196   6.905  21.279  0.00  0.00    +0.000 OA
ENDROOT
BRANCH   3   6
ATOM      6  C   UNL     1       3.182   5.836  18.504  0.00  0.00    +0.000 A 
ATOM      7  C   UNL     1       2.952   4.493  18.163  0.00  0.00    +0.000 A 
ATOM      8  C   UNL     1       3.741   3.850  17.207  0.00  0.00    +0.000 A 
ATOM      9  C   UNL     1       4.783   4.546  16.593  0.00  0.00    +0.000 A 
ATOM     10  C   UNL     1       5.020   5.893  16.910  0.00  0.00    +0.000 A 
ATOM     11  C   UNL     1       4.214   6.535  17.857  0.00  0.00    +0.000 A 
ATOM     12  C   UNL     1       6.103   6.612  16.146  0.00  0.00    +0.000 C 
ATOM     13  N   UNL     1       7.340   5.835  15.998  0.00  0.00    +0.000 NA
ATOM     14  C   UNL     1       7.135   4.382  15.855  0.00  0.00    +0.000 C 
ATOM     15  C   UNL     1       5.697   3.918  15.576  0.00  0.00    +0.000 C 
ATOM     16  H   UNL     1       7.922   5.995  16.819  0.00  0.00    +0.000 HD
ENDBRANCH   3   6
BRANCH   1  20
ATOM     17  C   UNL     1      -0.858  11.601  21.702  0.00  0.00    +0.000 A 
ATOM     18  C   UNL     1      -0.577  10.549  22.601  0.00  0.00    +0.000 A 
ATOM     19  C   UNL     1       0.110   9.380  22.234  0.00  0.00    +0.000 A 
ATOM     20  C   UNL     1       0.569   9.208  20.931  0.00  0.00    +0.000 A 
ATOM     21  C   UNL     1       0.328  10.238  20.021  0.00  0.00    +0.000 A 
ATOM     22  C   UNL     1      -0.370  11.411  20.385  0.00  0.00    +0.000 A 
BRANCH  17  29
ATOM     23  C   UNL     1      -1.246  15.125  21.664  0.00  0.00    +0.000 C 
ATOM     24  C   UNL     1      -0.919  13.958  22.603  0.00  0.00    +0.000 C 
ATOM     25  C   UNL     1      -1.337  14.255  24.052  0.00  0.00    +0.000 C 
ATOM     26  C   UNL     1      -2.850  14.265  24.239  0.00  0.00    +0.000 C 
ATOM     27  C   UNL     1      -3.459  12.966  23.723  0.00  0.00    +0.000 C 
ATOM     28  C   UNL     1      -3.044  12.679  22.279  0.00  0.00    +0.000 C 
ATOM     29  N   UNL     1      -1.573  12.713  22.144  0.00  0.00    +0.000 N 
ENDBRANCH  17  29
BRANCH  22  30
ATOM     30  C   UNL     1      -0.560  12.342  19.310  0.00  0.00    +0.000 C 
ATOM     31  N   UNL     1      -0.773  13.114  18.467  0.00  0.00    +0.000 NA
ENDBRANCH  22  30
ENDBRANCH   1  20
TORSDOF 4
ENDMDL
MODEL 4
REMARK VINA RESULT:      -8.4      2.021     10.469
REMARK  Name = 
REMARK  5 active torsions:
REMARK  status: ('A' for Active; 'I' for Inactive)
REMARK    1  A    between atoms: C_1  and  C_2
REMARK    2  A    between atoms: N_7  and  C_8
REMARK    3  A    between atoms: C_11  and  C_12
REMARK    4  A    between atoms: C_14  and  C_15
REMARK    5  A    between atoms: C_28  and  C_29
REMARK                            x       y       z     vdW  Elec       q    Type
REMARK                         _______ _______ _______ _____ _____    ______ ____
ROOT
ATOM      1  C   UNL     1       0.840   8.654  21.375  0.00  0.00    +0.000 A 
ATOM      2  N   UNL     1      -0.169   9.394  20.978  0.00  0.00    +0.000 NA
ATOM      3  C   UNL     1      -0.290  10.315  21.997  0.00  0.00    +0.000 A 
ATOM      4  N   UNL     1       0.605  10.148  22.987  0.00  0.00    +0.000 NA
ATOM      5  O   UNL     1       1.353   9.048  22.573  0.00  0.00    +0.000 OA
ENDROOT
BRANCH   3   6
ATOM      6  C   UNL     1      -1.306  11.364  21.981  0.00  0.00    +0.000 A 
ATOM      7  C   UNL     1      -1.538  12.122  20.821  0.00  0.00    +0.000 A 
ATOM      8  C   UNL     1      -2.499  13.135  20.807  0.00  0.00    +0.000 A 
ATOM      9  C   UNL     1      -3.228  13.410  21.963  0.00  0.00    +0.000 A 
ATOM     10  C   UNL     1      -3.021  12.655  23.129  0.00  0.00    +0.000 A 
ATOM     11  C   UNL     1      -2.068  11.630  23.130  0.00  0.00    +0.000 A 
ATOM     12  C   UNL     1      -3.904  12.944  24.317  0.00  0.00    +0.000 C 
ATOM     13  N   UNL     1      -4.082  14.376  24.589  0.00  0.00    +0.000 NA
ATOM     14  C   UNL     1      -4.111  15.227  23.386  0.00  0.00    +0.000 C 
ATOM     15  C   UNL     1      -4.259  14.504  22.039  0.00  0.00    +0.000 C 
ATOM     16  H   UNL     1      -3.315  14.690  25.182  0.00  0.00    +0.000 HD
ENDBRANCH   3   6
BRANCH   1  20
ATOM     17  C   UNL     1       2.793   5.340  19.353  0.00  0.00    +0.000 A 
ATOM     18  C   UNL     1       1.984   5.156  20.496  0.00  0.00    +0.000 A 
ATOM     19  C   UNL     1       1.342   6.210  21.166  0.00  0.00    +0.000 A 
ATOM     20  C   UNL     1       1.467   7.519  20.711  0.00  0.00    +0.000 A 
ATOM     21  C   UNL     1       2.240   7.735  19.570  0.00  0.00    +0.000 A 
ATOM     22  C   UNL     1       2.895   6.679  18.899  0.00  0.00    +0.000 A 
BRANCH  17  29
ATOM     23  C   UNL     1       4.066   3.830  16.408  0.00  0.00    +0.000 C 
ATOM     24  C   UNL     1       2.982   3.658  17.479  0.00  0.00    +0.000 C 
ATOM     25  C   UNL     1       2.607   2.181  17.682  0.00  0.00    +0.000 C 
ATOM     26  C   UNL     1       3.712   1.380  18.361  0.00  0.00    +0.000 C 
ATOM     27  C   UNL     1       4.128   2.049  19.667  0.00  0.00    +0.000 C 
ATOM     28  C   UNL     1       4.506   3.515  19.457  0.00  0.00    +0.000 C 
ATOM     29  N   UNL     1       3.419   4.240  18.768  0.00  0.00    +0.000 N 
ENDBRANCH  17  29
BRANCH  22  30
ATOM     30  C   UNL     1       3.678   7.092  17.770  0.00  0.00    +0.000 C 
ATOM     31  N   UNL     1       4.364   7.440  16.899  0.00  0.00    +0.000 NA
ENDBRANCH  22  30
ENDBRANCH   1  20
TORSDOF 4
ENDMDL
MODEL 5
REMARK VINA RESULT:      -8.2      2.063     10.613
REMARK  Name = 
REMARK  5 active torsions:
REMARK  status: ('A' for Active; 'I' for Inactive)
REMARK    1  A    between atoms: C_1  and  C_2
REMARK    2  A    between atoms: N_7  and  C_8
REMARK    3  A    between atoms: C_11  and  C_12
REMARK    4  A    between atoms: C_14  and  C_15
REMARK    5  A    between atoms: C_28  and  C_29
REMARK                            x       y       z     vdW  Elec       q    Type
REMARK                         _______ _______ _______ _____ _____    ______ ____
ROOT
ATOM      1  C   UNL     1       0.698   8.853  21.403  0.00  0.00    +0.000 A 
ATOM      2  N   UNL     1      -0.248   9.642  20.952  0.00  0.00    +0.000 NA
ATOM      3  C   UNL     1      -0.526  10.438  22.043  0.00  0.00    +0.000 A 
ATOM      4  N   UNL     1       0.216  10.149  23.128  0.00  0.00    +0.000 NA
ATOM      5  O   UNL     1       1.028   9.100  22.702  0.00  0.00    +0.000 OA
ENDROOT
BRANCH   3   6
ATOM      6  C   UNL     1      -1.539  11.490  22.002  0.00  0.00    +0.000 A 
ATOM      7  C   UNL     1      -1.773  12.215  20.822  0.00  0.00    +0.000 A 
ATOM      8  C   UNL     1      -2.731  13.231  20.782  0.00  0.00    +0.000 A 
ATOM      9  C   UNL     1      -3.454  13.541  21.933  0.00  0.00    +0.000 A 
ATOM     10  C   UNL     1      -3.244  12.819  23.120  0.00  0.00    +0.000 A 
ATOM     11  C   UNL     1      -2.295  11.791  23.146  0.00  0.00    +0.000 A 
ATOM     12  C   UNL     1      -4.122  13.144  24.302  0.00  0.00    +0.000 C 
ATOM     13  N   UNL     1      -4.293  14.584  24.534  0.00  0.00    +0.000 NA
ATOM     14  C   UNL     1      -4.325  15.401  23.308  0.00  0.00    +0.000 C 
ATOM     15  C   UNL     1      -4.481  14.640  21.982  0.00  0.00    +0.000 C 
ATOM     16  H   UNL     1      -3.523  14.912  25.116  0.00  0.00    +0.000 HD
ENDBRANCH   3   6
BRANCH   1  20
ATOM     17  C   UNL     1       2.799   5.628  19.384  0.00  0.00    +0.000 A 
ATOM     18  C   UNL     1       2.770   6.945  18.876  0.00  0.00    +0.000 A 
ATOM     19  C   UNL     1       2.100   8.004  19.510  0.00  0.00    +0.000 A 
ATOM     20  C   UNL     1       1.426   7.799  20.710  0.00  0.00    +0.000 A 
ATOM     21  C   UNL     1       1.454   6.514  21.254  0.00  0.00    +0.000 A 
ATOM     22  C   UNL     1       2.119   5.444  20.614  0.00  0.00    +0.000 A 
BRANCH  17  29
ATOM     23  C   UNL     1       4.579   2.562  19.473  0.00  0.00    +0.000 C 
ATOM     24  C   UNL     1       4.748   4.044  19.119  0.00  0.00    +0.000 C 
ATOM     25  C   UNL     1       5.815   4.256  18.033  0.00  0.00    +0.000 C 
ATOM     26  C   UNL     1       5.368   3.756  16.664  0.00  0.00    +0.000 C 
ATOM     27  C   UNL     1       4.030   4.378  16.280  0.00  0.00    +0.000 C 
ATOM     28  C   UNL     1       2.972   4.160  17.362  0.00  0.00    +0.000 C 
ATOM     29  N   UNL     1       3.464   4.629  18.673  0.00  0.00    +0.000 N 
ENDBRANCH  17  29
BRANCH  22  30
ATOM     30  C   UNL     1       2.007   4.187  21.297  0.00  0.00    +0.000 C 
ATOM     31  N   UNL     1       1.963   3.192  21.895  0.00  0.00    +0.000 NA
ENDBRANCH  22  30
ENDBRANCH   1  20
TORSDOF 4
ENDMDL
MODEL 6
REMARK VINA RESULT:      -8.2      2.322      2.988
REMARK  Name = 
REMARK  5 active torsions:
REMARK  status: ('A' for Active; 'I' for Inactive)
REMARK    1  A    between atoms: C_1  and  C_2
REMARK    2  A    between atoms: N_7  and  C_8
REMARK    3  A    between atoms: C_11  and  C_12
REMARK    4  A    between atoms: C_14  and  C_15
REMARK    5  A    between atoms: C_28  and  C_29
REMARK                            x       y       z     vdW  Elec       q    Type
REMARK                         _______ _______ _______ _____ _____    ______ ____
ROOT
ATOM      1  C   UNL     1       0.936   9.155  20.411  0.00  0.00    +0.000 A 
ATOM      2  N   UNL     1       1.303   7.941  20.748  0.00  0.00    +0.000 NA
ATOM      3  C   UNL     1       2.029   7.528  19.652  0.00  0.00    +0.000 A 
ATOM      4  N   UNL     1       2.104   8.448  18.673  0.00  0.00    +0.000 NA
ATOM      5  O   UNL     1       1.381   9.526  19.178  0.00  0.00    +0.000 OA
ENDROOT
BRANCH   3   6
ATOM      6  C   UNL     1       2.649   6.206  19.581  0.00  0.00    +0.000 A 
ATOM      7  C   UNL     1       4.031   6.072  19.368  0.00  0.00    +0.000 A 
ATOM      8  C   UNL     1       4.624   4.811  19.286  0.00  0.00    +0.000 A 
ATOM      9  C   UNL     1       3.833   3.668  19.401  0.00  0.00    +0.000 A 
ATOM     10  C   UNL     1       2.452   3.781  19.628  0.00  0.00    +0.000 A 
ATOM     11  C   UNL     1       1.867   5.049  19.726  0.00  0.00    +0.000 A 
ATOM     12  C   UNL     1       1.669   2.508  19.831  0.00  0.00    +0.000 C 
ATOM     13  N   UNL     1       2.005   1.446  18.875  0.00  0.00    +0.000 NA
ATOM     14  C   UNL     1       3.420   1.419  18.464  0.00  0.00    +0.000 C 
ATOM     15  C   UNL     1       4.390   2.274  19.294  0.00  0.00    +0.000 C 
ATOM     16  H   UNL     1       1.433   1.571  18.040  0.00  0.00    +0.000 HD
ENDBRANCH   3   6
BRANCH   1  20
ATOM     17  C   UNL     1      -1.417  12.103  22.571  0.00  0.00    +0.000 A 
ATOM     18  C   UNL     1      -1.141  10.822  23.099  0.00  0.00    +0.000 A 
ATOM     19  C   UNL     1      -0.383   9.853  22.422  0.00  0.00    +0.000 A 
ATOM     20  C   UNL     1       0.158  10.126  21.169  0.00  0.00    +0.000 A 
ATOM     21  C   UNL     1      -0.076  11.390  20.626  0.00  0.00    +0.000 A 
ATOM     22  C   UNL     1      -0.845  12.364  21.301  0.00  0.00    +0.000 A 
BRANCH  17  29
ATOM     23  C   UNL     1      -4.231  12.587  24.674  0.00  0.00    +0.000 C 
ATOM     24  C   UNL     1      -3.685  12.951  23.288  0.00  0.00    +0.000 C 
ATOM     25  C   UNL     1      -4.234  14.298  22.791  0.00  0.00    +0.000 C 
ATOM     26  C   UNL     1      -3.671  15.485  23.564  0.00  0.00    +0.000 C 
ATOM     27  C   UNL     1      -2.146  15.451  23.556  0.00  0.00    +0.000 C 
ATOM     28  C   UNL     1      -1.606  14.111  24.056  0.00  0.00    +0.000 C 
ATOM     29  N   UNL     1      -2.206  12.993  23.300  0.00  0.00    +0.000 N 
ENDBRANCH  17  29
BRANCH  22  30
ATOM     30  C   UNL     1      -1.014  13.590  20.575  0.00  0.00    +0.000 C 
ATOM     31  N   UNL     1      -1.208  14.557  19.960  0.00  0.00    +0.000 NA
ENDBRANCH  22  30
ENDBRANCH   1  20
TORSDOF 4
ENDMDL
MODEL 7
REMARK VINA RESULT:      -8.2      2.507      4.344
REMARK  Name = 
REMARK  5 active torsions:
REMARK  status: ('A' for Active; 'I' for Inactive)
REMARK    1  A    between atoms: C_1  and  C_2
REMARK    2  A    between atoms: N_7  and  C_8
REMARK    3  A    between atoms: C_11  and  C_12
REMARK    4  A    between atoms: C_14  and  C_15
REMARK    5  A    between atoms: C_28  and  C_29
REMARK                            x       y       z     vdW  Elec       q    Type
REMARK                         _______ _______ _______ _____ _____    ______ ____
ROOT
ATOM      1  C   UNL     1      -0.025  10.620  21.870  0.00  0.00    +0.000 A 
ATOM      2  N   UNL     1       0.178   9.917  20.781  0.00  0.00    +0.000 NA
ATOM      3  C   UNL     1       1.105   8.982  21.191  0.00  0.00    +0.000 A 
ATOM      4  N   UNL     1       1.464   9.106  22.482  0.00  0.00    +0.000 NA
ATOM      5  O   UNL     1       0.714  10.190  22.930  0.00  0.00    +0.000 OA
ENDROOT
BRANCH   3   6
ATOM      6  C   UNL     1       1.635   7.963  20.288  0.00  0.00    +0.000 A 
ATOM      7  C   UNL     1       2.088   8.308  19.004  0.00  0.00    +0.000 A 
ATOM      8  C   UNL     1       2.583   7.335  18.133  0.00  0.00    +0.000 A 
ATOM      9  C   UNL     1       2.614   6.001  18.536  0.00  0.00    +0.000 A 
ATOM     10  C   UNL     1       2.179   5.637  19.822  0.00  0.00    +0.000 A 
ATOM     11  C   UNL     1       1.701   6.621  20.694  0.00  0.00    +0.000 A 
ATOM     12  C   UNL     1       2.323   4.192  20.227  0.00  0.00    +0.000 C 
ATOM     13  N   UNL     1       1.899   3.241  19.192  0.00  0.00    +0.000 NA
ATOM     14  C   UNL     1       2.169   3.681  17.811  0.00  0.00    +0.000 C 
ATOM     15  C   UNL     1       3.104   4.889  17.648  0.00  0.00    +0.000 C 
ATOM     16  H   UNL     1       0.896   3.086  19.287  0.00  0.00    +0.000 HD
ENDBRANCH   3   6
BRANCH   1  20
ATOM     17  C   UNL     1      -2.725  13.944  22.615  0.00  0.00    +0.000 A 
ATOM     18  C   UNL     1      -1.653  14.032  21.699  0.00  0.00    +0.000 A 
ATOM     19  C   UNL     1      -0.768  12.972  21.440  0.00  0.00    +0.000 A 
ATOM     20  C   UNL     1      -0.922  11.748  22.084  0.00  0.00    +0.000 A 
ATOM     21  C   UNL     1      -1.985  11.618  22.979  0.00  0.00    +0.000 A 
ATOM     22  C   UNL     1      -2.871  12.684  23.248  0.00  0.00    +0.000 A 
BRANCH  17  29
ATOM     23  C   UNL     1      -2.948  17.458  23.028  0.00  0.00    +0.000 C 
ATOM     24  C   UNL     1      -3.178  16.140  23.776  0.00  0.00    +0.000 C 
ATOM     25  C   UNL     1      -4.271  16.272  24.848  0.00  0.00    +0.000 C 
ATOM     26  C   UNL     1      -5.666  16.429  24.252  0.00  0.00    +0.000 C 
ATOM     27  C   UNL     1      -5.958  15.295  23.276  0.00  0.00    +0.000 C 
ATOM     28  C   UNL     1      -4.870  15.172  22.208  0.00  0.00    +0.000 C 
ATOM     29  N   UNL     1      -3.537  15.056  22.834  0.00  0.00    +0.000 N 
ENDBRANCH  17  29
BRANCH  22  30
ATOM     30  C   UNL     1      -3.878  12.382  24.225  0.00  0.00    +0.000 C 
ATOM     31  N   UNL     1      -4.729  12.192  24.993  0.00  0.00    +0.000 NA
ENDBRANCH  22  30
ENDBRANCH   1  20
TORSDOF 4
ENDMDL
MODEL 8
REMARK VINA RESULT:      -8.1      2.154     10.537
REMARK  Name = 
REMARK  5 active torsions:
REMARK  status: ('A' for Active; 'I' for Inactive)
REMARK    1  A    between atoms: C_1  and  C_2
REMARK    2  A    between atoms: N_7  and  C_8
REMARK    3  A    between atoms: C_11  and  C_12
REMARK    4  A    between atoms: C_14  and  C_15
REMARK    5  A    between atoms: C_28  and  C_29
REMARK                            x       y       z     vdW  Elec       q    Type
REMARK                         _______ _______ _______ _____ _____    ______ ____
ROOT
ATOM      1  C   UNL     1       1.077   9.357  19.741  0.00  0.00    +0.000 A 
ATOM      2  N   UNL     1       0.098   9.543  20.596  0.00  0.00    +0.000 NA
ATOM      3  C   UNL     1      -0.171  10.888  20.460  0.00  0.00    +0.000 A 
ATOM      4  N   UNL     1       0.613  11.510  19.561  0.00  0.00    +0.000 NA
ATOM      5  O   UNL     1       1.438  10.494  19.085  0.00  0.00    +0.000 OA
ENDROOT
BRANCH   3   6
ATOM      6  C   UNL     1      -1.215  11.555  21.235  0.00  0.00    +0.000 A 
ATOM      7  C   UNL     1      -1.250  11.446  22.635  0.00  0.00    +0.000 A 
ATOM      8  C   UNL     1      -2.254  12.071  23.378  0.00  0.00    +0.000 A 
ATOM      9  C   UNL     1      -3.246  12.799  22.721  0.00  0.00    +0.000 A 
ATOM     10  C   UNL     1      -3.221  12.931  21.323  0.00  0.00    +0.000 A 
ATOM     11  C   UNL     1      -2.202  12.317  20.587  0.00  0.00    +0.000 A 
ATOM     12  C   UNL     1      -4.270  13.805  20.683  0.00  0.00    +0.000 C 
ATOM     13  N   UNL     1      -5.623  13.590  21.211  0.00  0.00    +0.000 NA
ATOM     14  C   UNL     1      -5.673  13.258  22.646  0.00  0.00    +0.000 C 
ATOM     15  C   UNL     1      -4.378  13.476  23.445  0.00  0.00    +0.000 C 
ATOM     16  H   UNL     1      -6.055  12.827  20.692  0.00  0.00    +0.000 HD
ENDBRANCH   3   6
BRANCH   1  20
ATOM     17  C   UNL     1       3.111   5.632  18.800  0.00  0.00    +0.000 A 
ATOM     18  C   UNL     1       3.227   6.783  17.989  0.00  0.00    +0.000 A 
ATOM     19  C   UNL     1       2.581   7.998  18.272  0.00  0.00    +0.000 A 
ATOM     20  C   UNL     1       1.786   8.129  19.406  0.00  0.00    +0.000 A 
ATOM     21  C   UNL     1       1.666   7.019  20.243  0.00  0.00    +0.000 A 
ATOM     22  C   UNL     1       2.307   5.793  19.957  0.00  0.00    +0.000 A 
BRANCH  17  29
ATOM     23  C   UNL     1       4.595   3.719  16.210  0.00  0.00    +0.000 C 
ATOM     24  C   UNL     1       3.423   3.705  17.199  0.00  0.00    +0.000 C 
ATOM     25  C   UNL     1       3.004   2.274  17.571  0.00  0.00    +0.000 C 
ATOM     26  C   UNL     1       4.033   1.567  18.445  0.00  0.00    +0.000 C 
ATOM     27  C   UNL     1       4.353   2.407  19.677  0.00  0.00    +0.000 C 
ATOM     28  C   UNL     1       4.774   3.828  19.300  0.00  0.00    +0.000 C 
ATOM     29  N   UNL     1       3.762   4.457  18.428  0.00  0.00    +0.000 N 
ENDBRANCH  17  29
BRANCH  22  30
ATOM     30  C   UNL     1       2.038   4.751  20.906  0.00  0.00    +0.000 C 
ATOM     31  N   UNL     1       1.835   3.861  21.625  0.00  0.00    +0.000 NA
ENDBRANCH  22  30
ENDBRANCH   1  20
TORSDOF 4
ENDMDL
MODEL 9
REMARK VINA RESULT:      -8.1      2.746     10.339
REMARK  Name = 
REMARK  5 active torsions:
REMARK  status: ('A' for Active; 'I' for Inactive)
REMARK    1  A    between atoms: C_1  and  C_2
REMARK    2  A    between atoms: N_7  and  C_8
REMARK    3  A    between atoms: C_11  and  C_12
REMARK    4  A    between atoms: C_14  and  C_15
REMARK    5  A    between atoms: C_28  and  C_29
REMARK                            x       y       z     vdW  Elec       q    Type
REMARK                         _______ _______ _______ _____ _____    ______ ____
ROOT
ATOM      1  C   UNL     1       0.702   9.922  19.199  0.00  0.00    +0.000 A 
ATOM      2  N   UNL     1      -0.603   9.975  19.072  0.00  0.00    +0.000 NA
ATOM      3  C   UNL     1      -0.896  11.260  19.475  0.00  0.00    +0.000 A 
ATOM      4  N   UNL     1       0.185  11.972  19.842  0.00  0.00    +0.000 NA
ATOM      5  O   UNL     1       1.242  11.085  19.658  0.00  0.00    +0.000 OA
ENDROOT
BRANCH   3   6
ATOM      6  C   UNL     1      -2.262  11.778  19.495  0.00  0.00    +0.000 A 
ATOM      7  C   UNL     1      -2.714  12.567  20.566  0.00  0.00    +0.000 A 
ATOM      8  C   UNL     1      -4.024  13.052  20.596  0.00  0.00    +0.000 A 
ATOM      9  C   UNL     1      -4.900  12.736  19.558  0.00  0.00    +0.000 A 
ATOM     10  C   UNL     1      -4.463  11.959  18.472  0.00  0.00    +0.000 A 
ATOM     11  C   UNL     1      -3.145  11.491  18.441  0.00  0.00    +0.000 A 
ATOM     12  C   UNL     1      -5.433  11.728  17.341  0.00  0.00    +0.000 C 
ATOM     13  N   UNL     1      -6.788  11.377  17.785  0.00  0.00    +0.000 NA
ATOM     14  C   UNL     1      -7.210  12.032  19.036  0.00  0.00    +0.000 C 
ATOM     15  C   UNL     1      -6.334  13.193  19.530  0.00  0.00    +0.000 C 
ATOM     16  H   UNL     1      -6.832  10.369  17.923  0.00  0.00    +0.000 HD
ENDBRANCH   3   6
BRANCH   1  20
ATOM     17  C   UNL     1       3.345   6.570  18.378  0.00  0.00    +0.000 A 
ATOM     18  C   UNL     1       3.323   7.730  17.572  0.00  0.00    +0.000 A 
ATOM     19  C   UNL     1       2.479   8.826  17.817  0.00  0.00    +0.000 A 
ATOM     20  C   UNL     1       1.612   8.823  18.906  0.00  0.00    +0.000 A 
ATOM     21  C   UNL     1       1.624   7.702  19.737  0.00  0.00    +0.000 A 
ATOM     22  C   UNL     1       2.464   6.595  19.488  0.00  0.00    +0.000 A 
BRANCH  17  29
ATOM     23  C   UNL     1       5.163   3.726  19.463  0.00  0.00    +0.000 C 
ATOM     24  C   UNL     1       5.357   5.127  18.870  0.00  0.00    +0.000 C 
ATOM     25  C   UNL     1       6.640   5.220  18.028  0.00  0.00    +0.000 C 
ATOM     26  C   UNL     1       6.543   4.443  16.720  0.00  0.00    +0.000 C 
ATOM     27  C   UNL     1       5.310   4.875  15.933  0.00  0.00    +0.000 C 
ATOM     28  C   UNL     1       4.038   4.775  16.775  0.00  0.00    +0.000 C 
ATOM     29  N   UNL     1       4.193   5.515  18.044  0.00  0.00    +0.000 N 
ENDBRANCH  17  29
BRANCH  22  30
ATOM     30  C   UNL     1       2.312   5.517  20.423  0.00  0.00    +0.000 C 
ATOM     31  N   UNL     1       2.128   4.672  21.199  0.00  0.00    +0.000 NA
ENDBRANCH  22  30
ENDBRANCH   1  20
TORSDOF 4
ENDMDL
