MODEL 1
REMARK VINA RESULT:      -8.2      0.000      0.000
REMARK  Name = 
REMARK  8 active torsions:
REMARK  status: ('A' for Active; 'I' for Inactive)
REMARK    1  A    between atoms: C_1  and  O_2
REMARK    2  A    between atoms: O_2  and  C_3
REMARK    3  A    between atoms: C_8  and  N_9
REMARK    4  A    between atoms: C_10  and  C_12
REMARK    5  A    between atoms: C_17  and  N_18
REMARK    6  A    between atoms: C_19  and  C_21
REMARK    7  A    between atoms: C_27  and  N_28
REMARK    8  A    between atoms: C_29  and  C_31
REMARK                            x       y       z     vdW  Elec       q    Type
REMARK                         _______ _______ _______ _____ _____    ______ ____
ROOT
ATOM      1  N   UNL     1      -1.088   9.999  19.441  0.00  0.00    +0.000 N 
ATOM      2  C   UNL     1      -1.580  11.215  18.978  0.00  0.00    +0.000 C 
ATOM      3  O   UNL     1      -1.282  12.309  19.455  0.00  0.00    +0.000 OA
ATOM      4  H   UNL     1      -1.152   9.171  18.846  0.00  0.00    +0.000 HD
ENDROOT
BRANCH   2   5
ATOM      5  C   UNL     1      -2.504  11.205  17.789  0.00  0.00    +0.000 A 
ATOM      6  C   UNL     1      -2.108  10.565  16.602  0.00  0.00    +0.000 A 
ATOM      7  C   UNL     1      -2.992  10.486  15.522  0.00  0.00    +0.000 A 
ATOM      8 CL   UNL     1      -2.501   9.705  14.068  0.00  0.00    +0.000 Cl
ATOM      9  C   UNL     1      -4.273  11.017  15.611  0.00  0.00    +0.000 A 
ATOM     10  C   UNL     1      -4.690  11.611  16.800  0.00  0.00    +0.000 A 
ATOM     11  C   UNL     1      -3.825  11.704  17.905  0.00  0.00    +0.000 A 
BRANCH  11  12
ATOM     12  N   UNL     1      -4.274  12.343  19.079  0.00  0.00    +0.000 N 
ATOM     13  C   UNL     1      -5.431  12.006  19.767  0.00  0.00    +0.000 C 
ATOM     14  O   UNL     1      -6.115  11.017  19.510  0.00  0.00    +0.000 OA
ATOM     15  H   UNL     1      -3.578  12.834  19.642  0.00  0.00    +0.000 HD
BRANCH  13  16
ATOM     16  C   UNL     1      -5.763  12.909  20.852  0.00  0.00    +0.000 A 
ATOM     17  C   UNL     1      -6.064  14.257  20.842  0.00  0.00    +0.000 A 
ATOM     18  C   UNL     1      -6.199  14.661  22.189  0.00  0.00    +0.000 A 
ATOM     19  C   UNL     1      -5.979  13.533  22.946  0.00  0.00    +0.000 A 
ATOM     20  O   UNL     1      -5.734  12.461  22.148  0.00  0.00    +0.000 OA
ENDBRANCH  13  16
ENDBRANCH  11  12
ENDBRANCH   2   5
BRANCH   1  26
ATOM     21  C   UNL     1       0.829   9.066  20.710  0.00  0.00    +0.000 A 
ATOM     22  C   UNL     1       1.447   8.813  21.953  0.00  0.00    +0.000 A 
ATOM     23  C   UNL     1       0.935   9.346  23.133  0.00  0.00    +0.000 A 
ATOM     24  C   UNL     1      -0.227  10.098  23.091  0.00  0.00    +0.000 A 
ATOM     25  C   UNL     1      -0.885  10.305  21.876  0.00  0.00    +0.000 A 
ATOM     26  C   UNL     1      -0.376   9.806  20.665  0.00  0.00    +0.000 A 
BRANCH  21  28
ATOM     27  N   UNL     1       2.242   7.371  19.655  0.00  0.00    +0.000 N 
ATOM     28  C   UNL     1       1.472   8.518  19.471  0.00  0.00    +0.000 C 
ATOM     29  O   UNL     1       1.264   9.104  18.413  0.00  0.00    +0.000 OA
ATOM     30  H   UNL     1       2.416   7.066  20.601  0.00  0.00    +0.000 HD
BRANCH  27  36
ATOM     31  C   UNL     1       2.460   5.206  18.500  0.00  0.00    +0.000 A 
ATOM     32  C   UNL     1       3.102   4.405  17.542  0.00  0.00    +0.000 A 
ATOM     33  C   UNL     1       4.127   4.919  16.751  0.00  0.00    +0.000 A 
ATOM     34  C   UNL     1       4.520   6.239  16.916  0.00  0.00    +0.000 A 
ATOM     35  C   UNL     1       3.878   7.052  17.856  0.00  0.00    +0.000 A 
ATOM     36  C   UNL     1       2.845   6.557  18.663  0.00  0.00    +0.000 A 
BRANCH  31  38
ATOM     37  C   UNL     1       1.502   3.106  19.100  0.00  0.00    +0.000 C 
ATOM     38  O   UNL     1       1.559   4.515  19.271  0.00  0.00    +0.000 OA
ENDBRANCH  31  38
ENDBRANCH  27  36
ENDBRANCH  21  28
ENDBRANCH   1  26
TORSDOF 7
ENDMDL
MODEL 2
REMARK VINA RESULT:      -7.4      4.724      7.315
REMARK  Name = 
REMARK  8 active torsions:
REMARK  status: ('A' for Active; 'I' for Inactive)
REMARK    1  A    between atoms: C_1  and  O_2
REMARK    2  A    between atoms: O_2  and  C_3
REMARK    3  A    between atoms: C_8  and  N_9
REMARK    4  A    between atoms: C_10  and  C_12
REMARK    5  A    between atoms: C_17  and  N_18
REMARK    6  A    between atoms: C_19  and  C_21
REMARK    7  A    between atoms: C_27  and  N_28
REMARK    8  A    between atoms: C_29  and  C_31
REMARK                            x       y       z     vdW  Elec       q    Type
REMARK                         _______ _______ _______ _____ _____    ______ ____
ROOT
ATOM      1  N   UNL     1      -1.319  12.580  22.983  0.00  0.00    +0.000 N 
ATOM      2  C   UNL     1      -2.590  12.733  23.525  0.00  0.00    +0.000 C 
ATOM      3  O   UNL     1      -3.361  11.802  23.754  0.00  0.00    +0.000 OA
ATOM      4  H   UNL     1      -0.639  13.339  23.072  0.00  0.00    +0.000 HD
ENDROOT
BRANCH   2   5
ATOM      5  C   UNL     1      -3.045  14.118  23.902  0.00  0.00    +0.000 A 
ATOM      6  C   UNL     1      -2.275  14.889  24.790  0.00  0.00    +0.000 A 
ATOM      7  C   UNL     1      -2.651  16.204  25.081  0.00  0.00    +0.000 A 
ATOM      8 CL   UNL     1      -1.708  17.143  26.174  0.00  0.00    +0.000 Cl
ATOM      9  C   UNL     1      -3.772  16.771  24.488  0.00  0.00    +0.000 A 
ATOM     10  C   UNL     1      -4.514  16.030  23.570  0.00  0.00    +0.000 A 
ATOM     11  C   UNL     1      -4.159  14.706  23.254  0.00  0.00    +0.000 A 
BRANCH  11  12
ATOM     12  N   UNL     1      -4.956  13.979  22.346  0.00  0.00    +0.000 N 
ATOM     13  C   UNL     1      -6.078  13.242  22.695  0.00  0.00    +0.000 C 
ATOM     14  O   UNL     1      -6.586  13.261  23.814  0.00  0.00    +0.000 OA
ATOM     15  H   UNL     1      -4.928  14.263  21.366  0.00  0.00    +0.000 HD
BRANCH  13  16
ATOM     16  C   UNL     1      -6.635  12.455  21.612  0.00  0.00    +0.000 A 
ATOM     17  C   UNL     1      -6.759  12.736  20.265  0.00  0.00    +0.000 A 
ATOM     18  C   UNL     1      -7.476  11.666  19.684  0.00  0.00    +0.000 A 
ATOM     19  C   UNL     1      -7.744  10.789  20.709  0.00  0.00    +0.000 A 
ATOM     20  O   UNL     1      -7.223  11.245  21.878  0.00  0.00    +0.000 OA
ENDBRANCH  13  16
ENDBRANCH  11  12
ENDBRANCH   2   5
BRANCH   1  26
ATOM     21  C   UNL     1      -0.497  11.322  21.009  0.00  0.00    +0.000 A 
ATOM     22  C   UNL     1      -0.093  10.095  20.441  0.00  0.00    +0.000 A 
ATOM     23  C   UNL     1       0.082   8.961  21.228  0.00  0.00    +0.000 A 
ATOM     24  C   UNL     1      -0.192   9.024  22.584  0.00  0.00    +0.000 A 
ATOM     25  C   UNL     1      -0.653  10.216  23.151  0.00  0.00    +0.000 A 
ATOM     26  C   UNL     1      -0.810  11.386  22.387  0.00  0.00    +0.000 A 
BRANCH  21  28
ATOM     27  N   UNL     1       0.345  13.520  20.342  0.00  0.00    +0.000 N 
ATOM     28  C   UNL     1      -0.600  12.521  20.115  0.00  0.00    +0.000 C 
ATOM     29  O   UNL     1      -1.483  12.522  19.261  0.00  0.00    +0.000 OA
ATOM     30  H   UNL     1       0.939  13.430  21.154  0.00  0.00    +0.000 HD
BRANCH  27  36
ATOM     31  C   UNL     1       1.870  14.965  19.059  0.00  0.00    +0.000 A 
ATOM     32  C   UNL     1       2.095  16.150  18.338  0.00  0.00    +0.000 A 
ATOM     33  C   UNL     1       1.068  17.067  18.130  0.00  0.00    +0.000 A 
ATOM     34  C   UNL     1      -0.194  16.806  18.647  0.00  0.00    +0.000 A 
ATOM     35  C   UNL     1      -0.435  15.623  19.353  0.00  0.00    +0.000 A 
ATOM     36  C   UNL     1       0.583  14.686  19.574  0.00  0.00    +0.000 A 
BRANCH  31  38
ATOM     37  C   UNL     1       3.874  14.661  20.316  0.00  0.00    +0.000 C 
ATOM     38  O   UNL     1       3.011  14.234  19.271  0.00  0.00    +0.000 OA
ENDBRANCH  31  38
ENDBRANCH  27  36
ENDBRANCH  21  28
ENDBRANCH   1  26
TORSDOF 7
ENDMDL
MODEL 3
REMARK VINA RESULT:      -7.4      4.181      7.830
REMARK  Name = 
REMARK  8 active torsions:
REMARK  status: ('A' for Active; 'I' for Inactive)
REMARK    1  A    between atoms: C_1  and  O_2
REMARK    2  A    between atoms: O_2  and  C_3
REMARK    3  A    between atoms: C_8  and  N_9
REMARK    4  A    between atoms: C_10  and  C_12
REMARK    5  A    between atoms: C_17  and  N_18
REMARK    6  A    between atoms: C_19  and  C_21
REMARK    7  A    between atoms: C_27  and  N_28
REMARK    8  A    between atoms: C_29  and  C_31
REMARK                            x       y       z     vdW  Elec       q    Type
REMARK                         _______ _______ _______ _____ _____    ______ ____
ROOT
ATOM      1  N   UNL     1      -3.607  12.766  20.197  0.00  0.00    +0.000 N 
ATOM      2  C   UNL     1      -4.496  12.783  21.266  0.00  0.00    +0.000 C 
ATOM      3  O   UNL     1      -5.494  12.068  21.347  0.00  0.00    +0.000 OA
ATOM      4  H   UNL     1      -2.675  13.170  20.311  0.00  0.00    +0.000 HD
ENDROOT
BRANCH   2   5
ATOM      5  C   UNL     1      -4.205  13.700  22.424  0.00  0.00    +0.000 A 
ATOM      6  C   UNL     1      -5.022  14.822  22.650  0.00  0.00    +0.000 A 
ATOM      7  C   UNL     1      -4.804  15.631  23.769  0.00  0.00    +0.000 A 
ATOM      8 CL   UNL     1      -5.803  17.007  24.039  0.00  0.00    +0.000 Cl
ATOM      9  C   UNL     1      -3.796  15.331  24.679  0.00  0.00    +0.000 A 
ATOM     10  C   UNL     1      -3.013  14.195  24.487  0.00  0.00    +0.000 A 
ATOM     11  C   UNL     1      -3.210  13.360  23.374  0.00  0.00    +0.000 A 
BRANCH  11  12
ATOM     12  N   UNL     1      -2.374  12.238  23.199  0.00  0.00    +0.000 N 
ATOM     13  C   UNL     1      -1.025  12.301  22.879  0.00  0.00    +0.000 C 
ATOM     14  O   UNL     1      -0.377  13.345  22.856  0.00  0.00    +0.000 OA
ATOM     15  H   UNL     1      -2.660  11.365  23.646  0.00  0.00    +0.000 HD
BRANCH  13  16
ATOM     16  C   UNL     1      -0.419  11.014  22.597  0.00  0.00    +0.000 A 
ATOM     17  C   UNL     1      -0.779   9.741  22.996  0.00  0.00    +0.000 A 
ATOM     18  C   UNL     1       0.223   8.862  22.527  0.00  0.00    +0.000 A 
ATOM     19  C   UNL     1       1.136   9.649  21.863  0.00  0.00    +0.000 A 
ATOM     20  O   UNL     1       0.749  10.951  21.881  0.00  0.00    +0.000 OA
ENDBRANCH  13  16
ENDBRANCH  11  12
ENDBRANCH   2   5
BRANCH   1  26
ATOM     21  C   UNL     1      -2.758  11.777  18.086  0.00  0.00    +0.000 A 
ATOM     22  C   UNL     1      -3.029  11.233  16.812  0.00  0.00    +0.000 A 
ATOM     23  C   UNL     1      -4.332  10.951  16.412  0.00  0.00    +0.000 A 
ATOM     24  C   UNL     1      -5.385  11.255  17.260  0.00  0.00    +0.000 A 
ATOM     25  C   UNL     1      -5.137  11.852  18.498  0.00  0.00    +0.000 A 
ATOM     26  C   UNL     1      -3.831  12.120  18.942  0.00  0.00    +0.000 A 
BRANCH  21  28
ATOM     27  N   UNL     1      -0.756  13.181  18.030  0.00  0.00    +0.000 N 
ATOM     28  C   UNL     1      -1.327  11.992  18.478  0.00  0.00    +0.000 C 
ATOM     29  O   UNL     1      -0.787  11.125  19.160  0.00  0.00    +0.000 OA
ATOM     30  H   UNL     1      -1.287  13.745  17.383  0.00  0.00    +0.000 HD
BRANCH  27  36
ATOM     31  C   UNL     1       0.637  15.020  18.893  0.00  0.00    +0.000 A 
ATOM     32  C   UNL     1       1.908  15.548  19.170  0.00  0.00    +0.000 A 
ATOM     33  C   UNL     1       3.061  14.809  18.914  0.00  0.00    +0.000 A 
ATOM     34  C   UNL     1       2.949  13.535  18.375  0.00  0.00    +0.000 A 
ATOM     35  C   UNL     1       1.687  12.992  18.110  0.00  0.00    +0.000 A 
ATOM     36  C   UNL     1       0.514  13.716  18.359  0.00  0.00    +0.000 A 
BRANCH  31  38
ATOM     37  C   UNL     1      -0.500  16.984  18.160  0.00  0.00    +0.000 C 
ATOM     38  O   UNL     1      -0.380  15.919  19.093  0.00  0.00    +0.000 OA
ENDBRANCH  31  38
ENDBRANCH  27  36
ENDBRANCH  21  28
ENDBRANCH   1  26
TORSDOF 7
ENDMDL
MODEL 4
REMARK VINA RESULT:      -7.4      4.705      7.263
REMARK  Name = 
REMARK  8 active torsions:
REMARK  status: ('A' for Active; 'I' for Inactive)
REMARK    1  A    between atoms: C_1  and  O_2
REMARK    2  A    between atoms: O_2  and  C_3
REMARK    3  A    between atoms: C_8  and  N_9
REMARK    4  A    between atoms: C_10  and  C_12
REMARK    5  A    between atoms: C_17  and  N_18
REMARK    6  A    between atoms: C_19  and  C_21
REMARK    7  A    between atoms: C_27  and  N_28
REMARK    8  A    between atoms: C_29  and  C_31
REMARK                            x       y       z     vdW  Elec       q    Type
REMARK                         _______ _______ _______ _____ _____    ______ ____
ROOT
ATOM      1  N   UNL     1      -1.130  12.600  22.910  0.00  0.00    +0.000 N 
ATOM      2  C   UNL     1      -2.409  12.715  23.444  0.00  0.00    +0.000 C 
ATOM      3  O   UNL     1      -3.147  11.760  23.683  0.00  0.00    +0.000 OA
ATOM      4  H   UNL     1      -0.479  13.384  22.991  0.00  0.00    +0.000 HD
ENDROOT
BRANCH   2   5
ATOM      5  C   UNL     1      -2.916  14.088  23.797  0.00  0.00    +0.000 A 
ATOM      6  C   UNL     1      -2.182  14.897  24.682  0.00  0.00    +0.000 A 
ATOM      7  C   UNL     1      -2.606  16.202  24.951  0.00  0.00    +0.000 A 
ATOM      8 CL   UNL     1      -1.707  17.188  26.040  0.00  0.00    +0.000 Cl
ATOM      9  C   UNL     1      -3.742  16.721  24.340  0.00  0.00    +0.000 A 
ATOM     10  C   UNL     1      -4.448  15.942  23.426  0.00  0.00    +0.000 A 
ATOM     11  C   UNL     1      -4.044  14.628  23.132  0.00  0.00    +0.000 A 
BRANCH  11  12
ATOM     12  N   UNL     1      -4.806  13.861  22.226  0.00  0.00    +0.000 N 
ATOM     13  C   UNL     1      -5.988  13.208  22.545  0.00  0.00    +0.000 C 
ATOM     14  O   UNL     1      -6.578  13.348  23.614  0.00  0.00    +0.000 OA
ATOM     15  H   UNL     1      -4.688  14.057  21.231  0.00  0.00    +0.000 HD
BRANCH  13  16
ATOM     16  C   UNL     1      -6.501  12.356  21.490  0.00  0.00    +0.000 A 
ATOM     17  C   UNL     1      -6.362  12.437  20.118  0.00  0.00    +0.000 A 
ATOM     18  C   UNL     1      -7.159  11.413  19.560  0.00  0.00    +0.000 A 
ATOM     19  C   UNL     1      -7.736  10.760  20.625  0.00  0.00    +0.000 A 
ATOM     20  O   UNL     1      -7.330  11.308  21.800  0.00  0.00    +0.000 OA
ENDBRANCH  13  16
ENDBRANCH  11  12
ENDBRANCH   2   5
BRANCH   1  26
ATOM     21  C   UNL     1       0.047  11.433  21.064  0.00  0.00    +0.000 A 
ATOM     22  C   UNL     1       0.491  10.224  20.489  0.00  0.00    +0.000 A 
ATOM     23  C   UNL     1       0.403   9.021  21.183  0.00  0.00    +0.000 A 
ATOM     24  C   UNL     1      -0.176   9.003  22.442  0.00  0.00    +0.000 A 
ATOM     25  C   UNL     1      -0.678  10.181  22.999  0.00  0.00    +0.000 A 
ATOM     26  C   UNL     1      -0.575  11.416  22.335  0.00  0.00    +0.000 A 
BRANCH  21  28
ATOM     27  N   UNL     1       1.499  13.281  20.386  0.00  0.00    +0.000 N 
ATOM     28  C   UNL     1       0.235  12.702  20.288  0.00  0.00    +0.000 C 
ATOM     29  O   UNL     1      -0.716  13.116  19.632  0.00  0.00    +0.000 OA
ATOM     30  H   UNL     1       2.147  12.889  21.054  0.00  0.00    +0.000 HD
BRANCH  27  36
ATOM     31  C   UNL     1       1.760  15.711  20.090  0.00  0.00    +0.000 A 
ATOM     32  C   UNL     1       2.237  16.794  19.334  0.00  0.00    +0.000 A 
ATOM     33  C   UNL     1       2.948  16.585  18.155  0.00  0.00    +0.000 A 
ATOM     34  C   UNL     1       3.184  15.288  17.721  0.00  0.00    +0.000 A 
ATOM     35  C   UNL     1       2.727  14.201  18.473  0.00  0.00    +0.000 A 
ATOM     36  C   UNL     1       2.010  14.387  19.663  0.00  0.00    +0.000 A 
BRANCH  31  38
ATOM     37  C   UNL     1      -0.332  16.550  20.870  0.00  0.00    +0.000 C 
ATOM     38  O   UNL     1       0.983  16.093  21.155  0.00  0.00    +0.000 OA
ENDBRANCH  31  38
ENDBRANCH  27  36
ENDBRANCH  21  28
ENDBRANCH   1  26
TORSDOF 7
ENDMDL
MODEL 5
REMARK VINA RESULT:      -7.3      5.414      9.184
REMARK  Name = 
REMARK  8 active torsions:
REMARK  status: ('A' for Active; 'I' for Inactive)
REMARK    1  A    between atoms: C_1  and  O_2
REMARK    2  A    between atoms: O_2  and  C_3
REMARK    3  A    between atoms: C_8  and  N_9
REMARK    4  A    between atoms: C_10  and  C_12
REMARK    5  A    between atoms: C_17  and  N_18
REMARK    6  A    between atoms: C_19  and  C_21
REMARK    7  A    between atoms: C_27  and  N_28
REMARK    8  A    between atoms: C_29  and  C_31
REMARK                            x       y       z     vdW  Elec       q    Type
REMARK                         _______ _______ _______ _____ _____    ______ ____
ROOT
ATOM      1  N   UNL     1       0.688  12.906  18.495  0.00  0.00    +0.000 N 
ATOM      2  C   UNL     1       1.229  13.960  19.223  0.00  0.00    +0.000 C 
ATOM      3  O   UNL     1       2.002  13.822  20.170  0.00  0.00    +0.000 OA
ATOM      4  H   UNL     1       0.284  13.086  17.573  0.00  0.00    +0.000 HD
ENDROOT
BRANCH   2   5
ATOM      5  C   UNL     1       0.888  15.367  18.807  0.00  0.00    +0.000 A 
ATOM      6  C   UNL     1      -0.425  15.843  18.965  0.00  0.00    +0.000 A 
ATOM      7  C   UNL     1      -0.728  17.172  18.654  0.00  0.00    +0.000 A 
ATOM      8 CL   UNL     1      -2.338  17.751  18.844  0.00  0.00    +0.000 Cl
ATOM      9  C   UNL     1       0.260  18.041  18.204  0.00  0.00    +0.000 A 
ATOM     10  C   UNL     1       1.573  17.589  18.090  0.00  0.00    +0.000 A 
ATOM     11  C   UNL     1       1.909  16.259  18.398  0.00  0.00    +0.000 A 
BRANCH  11  12
ATOM     12  N   UNL     1       3.244  15.832  18.237  0.00  0.00    +0.000 N 
ATOM     13  C   UNL     1       4.285  16.158  19.094  0.00  0.00    +0.000 C 
ATOM     14  O   UNL     1       4.130  16.733  20.169  0.00  0.00    +0.000 OA
ATOM     15  H   UNL     1       3.403  14.991  17.682  0.00  0.00    +0.000 HD
BRANCH  13  16
ATOM     16  C   UNL     1       5.593  15.733  18.632  0.00  0.00    +0.000 A 
ATOM     17  C   UNL     1       6.812  16.382  18.656  0.00  0.00    +0.000 A 
ATOM     18  C   UNL     1       7.733  15.557  17.975  0.00  0.00    +0.000 A 
ATOM     19  C   UNL     1       7.025  14.446  17.578  0.00  0.00    +0.000 A 
ATOM     20  O   UNL     1       5.732  14.531  17.987  0.00  0.00    +0.000 OA
ENDBRANCH  13  16
ENDBRANCH  11  12
ENDBRANCH   2   5
BRANCH   1  26
ATOM     21  C   UNL     1      -0.095  11.009  19.889  0.00  0.00    +0.000 A 
ATOM     22  C   UNL     1       0.057   9.667  20.297  0.00  0.00    +0.000 A 
ATOM     23  C   UNL     1       0.957   8.818  19.659  0.00  0.00    +0.000 A 
ATOM     24  C   UNL     1       1.752   9.312  18.638  0.00  0.00    +0.000 A 
ATOM     25  C   UNL     1       1.658  10.655  18.265  0.00  0.00    +0.000 A 
ATOM     26  C   UNL     1       0.737  11.528  18.869  0.00  0.00    +0.000 A 
BRANCH  21  28
ATOM     27  N   UNL     1      -1.062  11.866  21.966  0.00  0.00    +0.000 N 
ATOM     28  C   UNL     1      -1.131  11.848  20.574  0.00  0.00    +0.000 C 
ATOM     29  O   UNL     1      -1.935  12.450  19.868  0.00  0.00    +0.000 OA
ATOM     30  H   UNL     1      -0.418  11.232  22.414  0.00  0.00    +0.000 HD
BRANCH  27  36
ATOM     31  C   UNL     1      -1.295  13.904  23.329  0.00  0.00    +0.000 A 
ATOM     32  C   UNL     1      -2.029  14.663  24.256  0.00  0.00    +0.000 A 
ATOM     33  C   UNL     1      -3.256  14.212  24.737  0.00  0.00    +0.000 A 
ATOM     34  C   UNL     1      -3.756  12.994  24.298  0.00  0.00    +0.000 A 
ATOM     35  C   UNL     1      -3.042  12.237  23.364  0.00  0.00    +0.000 A 
ATOM     36  C   UNL     1      -1.806  12.669  22.865  0.00  0.00    +0.000 A 
BRANCH  31  38
ATOM     37  C   UNL     1      -0.015  15.790  22.627  0.00  0.00    +0.000 C 
ATOM     38  O   UNL     1      -0.061  14.433  23.049  0.00  0.00    +0.000 OA
ENDBRANCH  31  38
ENDBRANCH  27  36
ENDBRANCH  21  28
ENDBRANCH   1  26
TORSDOF 7
ENDMDL
MODEL 6
REMARK VINA RESULT:      -7.3      5.485      9.344
REMARK  Name = 
REMARK  8 active torsions:
REMARK  status: ('A' for Active; 'I' for Inactive)
REMARK    1  A    between atoms: C_1  and  O_2
REMARK    2  A    between atoms: O_2  and  C_3
REMARK    3  A    between atoms: C_8  and  N_9
REMARK    4  A    between atoms: C_10  and  C_12
REMARK    5  A    between atoms: C_17  and  N_18
REMARK    6  A    between atoms: C_19  and  C_21
REMARK    7  A    between atoms: C_27  and  N_28
REMARK    8  A    between atoms: C_29  and  C_31
REMARK                            x       y       z     vdW  Elec       q    Type
REMARK                         _______ _______ _______ _____ _____    ______ ____
ROOT
ATOM      1  N   UNL     1       0.399  13.162  18.744  0.00  0.00    +0.000 N 
ATOM      2  C   UNL     1       1.098  14.236  19.283  0.00  0.00    +0.000 C 
ATOM      3  O   UNL     1       1.977  14.131  20.138  0.00  0.00    +0.000 OA
ATOM      4  H   UNL     1      -0.108  13.281  17.865  0.00  0.00    +0.000 HD
ENDROOT
BRANCH   2   5
ATOM      5  C   UNL     1       0.801  15.617  18.761  0.00  0.00    +0.000 A 
ATOM      6  C   UNL     1      -0.496  16.145  18.883  0.00  0.00    +0.000 A 
ATOM      7  C   UNL     1      -0.758  17.456  18.472  0.00  0.00    +0.000 A 
ATOM      8 CL   UNL     1      -2.349  18.098  18.618  0.00  0.00    +0.000 Cl
ATOM      9  C   UNL     1       0.255  18.257  17.957  0.00  0.00    +0.000 A 
ATOM     10  C   UNL     1       1.553  17.756  17.877  0.00  0.00    +0.000 A 
ATOM     11  C   UNL     1       1.849  16.443  18.286  0.00  0.00    +0.000 A 
BRANCH  11  12
ATOM     12  N   UNL     1       3.169  15.964  18.157  0.00  0.00    +0.000 N 
ATOM     13  C   UNL     1       4.276  16.526  18.776  0.00  0.00    +0.000 C 
ATOM     14  O   UNL     1       4.208  17.416  19.621  0.00  0.00    +0.000 OA
ATOM     15  H   UNL     1       3.289  14.987  17.887  0.00  0.00    +0.000 HD
BRANCH  13  16
ATOM     16  C   UNL     1       5.544  15.954  18.364  0.00  0.00    +0.000 A 
ATOM     17  C   UNL     1       5.842  14.714  17.832  0.00  0.00    +0.000 A 
ATOM     18  C   UNL     1       7.248  14.640  17.719  0.00  0.00    +0.000 A 
ATOM     19  C   UNL     1       7.729  15.843  18.185  0.00  0.00    +0.000 A 
ATOM     20  O   UNL     1       6.706  16.654  18.560  0.00  0.00    +0.000 OA
ENDBRANCH  13  16
ENDBRANCH  11  12
ENDBRANCH   2   5
BRANCH   1  26
ATOM     21  C   UNL     1      -0.367  11.467  20.386  0.00  0.00    +0.000 A 
ATOM     22  C   UNL     1      -0.255  10.165  20.920  0.00  0.00    +0.000 A 
ATOM     23  C   UNL     1       0.542   9.203  20.309  0.00  0.00    +0.000 A 
ATOM     24  C   UNL     1       1.276   9.541  19.184  0.00  0.00    +0.000 A 
ATOM     25  C   UNL     1       1.225  10.843  18.680  0.00  0.00    +0.000 A 
ATOM     26  C   UNL     1       0.405  11.828  19.257  0.00  0.00    +0.000 A 
BRANCH  21  28
ATOM     27  N   UNL     1      -1.250  12.443  22.448  0.00  0.00    +0.000 N 
ATOM     28  C   UNL     1      -1.298  12.433  21.055  0.00  0.00    +0.000 C 
ATOM     29  O   UNL     1      -2.005  13.135  20.337  0.00  0.00    +0.000 OA
ATOM     30  H   UNL     1      -0.701  11.730  22.905  0.00  0.00    +0.000 HD
BRANCH  27  36
ATOM     31  C   UNL     1      -3.277  13.202  23.621  0.00  0.00    +0.000 A 
ATOM     32  C   UNL     1      -3.910  14.125  24.470  0.00  0.00    +0.000 A 
ATOM     33  C   UNL     1      -3.201  15.184  25.031  0.00  0.00    +0.000 A 
ATOM     34  C   UNL     1      -1.851  15.330  24.744  0.00  0.00    +0.000 A 
ATOM     35  C   UNL     1      -1.206  14.408  23.913  0.00  0.00    +0.000 A 
ATOM     36  C   UNL     1      -1.898  13.335  23.337  0.00  0.00    +0.000 A 
BRANCH  31  38
ATOM     37  C   UNL     1      -5.046  12.777  22.079  0.00  0.00    +0.000 C 
ATOM     38  O   UNL     1      -4.142  12.295  23.064  0.00  0.00    +0.000 OA
ENDBRANCH  31  38
ENDBRANCH  27  36
ENDBRANCH  21  28
ENDBRANCH   1  26
TORSDOF 7
ENDMDL
MODEL 7
REMARK VINA RESULT:      -7.3      3.894      8.382
REMARK  Name = 
REMARK  8 active torsions:
REMARK  status: ('A' for Active; 'I' for Inactive)
REMARK    1  A    between atoms: C_1  and  O_2
REMARK    2  A    between atoms: O_2  and  C_3
REMARK    3  A    between atoms: C_8  and  N_9
REMARK    4  A    between atoms: C_10  and  C_12
REMARK    5  A    between atoms: C_17  and  N_18
REMARK    6  A    between atoms: C_19  and  C_21
REMARK    7  A    between atoms: C_27  and  N_28
REMARK    8  A    between atoms: C_29  and  C_31
REMARK                            x       y       z     vdW  Elec       q    Type
REMARK                         _______ _______ _______ _____ _____    ______ ____
ROOT
ATOM      1  N   UNL     1      -0.852  13.383  22.718  0.00  0.00    +0.000 N 
ATOM      2  C   UNL     1      -0.808  13.223  21.338  0.00  0.00    +0.000 C 
ATOM      3  O   UNL     1      -1.210  14.060  20.530  0.00  0.00    +0.000 OA
ATOM      4  H   UNL     1      -0.267  12.792  23.312  0.00  0.00    +0.000 HD
ENDROOT
BRANCH   2   5
ATOM      5  C   UNL     1      -0.188  11.968  20.783  0.00  0.00    +0.000 A 
ATOM      6  C   UNL     1      -0.500  10.723  21.356  0.00  0.00    +0.000 A 
ATOM      7  C   UNL     1       0.010   9.548  20.795  0.00  0.00    +0.000 A 
ATOM      8 CL   UNL     1      -0.370   8.025  21.503  0.00  0.00    +0.000 Cl
ATOM      9  C   UNL     1       0.812   9.591  19.660  0.00  0.00    +0.000 A 
ATOM     10  C   UNL     1       1.087  10.817  19.059  0.00  0.00    +0.000 A 
ATOM     11  C   UNL     1       0.586  12.015  19.597  0.00  0.00    +0.000 A 
BRANCH  11  12
ATOM     12  N   UNL     1       0.915  13.239  18.977  0.00  0.00    +0.000 N 
ATOM     13  C   UNL     1       2.065  13.971  19.237  0.00  0.00    +0.000 C 
ATOM     14  O   UNL     1       2.994  13.560  19.929  0.00  0.00    +0.000 OA
ATOM     15  H   UNL     1       0.486  13.436  18.072  0.00  0.00    +0.000 HD
BRANCH  13  16
ATOM     16  C   UNL     1       2.102  15.270  18.594  0.00  0.00    +0.000 A 
ATOM     17  C   UNL     1       3.019  15.814  17.715  0.00  0.00    +0.000 A 
ATOM     18  C   UNL     1       2.629  17.153  17.488  0.00  0.00    +0.000 A 
ATOM     19  C   UNL     1       1.493  17.348  18.238  0.00  0.00    +0.000 A 
ATOM     20  O   UNL     1       1.152  16.210  18.897  0.00  0.00    +0.000 OA
ENDBRANCH  13  16
ENDBRANCH  11  12
ENDBRANCH   2   5
BRANCH   1  26
ATOM     21  C   UNL     1      -2.989  14.368  23.505  0.00  0.00    +0.000 A 
ATOM     22  C   UNL     1      -3.672  15.444  24.112  0.00  0.00    +0.000 A 
ATOM     23  C   UNL     1      -2.978  16.501  24.693  0.00  0.00    +0.000 A 
ATOM     24  C   UNL     1      -1.595  16.523  24.633  0.00  0.00    +0.000 A 
ATOM     25  C   UNL     1      -0.906  15.496  23.981  0.00  0.00    +0.000 A 
ATOM     26  C   UNL     1      -1.577  14.400  23.412  0.00  0.00    +0.000 A 
BRANCH  21  28
ATOM     27  N   UNL     1      -4.690  13.562  21.943  0.00  0.00    +0.000 N 
ATOM     28  C   UNL     1      -3.796  13.229  22.960  0.00  0.00    +0.000 C 
ATOM     29  O   UNL     1      -3.602  12.113  23.434  0.00  0.00    +0.000 OA
ATOM     30  H   UNL     1      -4.823  14.540  21.735  0.00  0.00    +0.000 HD
BRANCH  27  36
ATOM     31  C   UNL     1      -4.959  12.146  19.947  0.00  0.00    +0.000 A 
ATOM     32  C   UNL     1      -5.767  11.317  19.151  0.00  0.00    +0.000 A 
ATOM     33  C   UNL     1      -7.077  11.025  19.522  0.00  0.00    +0.000 A 
ATOM     34  C   UNL     1      -7.591  11.566  20.692  0.00  0.00    +0.000 A 
ATOM     35  C   UNL     1      -6.792  12.380  21.501  0.00  0.00    +0.000 A 
ATOM     36  C   UNL     1      -5.471  12.687  21.149  0.00  0.00    +0.000 A 
BRANCH  31  38
ATOM     37  C   UNL     1      -3.263  11.525  18.389  0.00  0.00    +0.000 C 
ATOM     38  O   UNL     1      -3.741  12.424  19.380  0.00  0.00    +0.000 OA
ENDBRANCH  31  38
ENDBRANCH  27  36
ENDBRANCH  21  28
ENDBRANCH   1  26
TORSDOF 7
ENDMDL
MODEL 8
REMARK VINA RESULT:      -7.3      0.908      1.584
REMARK  Name = 
REMARK  8 active torsions:
REMARK  status: ('A' for Active; 'I' for Inactive)
REMARK    1  A    between atoms: C_1  and  O_2
REMARK    2  A    between atoms: O_2  and  C_3
REMARK    3  A    between atoms: C_8  and  N_9
REMARK    4  A    between atoms: C_10  and  C_12
REMARK    5  A    between atoms: C_17  and  N_18
REMARK    6  A    between atoms: C_19  and  C_21
REMARK    7  A    between atoms: C_27  and  N_28
REMARK    8  A    between atoms: C_29  and  C_31
REMARK                            x       y       z     vdW  Elec       q    Type
REMARK                         _______ _______ _______ _____ _____    ______ ____
ROOT
ATOM      1  N   UNL     1      -0.871   9.859  19.246  0.00  0.00    +0.000 N 
ATOM      2  C   UNL     1      -1.384  11.062  18.774  0.00  0.00    +0.000 C 
ATOM      3  O   UNL     1      -1.092  12.166  19.232  0.00  0.00    +0.000 OA
ATOM      4  H   UNL     1      -0.933   9.022  18.664  0.00  0.00    +0.000 HD
ENDROOT
BRANCH   2   5
ATOM      5  C   UNL     1      -2.324  11.026  17.598  0.00  0.00    +0.000 A 
ATOM      6  C   UNL     1      -1.947  10.351  16.423  0.00  0.00    +0.000 A 
ATOM      7  C   UNL     1      -2.846  10.247  15.358  0.00  0.00    +0.000 A 
ATOM      8 CL   UNL     1      -2.378   9.425  13.919  0.00  0.00    +0.000 Cl
ATOM      9  C   UNL     1      -4.123  10.788  15.449  0.00  0.00    +0.000 A 
ATOM     10  C   UNL     1      -4.521  11.417  16.628  0.00  0.00    +0.000 A 
ATOM     11  C   UNL     1      -3.640  11.534  17.717  0.00  0.00    +0.000 A 
BRANCH  11  12
ATOM     12  N   UNL     1      -4.071  12.207  18.880  0.00  0.00    +0.000 N 
ATOM     13  C   UNL     1      -5.248  11.932  19.560  0.00  0.00    +0.000 C 
ATOM     14  O   UNL     1      -5.974  10.973  19.309  0.00  0.00    +0.000 OA
ATOM     15  H   UNL     1      -3.358  12.673  19.443  0.00  0.00    +0.000 HD
BRANCH  13  16
ATOM     16  C   UNL     1      -5.548  12.863  20.631  0.00  0.00    +0.000 A 
ATOM     17  C   UNL     1      -5.555  14.244  20.650  0.00  0.00    +0.000 A 
ATOM     18  C   UNL     1      -5.810  14.638  21.982  0.00  0.00    +0.000 A 
ATOM     19  C   UNL     1      -5.952  13.474  22.701  0.00  0.00    +0.000 A 
ATOM     20  O   UNL     1      -5.815  12.392  21.891  0.00  0.00    +0.000 OA
ENDBRANCH  13  16
ENDBRANCH  11  12
ENDBRANCH   2   5
BRANCH   1  26
ATOM     21  C   UNL     1       0.973   8.820  20.542  0.00  0.00    +0.000 A 
ATOM     22  C   UNL     1       1.603   8.606  21.786  0.00  0.00    +0.000 A 
ATOM     23  C   UNL     1       1.202   9.297  22.925  0.00  0.00    +0.000 A 
ATOM     24  C   UNL     1       0.133  10.175  22.848  0.00  0.00    +0.000 A 
ATOM     25  C   UNL     1      -0.542  10.351  21.637  0.00  0.00    +0.000 A 
ATOM     26  C   UNL     1      -0.140   9.690  20.463  0.00  0.00    +0.000 A 
BRANCH  21  28
ATOM     27  N   UNL     1       2.109   6.868  19.604  0.00  0.00    +0.000 N 
ATOM     28  C   UNL     1       1.501   8.094  19.342  0.00  0.00    +0.000 C 
ATOM     29  O   UNL     1       1.349   8.621  18.243  0.00  0.00    +0.000 OA
ATOM     30  H   UNL     1       2.262   6.615  20.569  0.00  0.00    +0.000 HD
BRANCH  27  36
ATOM     31  C   UNL     1       3.738   6.129  17.911  0.00  0.00    +0.000 A 
ATOM     32  C   UNL     1       4.149   5.181  16.960  0.00  0.00    +0.000 A 
ATOM     33  C   UNL     1       3.412   4.020  16.743  0.00  0.00    +0.000 A 
ATOM     34  C   UNL     1       2.253   3.800  17.474  0.00  0.00    +0.000 A 
ATOM     35  C   UNL     1       1.841   4.729  18.436  0.00  0.00    +0.000 A 
ATOM     36  C   UNL     1       2.566   5.904  18.672  0.00  0.00    +0.000 A 
BRANCH  31  38
ATOM     37  C   UNL     1       5.796   7.179  17.320  0.00  0.00    +0.000 C 
ATOM     38  O   UNL     1       4.509   7.264  17.916  0.00  0.00    +0.000 OA
ENDBRANCH  31  38
ENDBRANCH  27  36
ENDBRANCH  21  28
ENDBRANCH   1  26
TORSDOF 7
ENDMDL
MODEL 9
REMARK VINA RESULT:      -7.2      3.952      8.383
REMARK  Name = 
REMARK  8 active torsions:
REMARK  status: ('A' for Active; 'I' for Inactive)
REMARK    1  A    between atoms: C_1  and  O_2
REMARK    2  A    between atoms: O_2  and  C_3
REMARK    3  A    between atoms: C_8  and  N_9
REMARK    4  A    between atoms: C_10  and  C_12
REMARK    5  A    between atoms: C_17  and  N_18
REMARK    6  A    between atoms: C_19  and  C_21
REMARK    7  A    between atoms: C_27  and  N_28
REMARK    8  A    between atoms: C_29  and  C_31
REMARK                            x       y       z     vdW  Elec       q    Type
REMARK                         _______ _______ _______ _____ _____    ______ ____
ROOT
ATOM      1  N   UNL     1      -1.898  13.047  23.063  0.00  0.00    +0.000 N 
ATOM      2  C   UNL     1      -0.624  13.153  22.517  0.00  0.00    +0.000 C 
ATOM      3  O   UNL     1       0.132  14.106  22.702  0.00  0.00    +0.000 OA
ATOM      4  H   UNL     1      -2.356  12.134  23.100  0.00  0.00    +0.000 HD
ENDROOT
BRANCH   2   5
ATOM      5  C   UNL     1      -0.107  12.012  21.681  0.00  0.00    +0.000 A 
ATOM      6  C   UNL     1      -0.436  10.689  22.024  0.00  0.00    +0.000 A 
ATOM      7  C   UNL     1      -0.025   9.632  21.207  0.00  0.00    +0.000 A 
ATOM      8 CL   UNL     1      -0.425   8.013  21.634  0.00  0.00    +0.000 Cl
ATOM      9  C   UNL     1       0.693   9.872  20.041  0.00  0.00    +0.000 A 
ATOM     10  C   UNL     1       0.982  11.183  19.669  0.00  0.00    +0.000 A 
ATOM     11  C   UNL     1       0.580  12.267  20.468  0.00  0.00    +0.000 A 
BRANCH  11  12
ATOM     12  N   UNL     1       0.921  13.577  20.073  0.00  0.00    +0.000 N 
ATOM     13  C   UNL     1       0.370  14.243  18.988  0.00  0.00    +0.000 C 
ATOM     14  O   UNL     1      -0.583  13.818  18.338  0.00  0.00    +0.000 OA
ATOM     15  H   UNL     1       1.325  14.191  20.782  0.00  0.00    +0.000 HD
BRANCH  13  16
ATOM     16  C   UNL     1       0.996  15.517  18.689  0.00  0.00    +0.000 A 
ATOM     17  C   UNL     1       0.446  16.772  18.515  0.00  0.00    +0.000 A 
ATOM     18  C   UNL     1       1.497  17.634  18.133  0.00  0.00    +0.000 A 
ATOM     19  C   UNL     1       2.632  16.857  18.101  0.00  0.00    +0.000 A 
ATOM     20  O   UNL     1       2.346  15.577  18.455  0.00  0.00    +0.000 OA
ENDBRANCH  13  16
ENDBRANCH  11  12
ENDBRANCH   2   5
BRANCH   1  26
ATOM     21  C   UNL     1      -3.988  14.331  23.435  0.00  0.00    +0.000 A 
ATOM     22  C   UNL     1      -4.634  15.447  24.009  0.00  0.00    +0.000 A 
ATOM     23  C   UNL     1      -3.968  16.286  24.898  0.00  0.00    +0.000 A 
ATOM     24  C   UNL     1      -2.634  16.050  25.187  0.00  0.00    +0.000 A 
ATOM     25  C   UNL     1      -1.963  14.987  24.579  0.00  0.00    +0.000 A 
ATOM     26  C   UNL     1      -2.617  14.104  23.701  0.00  0.00    +0.000 A 
BRANCH  21  28
ATOM     27  N   UNL     1      -5.056  13.936  21.271  0.00  0.00    +0.000 N 
ATOM     28  C   UNL     1      -4.784  13.430  22.541  0.00  0.00    +0.000 C 
ATOM     29  O   UNL     1      -5.117  12.334  22.984  0.00  0.00    +0.000 OA
ATOM     30  H   UNL     1      -4.816  14.899  21.086  0.00  0.00    +0.000 HD
BRANCH  27  36
ATOM     31  C   UNL     1      -4.900  12.396  19.356  0.00  0.00    +0.000 A 
ATOM     32  C   UNL     1      -5.503  11.778  18.248  0.00  0.00    +0.000 A 
ATOM     33  C   UNL     1      -6.838  12.017  17.933  0.00  0.00    +0.000 A 
ATOM     34  C   UNL     1      -7.581  12.883  18.724  0.00  0.00    +0.000 A 
ATOM     35  C   UNL     1      -6.997  13.493  19.839  0.00  0.00    +0.000 A 
ATOM     36  C   UNL     1      -5.655  13.267  20.175  0.00  0.00    +0.000 A 
BRANCH  31  38
ATOM     37  C   UNL     1      -2.956  11.388  18.410  0.00  0.00    +0.000 C 
ATOM     38  O   UNL     1      -3.555  12.144  19.454  0.00  0.00    +0.000 OA
ENDBRANCH  31  38
ENDBRANCH  27  36
ENDBRANCH  21  28
ENDBRANCH   1  26
TORSDOF 7
ENDMDL
