MODEL 1
REMARK VINA RESULT:      -9.1      0.000      0.000
REMARK  Name = 
REMARK  12 active torsions:
REMARK  status: ('A' for Active; 'I' for Inactive)
REMARK    1  A    between atoms: C_1  and  C_2
REMARK    2  A    between atoms: C_2  and  C_3
REMARK    3  A    between atoms: C_2  and  C_4
REMARK    4  A    between atoms: C_2  and  N_5
REMARK    5  A    between atoms: N_5  and  C_6
REMARK    6  A    between atoms: C_6  and  C_7
REMARK    7  A    between atoms: C_10  and  C_11
REMARK    8  A    between atoms: C_17  and  C_19
REMARK    9  A    between atoms: C_19  and  O_20
REMARK   10  A    between atoms: O_20  and  C_21
REMARK   11  A    between atoms: C_21  and  C_23
REMARK   12  A    between atoms: C_26  and  N_27
REMARK                            x       y       z     vdW  Elec       q    Type
REMARK                         _______ _______ _______ _____ _____    ______ ____
ROOT
ATOM      1  N   UNL     1       3.685   4.303  18.619  0.00  0.00    +0.000 N 
ATOM      2  C   UNL     1       4.840   4.010  19.363  0.00  0.00    +0.000 C 
ATOM      3  O   UNL     1       4.983   2.968  20.008  0.00  0.00    +0.000 OA
ENDROOT
BRANCH   1   5
ATOM      4  C   UNL     1       1.977   2.889  19.879  0.00  0.00    +0.000 C 
ATOM      5  C   UNL     1       2.552   3.277  18.493  0.00  0.00    +0.000 C 
ATOM      6  C   UNL     1       3.054   1.997  17.805  0.00  0.00    +0.000 C 
ATOM      7  C   UNL     1       1.315   3.761  17.687  0.00  0.00    +0.000 C 
ENDBRANCH   1   5
BRANCH   1   8
ATOM      8  C   UNL     1       3.516   5.641  17.992  0.00  0.00    +0.000 C 
BRANCH   8   9
ATOM      9  C   UNL     1       2.635   6.679  18.686  0.00  0.00    +0.000 A 
ATOM     10  C   UNL     1       2.336   7.934  18.150  0.00  0.00    +0.000 A 
ATOM     11  C   UNL     1       1.709   8.927  18.918  0.00  0.00    +0.000 A 
ATOM     12  C   UNL     1       1.326   8.680  20.242  0.00  0.00    +0.000 A 
ATOM     13  C   UNL     1       1.512   7.389  20.751  0.00  0.00    +0.000 A 
ATOM     14  C   UNL     1       2.162   6.407  19.987  0.00  0.00    +0.000 A 
BRANCH  12  15
ATOM     15  C   UNL     1       0.774   9.783  21.112  0.00  0.00    +0.000 C 
ATOM     16  F   UNL     1       1.093   9.656  22.431  0.00  0.00    +0.000 F 
ATOM     17  F   UNL     1       1.204  11.022  20.743  0.00  0.00    +0.000 F 
ATOM     18  F   UNL     1      -0.591   9.841  21.070  0.00  0.00    +0.000 F 
ENDBRANCH  12  15
ENDBRANCH   8   9
ENDBRANCH   1   8
BRANCH   2  19
ATOM     19  C   UNL     1       6.024   4.997  19.367  0.00  0.00    +0.000 C 
BRANCH  19  20
ATOM     20  O   UNL     1       7.021   4.598  18.410  0.00  0.00    +0.000 OA
BRANCH  20  21
ATOM     21  C   UNL     1       7.243   5.540  17.443  0.00  0.00    +0.000 C 
ATOM     22  O   UNL     1       7.661   6.669  17.673  0.00  0.00    +0.000 OA
BRANCH  21  23
ATOM     23  C   UNL     1       6.910   5.048  16.128  0.00  0.00    +0.000 A 
ATOM     24  C   UNL     1       5.875   4.207  15.746  0.00  0.00    +0.000 A 
ATOM     25  C   UNL     1       5.964   4.037  14.343  0.00  0.00    +0.000 A 
ATOM     26  C   UNL     1       7.039   4.802  13.957  0.00  0.00    +0.000 A 
ATOM     27  O   UNL     1       7.634   5.413  15.019  0.00  0.00    +0.000 OA
BRANCH  26  28
ATOM     28  N   UNL     1       7.610   5.044  12.668  0.00  0.00    +0.000 N 
ATOM     29  O   UNL     1       8.305   6.066  12.565  0.00  0.00    +0.000 OA
ATOM     30  O   UNL     1       7.371   4.236  11.766  0.00  0.00    +0.000 OA
ENDBRANCH  26  28
ENDBRANCH  21  23
ENDBRANCH  20  21
ENDBRANCH  19  20
ENDBRANCH   2  19
TORSDOF 9
ENDMDL
MODEL 2
REMARK VINA RESULT:      -8.9      0.509      1.399
REMARK  Name = 
REMARK  12 active torsions:
REMARK  status: ('A' for Active; 'I' for Inactive)
REMARK    1  A    between atoms: C_1  and  C_2
REMARK    2  A    between atoms: C_2  and  C_3
REMARK    3  A    between atoms: C_2  and  C_4
REMARK    4  A    between atoms: C_2  and  N_5
REMARK    5  A    between atoms: N_5  and  C_6
REMARK    6  A    between atoms: C_6  and  C_7
REMARK    7  A    between atoms: C_10  and  C_11
REMARK    8  A    between atoms: C_17  and  C_19
REMARK    9  A    between atoms: C_19  and  O_20
REMARK   10  A    between atoms: O_20  and  C_21
REMARK   11  A    between atoms: C_21  and  C_23
REMARK   12  A    between atoms: C_26  and  N_27
REMARK                            x       y       z     vdW  Elec       q    Type
REMARK                         _______ _______ _______ _____ _____    ______ ____
ROOT
ATOM      1  N   UNL     1       3.342   4.160  18.877  0.00  0.00    +0.000 N 
ATOM      2  C   UNL     1       4.545   3.954  19.573  0.00  0.00    +0.000 C 
ATOM      3  O   UNL     1       4.739   2.988  20.317  0.00  0.00    +0.000 OA
ENDROOT
BRANCH   1   5
ATOM      4  C   UNL     1       2.695   1.728  18.467  0.00  0.00    +0.000 C 
ATOM      5  C   UNL     1       2.214   3.124  18.937  0.00  0.00    +0.000 C 
ATOM      6  C   UNL     1       1.036   3.551  18.046  0.00  0.00    +0.000 C 
ATOM      7  C   UNL     1       1.630   2.870  20.355  0.00  0.00    +0.000 C 
ENDBRANCH   1   5
BRANCH   1   8
ATOM      8  C   UNL     1       3.121   5.421  18.120  0.00  0.00    +0.000 C 
BRANCH   8   9
ATOM      9  C   UNL     1       2.566   6.639  18.855  0.00  0.00    +0.000 A 
ATOM     10  C   UNL     1       2.117   6.616  20.179  0.00  0.00    +0.000 A 
ATOM     11  C   UNL     1       1.418   7.699  20.733  0.00  0.00    +0.000 A 
ATOM     12  C   UNL     1       1.178   8.859  19.989  0.00  0.00    +0.000 A 
ATOM     13  C   UNL     1       1.726   8.942  18.702  0.00  0.00    +0.000 A 
ATOM     14  C   UNL     1       2.403   7.846  18.144  0.00  0.00    +0.000 A 
BRANCH  12  15
ATOM     15  C   UNL     1       0.314   9.970  20.534  0.00  0.00    +0.000 C 
ATOM     16  F   UNL     1      -0.374   9.631  21.661  0.00  0.00    +0.000 F 
ATOM     17  F   UNL     1       1.022  11.090  20.853  0.00  0.00    +0.000 F 
ATOM     18  F   UNL     1      -0.633  10.377  19.637  0.00  0.00    +0.000 F 
ENDBRANCH  12  15
ENDBRANCH   8   9
ENDBRANCH   1   8
BRANCH   2  19
ATOM     19  C   UNL     1       5.717   4.938  19.393  0.00  0.00    +0.000 C 
BRANCH  19  20
ATOM     20  O   UNL     1       6.692   4.404  18.479  0.00  0.00    +0.000 OA
BRANCH  20  21
ATOM     21  C   UNL     1       7.155   5.333  17.588  0.00  0.00    +0.000 C 
ATOM     22  O   UNL     1       7.683   6.390  17.915  0.00  0.00    +0.000 OA
BRANCH  21  23
ATOM     23  C   UNL     1       6.932   4.923  16.222  0.00  0.00    +0.000 A 
ATOM     24  C   UNL     1       5.972   4.060  15.714  0.00  0.00    +0.000 A 
ATOM     25  C   UNL     1       6.156   4.000  14.312  0.00  0.00    +0.000 A 
ATOM     26  C   UNL     1       7.208   4.847  14.052  0.00  0.00    +0.000 A 
ATOM     27  O   UNL     1       7.701   5.407  15.191  0.00  0.00    +0.000 OA
BRANCH  26  28
ATOM     28  N   UNL     1       7.842   5.213  12.823  0.00  0.00    +0.000 N 
ATOM     29  O   UNL     1       7.373   4.697  11.796  0.00  0.00    +0.000 OA
ATOM     30  O   UNL     1       8.793   5.998  12.870  0.00  0.00    +0.000 OA
ENDBRANCH  26  28
ENDBRANCH  21  23
ENDBRANCH  20  21
ENDBRANCH  19  20
ENDBRANCH   2  19
TORSDOF 9
ENDMDL
MODEL 3
REMARK VINA RESULT:      -8.9      0.553      1.018
REMARK  Name = 
REMARK  12 active torsions:
REMARK  status: ('A' for Active; 'I' for Inactive)
REMARK    1  A    between atoms: C_1  and  C_2
REMARK    2  A    between atoms: C_2  and  C_3
REMARK    3  A    between atoms: C_2  and  C_4
REMARK    4  A    between atoms: C_2  and  N_5
REMARK    5  A    between atoms: N_5  and  C_6
REMARK    6  A    between atoms: C_6  and  C_7
REMARK    7  A    between atoms: C_10  and  C_11
REMARK    8  A    between atoms: C_17  and  C_19
REMARK    9  A    between atoms: C_19  and  O_20
REMARK   10  A    between atoms: O_20  and  C_21
REMARK   11  A    between atoms: C_21  and  C_23
REMARK   12  A    between atoms: C_26  and  N_27
REMARK                            x       y       z     vdW  Elec       q    Type
REMARK                         _______ _______ _______ _____ _____    ______ ____
ROOT
ATOM      1  N   UNL     1       3.663   4.289  18.598  0.00  0.00    +0.000 N 
ATOM      2  C   UNL     1       4.859   4.188  19.328  0.00  0.00    +0.000 C 
ATOM      3  O   UNL     1       5.177   3.183  19.971  0.00  0.00    +0.000 OA
ENDROOT
BRANCH   1   5
ATOM      4  C   UNL     1       3.391   1.883  17.799  0.00  0.00    +0.000 C 
ATOM      5  C   UNL     1       2.710   3.094  18.486  0.00  0.00    +0.000 C 
ATOM      6  C   UNL     1       1.462   3.469  17.669  0.00  0.00    +0.000 C 
ATOM      7  C   UNL     1       2.201   2.529  19.841  0.00  0.00    +0.000 C 
ENDBRANCH   1   5
BRANCH   1   8
ATOM      8  C   UNL     1       3.273   5.582  17.974  0.00  0.00    +0.000 C 
BRANCH   8   9
ATOM      9  C   UNL     1       2.477   6.592  18.798  0.00  0.00    +0.000 A 
ATOM     10  C   UNL     1       2.221   7.904  18.390  0.00  0.00    +0.000 A 
ATOM     11  C   UNL     1       1.679   8.851  19.273  0.00  0.00    +0.000 A 
ATOM     12  C   UNL     1       1.339   8.503  20.585  0.00  0.00    +0.000 A 
ATOM     13  C   UNL     1       1.479   7.163  20.968  0.00  0.00    +0.000 A 
ATOM     14  C   UNL     1       2.045   6.225  20.089  0.00  0.00    +0.000 A 
BRANCH  12  15
ATOM     15  C   UNL     1       0.882   9.546  21.575  0.00  0.00    +0.000 C 
ATOM     16  F   UNL     1       1.317   9.326  22.848  0.00  0.00    +0.000 F 
ATOM     17  F   UNL     1       1.294  10.805  21.254  0.00  0.00    +0.000 F 
ATOM     18  F   UNL     1      -0.480   9.615  21.661  0.00  0.00    +0.000 F 
ENDBRANCH  12  15
ENDBRANCH   8   9
ENDBRANCH   1   8
BRANCH   2  19
ATOM     19  C   UNL     1       5.868   5.353  19.318  0.00  0.00    +0.000 C 
BRANCH  19  20
ATOM     20  O   UNL     1       6.243   5.688  17.970  0.00  0.00    +0.000 OA
BRANCH  20  21
ATOM     21  C   UNL     1       7.172   4.833  17.444  0.00  0.00    +0.000 C 
ATOM     22  O   UNL     1       8.096   4.349  18.088  0.00  0.00    +0.000 OA
BRANCH  21  23
ATOM     23  C   UNL     1       6.940   4.586  16.041  0.00  0.00    +0.000 A 
ATOM     24  C   UNL     1       5.967   3.800  15.441  0.00  0.00    +0.000 A 
ATOM     25  C   UNL     1       6.148   3.899  14.040  0.00  0.00    +0.000 A 
ATOM     26  C   UNL     1       7.212   4.755  13.876  0.00  0.00    +0.000 A 
ATOM     27  O   UNL     1       7.715   5.174  15.070  0.00  0.00    +0.000 OA
BRANCH  26  28
ATOM     28  N   UNL     1       7.849   5.251  12.695  0.00  0.00    +0.000 N 
ATOM     29  O   UNL     1       8.772   6.061  12.875  0.00  0.00    +0.000 OA
ATOM     30  O   UNL     1       7.441   4.848  11.602  0.00  0.00    +0.000 OA
ENDBRANCH  26  28
ENDBRANCH  21  23
ENDBRANCH  20  21
ENDBRANCH  19  20
ENDBRANCH   2  19
TORSDOF 9
ENDMDL
MODEL 4
REMARK VINA RESULT:      -8.8      0.651      1.237
REMARK  Name = 
REMARK  12 active torsions:
REMARK  status: ('A' for Active; 'I' for Inactive)
REMARK    1  A    between atoms: C_1  and  C_2
REMARK    2  A    between atoms: C_2  and  C_3
REMARK    3  A    between atoms: C_2  and  C_4
REMARK    4  A    between atoms: C_2  and  N_5
REMARK    5  A    between atoms: N_5  and  C_6
REMARK    6  A    between atoms: C_6  and  C_7
REMARK    7  A    between atoms: C_10  and  C_11
REMARK    8  A    between atoms: C_17  and  C_19
REMARK    9  A    between atoms: C_19  and  O_20
REMARK   10  A    between atoms: O_20  and  C_21
REMARK   11  A    between atoms: C_21  and  C_23
REMARK   12  A    between atoms: C_26  and  N_27
REMARK                            x       y       z     vdW  Elec       q    Type
REMARK                         _______ _______ _______ _____ _____    ______ ____
ROOT
ATOM      1  N   UNL     1       3.767   4.586  18.469  0.00  0.00    +0.000 N 
ATOM      2  C   UNL     1       5.009   4.375  19.091  0.00  0.00    +0.000 C 
ATOM      3  O   UNL     1       5.266   3.374  19.766  0.00  0.00    +0.000 OA
ENDROOT
BRANCH   1   5
ATOM      4  C   UNL     1       2.260   3.189  19.979  0.00  0.00    +0.000 C 
ATOM      5  C   UNL     1       2.672   3.514  18.520  0.00  0.00    +0.000 C 
ATOM      6  C   UNL     1       3.153   2.214  17.855  0.00  0.00    +0.000 C 
ATOM      7  C   UNL     1       1.338   3.904  17.824  0.00  0.00    +0.000 C 
ENDBRANCH   1   5
BRANCH   1   8
ATOM      8  C   UNL     1       3.474   5.882  17.801  0.00  0.00    +0.000 C 
BRANCH   8   9
ATOM      9  C   UNL     1       2.776   6.984  18.597  0.00  0.00    +0.000 A 
ATOM     10  C   UNL     1       2.397   6.861  19.936  0.00  0.00    +0.000 A 
ATOM     11  C   UNL     1       1.569   7.811  20.553  0.00  0.00    +0.000 A 
ATOM     12  C   UNL     1       1.123   8.940  19.855  0.00  0.00    +0.000 A 
ATOM     13  C   UNL     1       1.594   9.136  18.550  0.00  0.00    +0.000 A 
ATOM     14  C   UNL     1       2.401   8.170  17.931  0.00  0.00    +0.000 A 
BRANCH  12  15
ATOM     15  C   UNL     1       0.128   9.893  20.469  0.00  0.00    +0.000 C 
ATOM     16  F   UNL     1      -0.352   9.485  21.678  0.00  0.00    +0.000 F 
ATOM     17  F   UNL     1       0.639  11.140  20.675  0.00  0.00    +0.000 F 
ATOM     18  F   UNL     1      -0.973  10.073  19.681  0.00  0.00    +0.000 F 
ENDBRANCH  12  15
ENDBRANCH   8   9
ENDBRANCH   1   8
BRANCH   2  19
ATOM     19  C   UNL     1       6.143   5.404  18.915  0.00  0.00    +0.000 C 
BRANCH  19  20
ATOM     20  O   UNL     1       7.111   4.932  17.960  0.00  0.00    +0.000 OA
BRANCH  20  21
ATOM     21  C   UNL     1       7.230   5.750  16.870  0.00  0.00    +0.000 C 
ATOM     22  O   UNL     1       7.671   6.892  16.918  0.00  0.00    +0.000 OA
BRANCH  21  23
ATOM     23  C   UNL     1       6.758   5.109  15.665  0.00  0.00    +0.000 A 
ATOM     24  C   UNL     1       5.586   4.397  15.456  0.00  0.00    +0.000 A 
ATOM     25  C   UNL     1       5.577   3.987  14.101  0.00  0.00    +0.000 A 
ATOM     26  C   UNL     1       6.740   4.492  13.566  0.00  0.00    +0.000 A 
ATOM     27  O   UNL     1       7.475   5.163  14.494  0.00  0.00    +0.000 OA
BRANCH  26  28
ATOM     28  N   UNL     1       7.276   4.422  12.241  0.00  0.00    +0.000 N 
ATOM     29  O   UNL     1       7.257   3.302  11.707  0.00  0.00    +0.000 OA
ATOM     30  O   UNL     1       7.714   5.458  11.735  0.00  0.00    +0.000 OA
ENDBRANCH  26  28
ENDBRANCH  21  23
ENDBRANCH  20  21
ENDBRANCH  19  20
ENDBRANCH   2  19
TORSDOF 9
ENDMDL
MODEL 5
REMARK VINA RESULT:      -8.6      1.520      2.345
REMARK  Name = 
REMARK  12 active torsions:
REMARK  status: ('A' for Active; 'I' for Inactive)
REMARK    1  A    between atoms: C_1  and  C_2
REMARK    2  A    between atoms: C_2  and  C_3
REMARK    3  A    between atoms: C_2  and  C_4
REMARK    4  A    between atoms: C_2  and  N_5
REMARK    5  A    between atoms: N_5  and  C_6
REMARK    6  A    between atoms: C_6  and  C_7
REMARK    7  A    between atoms: C_10  and  C_11
REMARK    8  A    between atoms: C_17  and  C_19
REMARK    9  A    between atoms: C_19  and  O_20
REMARK   10  A    between atoms: O_20  and  C_21
REMARK   11  A    between atoms: C_21  and  C_23
REMARK   12  A    between atoms: C_26  and  N_27
REMARK                            x       y       z     vdW  Elec       q    Type
REMARK                         _______ _______ _______ _____ _____    ______ ____
ROOT
ATOM      1  N   UNL     1       3.539   4.311  18.436  0.00  0.00    +0.000 N 
ATOM      2  C   UNL     1       4.940   4.393  18.513  0.00  0.00    +0.000 C 
ATOM      3  O   UNL     1       5.631   3.588  19.143  0.00  0.00    +0.000 OA
ENDROOT
BRANCH   1   5
ATOM      4  C   UNL     1       1.276   3.170  18.723  0.00  0.00    +0.000 C 
ATOM      5  C   UNL     1       2.786   3.137  19.072  0.00  0.00    +0.000 C 
ATOM      6  C   UNL     1       2.926   3.167  20.603  0.00  0.00    +0.000 C 
ATOM      7  C   UNL     1       3.255   1.729  18.610  0.00  0.00    +0.000 C 
ENDBRANCH   1   5
BRANCH   1   8
ATOM      8  C   UNL     1       2.759   5.399  17.788  0.00  0.00    +0.000 C 
BRANCH   8   9
ATOM      9  C   UNL     1       2.372   6.625  18.613  0.00  0.00    +0.000 A 
ATOM     10  C   UNL     1       2.091   6.590  19.982  0.00  0.00    +0.000 A 
ATOM     11  C   UNL     1       1.531   7.694  20.643  0.00  0.00    +0.000 A 
ATOM     12  C   UNL     1       1.267   8.886  19.958  0.00  0.00    +0.000 A 
ATOM     13  C   UNL     1       1.655   8.974  18.615  0.00  0.00    +0.000 A 
ATOM     14  C   UNL     1       2.192   7.859  17.953  0.00  0.00    +0.000 A 
BRANCH  12  15
ATOM     15  C   UNL     1       0.544  10.027  20.631  0.00  0.00    +0.000 C 
ATOM     16  F   UNL     1      -0.262  10.739  19.793  0.00  0.00    +0.000 F 
ATOM     17  F   UNL     1      -0.254   9.623  21.659  0.00  0.00    +0.000 F 
ATOM     18  F   UNL     1       1.406  10.939  21.171  0.00  0.00    +0.000 F 
ENDBRANCH  12  15
ENDBRANCH   8   9
ENDBRANCH   1   8
BRANCH   2  19
ATOM     19  C   UNL     1       5.688   5.506  17.754  0.00  0.00    +0.000 C 
BRANCH  19  20
ATOM     20  O   UNL     1       5.677   5.250  16.338  0.00  0.00    +0.000 OA
BRANCH  20  21
ATOM     21  C   UNL     1       6.852   4.720  15.880  0.00  0.00    +0.000 C 
ATOM     22  O   UNL     1       7.822   4.493  16.593  0.00  0.00    +0.000 OA
BRANCH  21  23
ATOM     23  C   UNL     1       6.813   4.478  14.458  0.00  0.00    +0.000 A 
ATOM     24  C   UNL     1       7.650   4.967  13.465  0.00  0.00    +0.000 A 
ATOM     25  C   UNL     1       7.209   4.424  12.234  0.00  0.00    +0.000 A 
ATOM     26  C   UNL     1       6.139   3.622  12.560  0.00  0.00    +0.000 A 
ATOM     27  O   UNL     1       5.874   3.648  13.894  0.00  0.00    +0.000 OA
BRANCH  26  28
ATOM     28  N   UNL     1       5.295   2.802  11.746  0.00  0.00    +0.000 N 
ATOM     29  O   UNL     1       5.781   1.722  11.376  0.00  0.00    +0.000 OA
ATOM     30  O   UNL     1       4.166   3.220  11.473  0.00  0.00    +0.000 OA
ENDBRANCH  26  28
ENDBRANCH  21  23
ENDBRANCH  20  21
ENDBRANCH  19  20
ENDBRANCH   2  19
TORSDOF 9
ENDMDL
MODEL 6
REMARK VINA RESULT:      -8.6      1.292      2.031
REMARK  Name = 
REMARK  12 active torsions:
REMARK  status: ('A' for Active; 'I' for Inactive)
REMARK    1  A    between atoms: C_1  and  C_2
REMARK    2  A    between atoms: C_2  and  C_3
REMARK    3  A    between atoms: C_2  and  C_4
REMARK    4  A    between atoms: C_2  and  N_5
REMARK    5  A    between atoms: N_5  and  C_6
REMARK    6  A    between atoms: C_6  and  C_7
REMARK    7  A    between atoms: C_10  and  C_11
REMARK    8  A    between atoms: C_17  and  C_19
REMARK    9  A    between atoms: C_19  and  O_20
REMARK   10  A    between atoms: O_20  and  C_21
REMARK   11  A    between atoms: C_21  and  C_23
REMARK   12  A    between atoms: C_26  and  N_27
REMARK                            x       y       z     vdW  Elec       q    Type
REMARK                         _______ _______ _______ _____ _____    ______ ____
ROOT
ATOM      1  N   UNL     1       2.937   3.912  19.405  0.00  0.00    +0.000 N 
ATOM      2  C   UNL     1       4.144   3.383  18.916  0.00  0.00    +0.000 C 
ATOM      3  O   UNL     1       4.198   2.412  18.156  0.00  0.00    +0.000 OA
ENDROOT
BRANCH   1   5
ATOM      4  C   UNL     1       1.146   3.984  17.592  0.00  0.00    +0.000 C 
ATOM      5  C   UNL     1       1.589   3.353  18.936  0.00  0.00    +0.000 C 
ATOM      6  C   UNL     1       0.494   3.628  19.980  0.00  0.00    +0.000 C 
ATOM      7  C   UNL     1       1.571   1.823  18.665  0.00  0.00    +0.000 C 
ENDBRANCH   1   5
BRANCH   1   8
ATOM      8  C   UNL     1       2.952   4.984  20.436  0.00  0.00    +0.000 C 
BRANCH   8   9
ATOM      9  C   UNL     1       2.525   6.397  20.040  0.00  0.00    +0.000 A 
ATOM     10  C   UNL     1       1.785   7.249  20.865  0.00  0.00    +0.000 A 
ATOM     11  C   UNL     1       1.234   8.443  20.375  0.00  0.00    +0.000 A 
ATOM     12  C   UNL     1       1.439   8.842  19.049  0.00  0.00    +0.000 A 
ATOM     13  C   UNL     1       2.279   8.058  18.248  0.00  0.00    +0.000 A 
ATOM     14  C   UNL     1       2.807   6.851  18.735  0.00  0.00    +0.000 A 
BRANCH  12  15
ATOM     15  C   UNL     1       0.741  10.054  18.483  0.00  0.00    +0.000 C 
ATOM     16  F   UNL     1      -0.139  10.636  19.346  0.00  0.00    +0.000 F 
ATOM     17  F   UNL     1       1.603  11.042  18.109  0.00  0.00    +0.000 F 
ATOM     18  F   UNL     1       0.015   9.758  17.365  0.00  0.00    +0.000 F 
ENDBRANCH  12  15
ENDBRANCH   8   9
ENDBRANCH   1   8
BRANCH   2  19
ATOM     19  C   UNL     1       5.483   4.045  19.294  0.00  0.00    +0.000 C 
BRANCH  19  20
ATOM     20  O   UNL     1       5.865   5.018  18.305  0.00  0.00    +0.000 OA
BRANCH  20  21
ATOM     21  C   UNL     1       6.998   4.672  17.622  0.00  0.00    +0.000 C 
ATOM     22  O   UNL     1       8.085   4.481  18.155  0.00  0.00    +0.000 OA
BRANCH  21  23
ATOM     23  C   UNL     1       6.761   4.577  16.201  0.00  0.00    +0.000 A 
ATOM     24  C   UNL     1       5.656   4.069  15.532  0.00  0.00    +0.000 A 
ATOM     25  C   UNL     1       5.897   4.219  14.145  0.00  0.00    +0.000 A 
ATOM     26  C   UNL     1       7.129   4.825  14.058  0.00  0.00    +0.000 A 
ATOM     27  O   UNL     1       7.675   5.041  15.287  0.00  0.00    +0.000 OA
BRANCH  26  28
ATOM     28  N   UNL     1       7.895   5.245  12.925  0.00  0.00    +0.000 N 
ATOM     29  O   UNL     1       7.542   4.781  11.830  0.00  0.00    +0.000 OA
ATOM     30  O   UNL     1       8.836   6.020  13.114  0.00  0.00    +0.000 OA
ENDBRANCH  26  28
ENDBRANCH  21  23
ENDBRANCH  20  21
ENDBRANCH  19  20
ENDBRANCH   2  19
TORSDOF 9
ENDMDL
MODEL 7
REMARK VINA RESULT:      -8.5      1.784      2.408
REMARK  Name = 
REMARK  12 active torsions:
REMARK  status: ('A' for Active; 'I' for Inactive)
REMARK    1  A    between atoms: C_1  and  C_2
REMARK    2  A    between atoms: C_2  and  C_3
REMARK    3  A    between atoms: C_2  and  C_4
REMARK    4  A    between atoms: C_2  and  N_5
REMARK    5  A    between atoms: N_5  and  C_6
REMARK    6  A    between atoms: C_6  and  C_7
REMARK    7  A    between atoms: C_10  and  C_11
REMARK    8  A    between atoms: C_17  and  C_19
REMARK    9  A    between atoms: C_19  and  O_20
REMARK   10  A    between atoms: O_20  and  C_21
REMARK   11  A    between atoms: C_21  and  C_23
REMARK   12  A    between atoms: C_26  and  N_27
REMARK                            x       y       z     vdW  Elec       q    Type
REMARK                         _______ _______ _______ _____ _____    ______ ____
ROOT
ATOM      1  N   UNL     1       3.318   4.475  18.686  0.00  0.00    +0.000 N 
ATOM      2  C   UNL     1       4.356   4.195  17.781  0.00  0.00    +0.000 C 
ATOM      3  O   UNL     1       4.375   3.191  17.063  0.00  0.00    +0.000 OA
ENDROOT
BRANCH   1   5
ATOM      4  C   UNL     1       2.465   2.072  18.732  0.00  0.00    +0.000 C 
ATOM      5  C   UNL     1       2.080   3.574  18.763  0.00  0.00    +0.000 C 
ATOM      6  C   UNL     1       1.132   3.851  17.585  0.00  0.00    +0.000 C 
ATOM      7  C   UNL     1       1.237   3.726  20.059  0.00  0.00    +0.000 C 
ENDBRANCH   1   5
BRANCH   1   8
ATOM      8  C   UNL     1       3.434   5.620  19.628  0.00  0.00    +0.000 C 
BRANCH   8   9
ATOM      9  C   UNL     1       2.571   6.859  19.397  0.00  0.00    +0.000 A 
ATOM     10  C   UNL     1       2.519   7.562  18.190  0.00  0.00    +0.000 A 
ATOM     11  C   UNL     1       1.886   8.811  18.097  0.00  0.00    +0.000 A 
ATOM     12  C   UNL     1       1.250   9.381  19.206  0.00  0.00    +0.000 A 
ATOM     13  C   UNL     1       1.191   8.633  20.389  0.00  0.00    +0.000 A 
ATOM     14  C   UNL     1       1.848   7.396  20.483  0.00  0.00    +0.000 A 
BRANCH  12  15
ATOM     15  C   UNL     1       0.684  10.779  19.147  0.00  0.00    +0.000 C 
ATOM     16  F   UNL     1       1.240  11.557  18.176  0.00  0.00    +0.000 F 
ATOM     17  F   UNL     1      -0.659  10.803  18.919  0.00  0.00    +0.000 F 
ATOM     18  F   UNL     1       0.871  11.463  20.315  0.00  0.00    +0.000 F 
ENDBRANCH  12  15
ENDBRANCH   8   9
ENDBRANCH   1   8
BRANCH   2  19
ATOM     19  C   UNL     1       5.527   5.184  17.622  0.00  0.00    +0.000 C 
BRANCH  19  20
ATOM     20  O   UNL     1       5.790   5.439  16.230  0.00  0.00    +0.000 OA
BRANCH  20  21
ATOM     21  C   UNL     1       6.913   4.806  15.773  0.00  0.00    +0.000 C 
ATOM     22  O   UNL     1       7.871   4.519  16.480  0.00  0.00    +0.000 OA
BRANCH  21  23
ATOM     23  C   UNL     1       6.835   4.533  14.357  0.00  0.00    +0.000 A 
ATOM     24  C   UNL     1       7.602   5.054  13.324  0.00  0.00    +0.000 A 
ATOM     25  C   UNL     1       7.150   4.459  12.122  0.00  0.00    +0.000 A 
ATOM     26  C   UNL     1       6.147   3.599  12.503  0.00  0.00    +0.000 A 
ATOM     27  O   UNL     1       5.930   3.635  13.846  0.00  0.00    +0.000 OA
BRANCH  26  28
ATOM     28  N   UNL     1       5.326   2.711  11.738  0.00  0.00    +0.000 N 
ATOM     29  O   UNL     1       4.171   3.103  11.507  0.00  0.00    +0.000 OA
ATOM     30  O   UNL     1       5.814   1.639  11.371  0.00  0.00    +0.000 OA
ENDBRANCH  26  28
ENDBRANCH  21  23
ENDBRANCH  20  21
ENDBRANCH  19  20
ENDBRANCH   2  19
TORSDOF 9
ENDMDL
MODEL 8
REMARK VINA RESULT:      -8.4      1.907      2.607
REMARK  Name = 
REMARK  12 active torsions:
REMARK  status: ('A' for Active; 'I' for Inactive)
REMARK    1  A    between atoms: C_1  and  C_2
REMARK    2  A    between atoms: C_2  and  C_3
REMARK    3  A    between atoms: C_2  and  C_4
REMARK    4  A    between atoms: C_2  and  N_5
REMARK    5  A    between atoms: N_5  and  C_6
REMARK    6  A    between atoms: C_6  and  C_7
REMARK    7  A    between atoms: C_10  and  C_11
REMARK    8  A    between atoms: C_17  and  C_19
REMARK    9  A    between atoms: C_19  and  O_20
REMARK   10  A    between atoms: O_20  and  C_21
REMARK   11  A    between atoms: C_21  and  C_23
REMARK   12  A    between atoms: C_26  and  N_27
REMARK                            x       y       z     vdW  Elec       q    Type
REMARK                         _______ _______ _______ _____ _____    ______ ____
ROOT
ATOM      1  N   UNL     1       3.288   4.204  18.781  0.00  0.00    +0.000 N 
ATOM      2  C   UNL     1       4.169   3.698  17.810  0.00  0.00    +0.000 C 
ATOM      3  O   UNL     1       3.960   2.654  17.187  0.00  0.00    +0.000 OA
ENDROOT
BRANCH   1   5
ATOM      4  C   UNL     1       2.106   1.980  19.178  0.00  0.00    +0.000 C 
ATOM      5  C   UNL     1       1.946   3.517  19.057  0.00  0.00    +0.000 C 
ATOM      6  C   UNL     1       0.944   3.807  17.927  0.00  0.00    +0.000 C 
ATOM      7  C   UNL     1       1.254   3.935  20.384  0.00  0.00    +0.000 C 
ENDBRANCH   1   5
BRANCH   1   8
ATOM      8  C   UNL     1       3.674   5.383  19.602  0.00  0.00    +0.000 C 
BRANCH   8   9
ATOM      9  C   UNL     1       2.918   6.697  19.411  0.00  0.00    +0.000 A 
ATOM     10  C   UNL     1       2.163   7.316  20.411  0.00  0.00    +0.000 A 
ATOM     11  C   UNL     1       1.315   8.397  20.124  0.00  0.00    +0.000 A 
ATOM     12  C   UNL     1       1.226   8.919  18.828  0.00  0.00    +0.000 A 
ATOM     13  C   UNL     1       2.067   8.385  17.844  0.00  0.00    +0.000 A 
ATOM     14  C   UNL     1       2.894   7.288  18.131  0.00  0.00    +0.000 A 
BRANCH  12  15
ATOM     15  C   UNL     1       0.220   9.992  18.488  0.00  0.00    +0.000 C 
ATOM     16  F   UNL     1       0.770  11.227  18.315  0.00  0.00    +0.000 F 
ATOM     17  F   UNL     1      -0.473   9.731  17.343  0.00  0.00    +0.000 F 
ATOM     18  F   UNL     1      -0.724  10.145  19.463  0.00  0.00    +0.000 F 
ENDBRANCH  12  15
ENDBRANCH   8   9
ENDBRANCH   1   8
BRANCH   2  19
ATOM     19  C   UNL     1       5.449   4.477  17.452  0.00  0.00    +0.000 C 
BRANCH  19  20
ATOM     20  O   UNL     1       5.344   5.046  16.134  0.00  0.00    +0.000 OA
BRANCH  20  21
ATOM     21  C   UNL     1       6.561   5.297  15.561  0.00  0.00    +0.000 C 
ATOM     22  O   UNL     1       7.463   5.913  16.116  0.00  0.00    +0.000 OA
BRANCH  21  23
ATOM     23  C   UNL     1       6.643   4.764  14.222  0.00  0.00    +0.000 A 
ATOM     24  C   UNL     1       7.631   4.952  13.266  0.00  0.00    +0.000 A 
ATOM     25  C   UNL     1       7.260   4.203  12.123  0.00  0.00    +0.000 A 
ATOM     26  C   UNL     1       6.076   3.592  12.463  0.00  0.00    +0.000 A 
ATOM     27  O   UNL     1       5.677   3.925  13.722  0.00  0.00    +0.000 OA
BRANCH  26  28
ATOM     28  N   UNL     1       5.231   2.701  11.730  0.00  0.00    +0.000 N 
ATOM     29  O   UNL     1       4.073   3.097  11.524  0.00  0.00    +0.000 OA
ATOM     30  O   UNL     1       5.703   1.621  11.364  0.00  0.00    +0.000 OA
ENDBRANCH  26  28
ENDBRANCH  21  23
ENDBRANCH  20  21
ENDBRANCH  19  20
ENDBRANCH   2  19
TORSDOF 9
ENDMDL
MODEL 9
REMARK VINA RESULT:      -8.3      1.407      2.111
REMARK  Name = 
REMARK  12 active torsions:
REMARK  status: ('A' for Active; 'I' for Inactive)
REMARK    1  A    between atoms: C_1  and  C_2
REMARK    2  A    between atoms: C_2  and  C_3
REMARK    3  A    between atoms: C_2  and  C_4
REMARK    4  A    between atoms: C_2  and  N_5
REMARK    5  A    between atoms: N_5  and  C_6
REMARK    6  A    between atoms: C_6  and  C_7
REMARK    7  A    between atoms: C_10  and  C_11
REMARK    8  A    between atoms: C_17  and  C_19
REMARK    9  A    between atoms: C_19  and  O_20
REMARK   10  A    between atoms: O_20  and  C_21
REMARK   11  A    between atoms: C_21  and  C_23
REMARK   12  A    between atoms: C_26  and  N_27
REMARK                            x       y       z     vdW  Elec       q    Type
REMARK                         _______ _______ _______ _____ _____    ______ ____
ROOT
ATOM      1  N   UNL     1       3.684   4.385  18.190  0.00  0.00    +0.000 N 
ATOM      2  C   UNL     1       4.980   3.959  18.528  0.00  0.00    +0.000 C 
ATOM      3  O   UNL     1       5.207   2.960  19.216  0.00  0.00    +0.000 OA
ENDROOT
BRANCH   1   5
ATOM      4  C   UNL     1       1.183   4.026  17.846  0.00  0.00    +0.000 C 
ATOM      5  C   UNL     1       2.458   3.558  18.593  0.00  0.00    +0.000 C 
ATOM      6  C   UNL     1       2.198   3.673  20.104  0.00  0.00    +0.000 C 
ATOM      7  C   UNL     1       2.555   2.040  18.272  0.00  0.00    +0.000 C 
ENDBRANCH   1   5
BRANCH   1   8
ATOM      8  C   UNL     1       3.480   5.680  17.488  0.00  0.00    +0.000 C 
BRANCH   8   9
ATOM      9  C   UNL     1       2.871   6.851  18.258  0.00  0.00    +0.000 A 
ATOM     10  C   UNL     1       2.613   6.834  19.631  0.00  0.00    +0.000 A 
ATOM     11  C   UNL     1       1.857   7.844  20.246  0.00  0.00    +0.000 A 
ATOM     12  C   UNL     1       1.364   8.926  19.508  0.00  0.00    +0.000 A 
ATOM     13  C   UNL     1       1.716   9.016  18.155  0.00  0.00    +0.000 A 
ATOM     14  C   UNL     1       2.452   7.991  17.540  0.00  0.00    +0.000 A 
BRANCH  12  15
ATOM     15  C   UNL     1       0.441   9.942  20.135  0.00  0.00    +0.000 C 
ATOM     16  F   UNL     1       0.047   9.621  21.400  0.00  0.00    +0.000 F 
ATOM     17  F   UNL     1       0.994  11.185  20.223  0.00  0.00    +0.000 F 
ATOM     18  F   UNL     1      -0.713  10.102  19.423  0.00  0.00    +0.000 F 
ENDBRANCH  12  15
ENDBRANCH   8   9
ENDBRANCH   1   8
BRANCH   2  19
ATOM     19  C   UNL     1       6.206   4.730  17.999  0.00  0.00    +0.000 C 
BRANCH  19  20
ATOM     20  O   UNL     1       6.587   4.246  16.699  0.00  0.00    +0.000 OA
BRANCH  20  21
ATOM     21  C   UNL     1       7.060   5.232  15.878  0.00  0.00    +0.000 C 
ATOM     22  O   UNL     1       7.476   6.313  16.278  0.00  0.00    +0.000 OA
BRANCH  21  23
ATOM     23  C   UNL     1       6.993   4.850  14.487  0.00  0.00    +0.000 A 
ATOM     24  C   UNL     1       7.809   5.238  13.434  0.00  0.00    +0.000 A 
ATOM     25  C   UNL     1       7.345   4.575  12.273  0.00  0.00    +0.000 A 
ATOM     26  C   UNL     1       6.284   3.809  12.698  0.00  0.00    +0.000 A 
ATOM     27  O   UNL     1       6.045   3.968  14.028  0.00  0.00    +0.000 OA
BRANCH  26  28
ATOM     28  N   UNL     1       5.425   2.912  11.987  0.00  0.00    +0.000 N 
ATOM     29  O   UNL     1       4.273   3.322  11.770  0.00  0.00    +0.000 OA
ATOM     30  O   UNL     1       5.879   1.816  11.651  0.00  0.00    +0.000 OA
ENDBRANCH  26  28
ENDBRANCH  21  23
ENDBRANCH  20  21
ENDBRANCH  19  20
ENDBRANCH   2  19
TORSDOF 9
ENDMDL
