MODEL 1
REMARK VINA RESULT:      -7.7      0.000      0.000
REMARK  Name = 
REMARK  4 active torsions:
REMARK  status: ('A' for Active; 'I' for Inactive)
REMARK    1  A    between atoms: C_2  and  C_3
REMARK    2  A    between atoms: C_3  and  C_13
REMARK    3  A    between atoms: C_4  and  C_5
REMARK    4  A    between atoms: C_13  and  C_15
REMARK                            x       y       z     vdW  Elec       q    Type
REMARK                         _______ _______ _______ _____ _____    ______ ____
ROOT
ATOM      1  C   UNL     1       6.602   6.279  17.347  0.00  0.00    +0.000 C 
ATOM      2  C   UNL     1       5.438   6.243  18.047  0.00  0.00    +0.000 C 
ENDROOT
BRANCH   2   3
ATOM      3  C   UNL     1       4.553   5.091  18.239  0.00  0.00    +0.000 A 
ATOM      4  C   UNL     1       3.342   5.002  17.540  0.00  0.00    +0.000 A 
ATOM      5  C   UNL     1       2.433   3.975  17.822  0.00  0.00    +0.000 A 
ATOM      6  C   UNL     1       2.739   3.012  18.789  0.00  0.00    +0.000 A 
ATOM      7 CL   UNL     1       1.529   1.842  19.175  0.00  0.00    +0.000 Cl
ATOM      8  C   UNL     1       3.983   3.049  19.428  0.00  0.00    +0.000 A 
ATOM      9 CL   UNL     1       4.450   1.874  20.606  0.00  0.00    +0.000 Cl
ATOM     10  C   UNL     1       4.888   4.082  19.146  0.00  0.00    +0.000 A 
ENDBRANCH   2   3
BRANCH   1  12
ATOM     11  N   UNL     1       8.069   8.640  17.426  0.00  0.00    +0.000 NA
ATOM     12  C   UNL     1       7.404   7.569  17.390  0.00  0.00    +0.000 C 
ENDBRANCH   1  12
BRANCH   1  13
ATOM     13  C   UNL     1       7.241   5.100  16.653  0.00  0.00    +0.000 C 
ATOM     14  O   UNL     1       8.044   4.408  17.272  0.00  0.00    +0.000 OA
BRANCH  13  15
ATOM     15  C   UNL     1       6.903   4.754  15.272  0.00  0.00    +0.000 A 
ATOM     16  C   UNL     1       5.994   3.884  14.681  0.00  0.00    +0.000 A 
ATOM     17  C   UNL     1       6.250   3.839  13.288  0.00  0.00    +0.000 A 
ATOM     18  C   UNL     1       7.265   4.725  13.036  0.00  0.00    +0.000 A 
ATOM     19  N   UNL     1       7.586   5.339  14.218  0.00  0.00    +0.000 N 
ATOM     20  H   UNL     1       8.286   6.063  14.333  0.00  0.00    +0.000 HD
ENDBRANCH  13  15
ENDBRANCH   1  13
TORSDOF 4
ENDMDL
MODEL 2
REMARK VINA RESULT:      -7.3      1.702      3.658
REMARK  Name = 
REMARK  4 active torsions:
REMARK  status: ('A' for Active; 'I' for Inactive)
REMARK    1  A    between atoms: C_2  and  C_3
REMARK    2  A    between atoms: C_3  and  C_13
REMARK    3  A    between atoms: C_4  and  C_5
REMARK    4  A    between atoms: C_13  and  C_15
REMARK                            x       y       z     vdW  Elec       q    Type
REMARK                         _______ _______ _______ _____ _____    ______ ____
ROOT
ATOM      1  C   UNL     1       6.387   4.719  16.428  0.00  0.00    +0.000 C 
ATOM      2  C   UNL     1       5.117   4.241  16.404  0.00  0.00    +0.000 C 
ENDROOT
BRANCH   2   3
ATOM      3  C   UNL     1       4.226   4.030  17.548  0.00  0.00    +0.000 A 
ATOM      4  C   UNL     1       3.865   2.733  17.937  0.00  0.00    +0.000 A 
ATOM      5  C   UNL     1       2.909   2.532  18.941  0.00  0.00    +0.000 A 
ATOM      6  C   UNL     1       2.324   3.628  19.582  0.00  0.00    +0.000 A 
ATOM      7 CL   UNL     1       1.067   3.319  20.725  0.00  0.00    +0.000 Cl
ATOM      8  C   UNL     1       2.743   4.922  19.256  0.00  0.00    +0.000 A 
ATOM      9 CL   UNL     1       2.095   6.324  20.030  0.00  0.00    +0.000 Cl
ATOM     10  C   UNL     1       3.697   5.119  18.247  0.00  0.00    +0.000 A 
ENDBRANCH   2   3
BRANCH   1  12
ATOM     11  N   UNL     1       7.636   5.157  13.982  0.00  0.00    +0.000 NA
ATOM     12  C   UNL     1       7.070   4.958  15.091  0.00  0.00    +0.000 C 
ENDBRANCH   1  12
BRANCH   1  13
ATOM     13  C   UNL     1       7.127   5.174  17.663  0.00  0.00    +0.000 C 
ATOM     14  O   UNL     1       7.480   4.336  18.488  0.00  0.00    +0.000 OA
BRANCH  13  15
ATOM     15  C   UNL     1       7.452   6.584  17.881  0.00  0.00    +0.000 A 
ATOM     16  C   UNL     1       7.097   7.772  17.255  0.00  0.00    +0.000 A 
ATOM     17  C   UNL     1       7.876   8.823  17.801  0.00  0.00    +0.000 A 
ATOM     18  C   UNL     1       8.649   8.277  18.793  0.00  0.00    +0.000 A 
ATOM     19  N   UNL     1       8.318   6.951  18.898  0.00  0.00    +0.000 N 
ATOM     20  H   UNL     1       8.710   6.300  19.568  0.00  0.00    +0.000 HD
ENDBRANCH  13  15
ENDBRANCH   1  13
TORSDOF 4
ENDMDL
MODEL 3
REMARK VINA RESULT:      -7.1      1.549      3.569
REMARK  Name = 
REMARK  4 active torsions:
REMARK  status: ('A' for Active; 'I' for Inactive)
REMARK    1  A    between atoms: C_2  and  C_3
REMARK    2  A    between atoms: C_3  and  C_13
REMARK    3  A    between atoms: C_4  and  C_5
REMARK    4  A    between atoms: C_13  and  C_15
REMARK                            x       y       z     vdW  Elec       q    Type
REMARK                         _______ _______ _______ _____ _____    ______ ____
ROOT
ATOM      1  C   UNL     1       6.278   4.936  16.193  0.00  0.00    +0.000 C 
ATOM      2  C   UNL     1       4.954   4.676  16.038  0.00  0.00    +0.000 C 
ENDROOT
BRANCH   2   3
ATOM      3  C   UNL     1       3.929   4.638  17.085  0.00  0.00    +0.000 A 
ATOM      4  C   UNL     1       3.522   5.817  17.723  0.00  0.00    +0.000 A 
ATOM      5  C   UNL     1       2.646   5.768  18.814  0.00  0.00    +0.000 A 
ATOM      6  C   UNL     1       2.149   4.540  19.261  0.00  0.00    +0.000 A 
ATOM      7 CL   UNL     1       1.168   4.534  20.682  0.00  0.00    +0.000 Cl
ATOM      8  C   UNL     1       2.486   3.369  18.573  0.00  0.00    +0.000 A 
ATOM      9 CL   UNL     1       1.882   1.819  19.041  0.00  0.00    +0.000 Cl
ATOM     10  C   UNL     1       3.367   3.422  17.485  0.00  0.00    +0.000 A 
ENDBRANCH   2   3
BRANCH   1  12
ATOM     11  N   UNL     1       7.824   5.113  13.888  0.00  0.00    +0.000 NA
ATOM     12  C   UNL     1       7.123   5.033  14.933  0.00  0.00    +0.000 C 
ENDBRANCH   1  12
BRANCH   1  13
ATOM     13  C   UNL     1       6.954   5.286  17.497  0.00  0.00    +0.000 C 
ATOM     14  O   UNL     1       7.172   4.394  18.312  0.00  0.00    +0.000 OA
BRANCH  13  15
ATOM     15  C   UNL     1       7.374   6.655  17.794  0.00  0.00    +0.000 A 
ATOM     16  C   UNL     1       7.126   7.896  17.220  0.00  0.00    +0.000 A 
ATOM     17  C   UNL     1       7.964   8.858  17.838  0.00  0.00    +0.000 A 
ATOM     18  C   UNL     1       8.664   8.208  18.822  0.00  0.00    +0.000 A 
ATOM     19  N   UNL     1       8.234   6.908  18.851  0.00  0.00    +0.000 N 
ATOM     20  H   UNL     1       8.557   6.197  19.497  0.00  0.00    +0.000 HD
ENDBRANCH  13  15
ENDBRANCH   1  13
TORSDOF 4
ENDMDL
MODEL 4
REMARK VINA RESULT:      -7.1      4.615      6.439
REMARK  Name = 
REMARK  4 active torsions:
REMARK  status: ('A' for Active; 'I' for Inactive)
REMARK    1  A    between atoms: C_2  and  C_3
REMARK    2  A    between atoms: C_3  and  C_13
REMARK    3  A    between atoms: C_4  and  C_5
REMARK    4  A    between atoms: C_13  and  C_15
REMARK                            x       y       z     vdW  Elec       q    Type
REMARK                         _______ _______ _______ _____ _____    ______ ____
ROOT
ATOM      1  C   UNL     1       3.275   5.341  17.683  0.00  0.00    +0.000 C 
ATOM      2  C   UNL     1       3.436   6.677  17.862  0.00  0.00    +0.000 C 
ENDROOT
BRANCH   2   3
ATOM      3  C   UNL     1       2.467   7.620  18.430  0.00  0.00    +0.000 A 
ATOM      4  C   UNL     1       1.845   8.575  17.615  0.00  0.00    +0.000 A 
ATOM      5  C   UNL     1       1.025   9.562  18.177  0.00  0.00    +0.000 A 
ATOM      6  C   UNL     1       0.801   9.585  19.557  0.00  0.00    +0.000 A 
ATOM      7 CL   UNL     1      -0.121  10.895  20.202  0.00  0.00    +0.000 Cl
ATOM      8  C   UNL     1       1.352   8.583  20.362  0.00  0.00    +0.000 A 
ATOM      9 CL   UNL     1       1.089   8.524  22.069  0.00  0.00    +0.000 Cl
ATOM     10  C   UNL     1       2.175   7.600  19.797  0.00  0.00    +0.000 A 
ENDBRANCH   2   3
BRANCH   1  12
ATOM     11  N   UNL     1       5.469   3.902  16.761  0.00  0.00    +0.000 NA
ATOM     12  C   UNL     1       4.475   4.555  17.179  0.00  0.00    +0.000 C 
ENDBRANCH   1  12
BRANCH   1  13
ATOM     13  C   UNL     1       2.056   4.546  18.082  0.00  0.00    +0.000 C 
ATOM     14  O   UNL     1       1.139   4.417  17.276  0.00  0.00    +0.000 OA
BRANCH  13  15
ATOM     15  C   UNL     1       1.959   3.907  19.395  0.00  0.00    +0.000 A 
ATOM     16  C   UNL     1       1.090   4.026  20.474  0.00  0.00    +0.000 A 
ATOM     17  C   UNL     1       1.608   3.275  21.558  0.00  0.00    +0.000 A 
ATOM     18  C   UNL     1       2.748   2.658  21.112  0.00  0.00    +0.000 A 
ATOM     19  N   UNL     1       2.899   2.967  19.785  0.00  0.00    +0.000 N 
ATOM     20  H   UNL     1       3.640   2.628  19.184  0.00  0.00    +0.000 HD
ENDBRANCH  13  15
ENDBRANCH   1  13
TORSDOF 4
ENDMDL
MODEL 5
REMARK VINA RESULT:      -7.1      0.763      1.669
REMARK  Name = 
REMARK  4 active torsions:
REMARK  status: ('A' for Active; 'I' for Inactive)
REMARK    1  A    between atoms: C_2  and  C_3
REMARK    2  A    between atoms: C_3  and  C_13
REMARK    3  A    between atoms: C_4  and  C_5
REMARK    4  A    between atoms: C_13  and  C_15
REMARK                            x       y       z     vdW  Elec       q    Type
REMARK                         _______ _______ _______ _____ _____    ______ ____
ROOT
ATOM      1  C   UNL     1       6.709   6.388  17.513  0.00  0.00    +0.000 C 
ATOM      2  C   UNL     1       5.577   6.422  18.262  0.00  0.00    +0.000 C 
ENDROOT
BRANCH   2   3
ATOM      3  C   UNL     1       4.656   5.314  18.529  0.00  0.00    +0.000 A 
ATOM      4  C   UNL     1       5.057   4.236  19.330  0.00  0.00    +0.000 A 
ATOM      5  C   UNL     1       4.231   3.114  19.475  0.00  0.00    +0.000 A 
ATOM      6  C   UNL     1       2.986   3.072  18.841  0.00  0.00    +0.000 A 
ATOM      7 CL   UNL     1       2.068   1.614  18.961  0.00  0.00    +0.000 Cl
ATOM      8  C   UNL     1       2.547   4.181  18.110  0.00  0.00    +0.000 A 
ATOM      9 CL   UNL     1       1.006   4.219  17.329  0.00  0.00    +0.000 Cl
ATOM     10  C   UNL     1       3.378   5.300  17.963  0.00  0.00    +0.000 A 
ENDBRANCH   2   3
BRANCH   1  12
ATOM     11  N   UNL     1       8.271   8.688  17.451  0.00  0.00    +0.000 NA
ATOM     12  C   UNL     1       7.563   7.645  17.479  0.00  0.00    +0.000 C 
ENDBRANCH   1  12
BRANCH   1  13
ATOM     13  C   UNL     1       7.270   5.163  16.832  0.00  0.00    +0.000 C 
ATOM     14  O   UNL     1       8.063   4.452  17.443  0.00  0.00    +0.000 OA
BRANCH  13  15
ATOM     15  C   UNL     1       6.869   4.795  15.474  0.00  0.00    +0.000 A 
ATOM     16  C   UNL     1       5.914   3.939  14.939  0.00  0.00    +0.000 A 
ATOM     17  C   UNL     1       6.114   3.854  13.539  0.00  0.00    +0.000 A 
ATOM     18  C   UNL     1       7.143   4.703  13.227  0.00  0.00    +0.000 A 
ATOM     19  N   UNL     1       7.527   5.335  14.380  0.00  0.00    +0.000 N 
ATOM     20  H   UNL     1       8.251   6.041  14.451  0.00  0.00    +0.000 HD
ENDBRANCH  13  15
ENDBRANCH   1  13
TORSDOF 4
ENDMDL
MODEL 6
REMARK VINA RESULT:      -7.1      1.803      3.580
REMARK  Name = 
REMARK  4 active torsions:
REMARK  status: ('A' for Active; 'I' for Inactive)
REMARK    1  A    between atoms: C_2  and  C_3
REMARK    2  A    between atoms: C_3  and  C_13
REMARK    3  A    between atoms: C_4  and  C_5
REMARK    4  A    between atoms: C_13  and  C_15
REMARK                            x       y       z     vdW  Elec       q    Type
REMARK                         _______ _______ _______ _____ _____    ______ ____
ROOT
ATOM      1  C   UNL     1       5.480   4.473  15.380  0.00  0.00    +0.000 C 
ATOM      2  C   UNL     1       4.675   3.573  16.002  0.00  0.00    +0.000 C 
ENDROOT
BRANCH   2   3
ATOM      3  C   UNL     1       3.961   3.749  17.270  0.00  0.00    +0.000 A 
ATOM      4  C   UNL     1       3.001   4.760  17.409  0.00  0.00    +0.000 A 
ATOM      5  C   UNL     1       2.418   5.019  18.656  0.00  0.00    +0.000 A 
ATOM      6  C   UNL     1       2.771   4.251  19.769  0.00  0.00    +0.000 A 
ATOM      7 CL   UNL     1       2.108   4.695  21.300  0.00  0.00    +0.000 Cl
ATOM      8  C   UNL     1       3.666   3.186  19.616  0.00  0.00    +0.000 A 
ATOM      9 CL   UNL     1       4.123   2.169  20.935  0.00  0.00    +0.000 Cl
ATOM     10  C   UNL     1       4.251   2.934  18.367  0.00  0.00    +0.000 A 
ENDBRANCH   2   3
BRANCH   1  12
ATOM     11  N   UNL     1       6.464   3.786  12.871  0.00  0.00    +0.000 NA
ATOM     12  C   UNL     1       6.017   4.098  14.008  0.00  0.00    +0.000 C 
ENDBRANCH   1  12
BRANCH   1  13
ATOM     13  C   UNL     1       5.766   5.873  15.866  0.00  0.00    +0.000 C 
ATOM     14  O   UNL     1       5.174   6.816  15.348  0.00  0.00    +0.000 OA
BRANCH  13  15
ATOM     15  C   UNL     1       6.710   6.124  16.954  0.00  0.00    +0.000 A 
ATOM     16  C   UNL     1       7.148   5.392  18.052  0.00  0.00    +0.000 A 
ATOM     17  C   UNL     1       7.943   6.233  18.870  0.00  0.00    +0.000 A 
ATOM     18  C   UNL     1       8.034   7.444  18.234  0.00  0.00    +0.000 A 
ATOM     19  N   UNL     1       7.371   7.339  17.040  0.00  0.00    +0.000 N 
ATOM     20  H   UNL     1       7.294   8.072  16.344  0.00  0.00    +0.000 HD
ENDBRANCH  13  15
ENDBRANCH   1  13
TORSDOF 4
ENDMDL
MODEL 7
REMARK VINA RESULT:      -7.0      1.705      3.798
REMARK  Name = 
REMARK  4 active torsions:
REMARK  status: ('A' for Active; 'I' for Inactive)
REMARK    1  A    between atoms: C_2  and  C_3
REMARK    2  A    between atoms: C_3  and  C_13
REMARK    3  A    between atoms: C_4  and  C_5
REMARK    4  A    between atoms: C_13  and  C_15
REMARK                            x       y       z     vdW  Elec       q    Type
REMARK                         _______ _______ _______ _____ _____    ______ ____
ROOT
ATOM      1  C   UNL     1       5.456   4.546  15.980  0.00  0.00    +0.000 C 
ATOM      2  C   UNL     1       4.847   3.451  16.502  0.00  0.00    +0.000 C 
ENDROOT
BRANCH   2   3
ATOM      3  C   UNL     1       4.079   3.371  17.748  0.00  0.00    +0.000 A 
ATOM      4  C   UNL     1       4.706   3.577  18.983  0.00  0.00    +0.000 A 
ATOM      5  C   UNL     1       4.007   3.367  20.179  0.00  0.00    +0.000 A 
ATOM      6  C   UNL     1       2.666   2.974  20.148  0.00  0.00    +0.000 A 
ATOM      7 CL   UNL     1       1.894   2.617  21.651  0.00  0.00    +0.000 Cl
ATOM      8  C   UNL     1       2.012   2.850  18.917  0.00  0.00    +0.000 A 
ATOM      9 CL   UNL     1       0.347   2.405  18.799  0.00  0.00    +0.000 Cl
ATOM     10  C   UNL     1       2.717   3.056  17.723  0.00  0.00    +0.000 A 
ENDBRANCH   2   3
BRANCH   1  12
ATOM     11  N   UNL     1       6.630   4.284  13.473  0.00  0.00    +0.000 NA
ATOM     12  C   UNL     1       6.098   4.403  14.610  0.00  0.00    +0.000 C 
ENDBRANCH   1  12
BRANCH   1  13
ATOM     13  C   UNL     1       5.422   5.933  16.577  0.00  0.00    +0.000 C 
ATOM     14  O   UNL     1       4.390   6.593  16.490  0.00  0.00    +0.000 OA
BRANCH  13  15
ATOM     15  C   UNL     1       6.580   6.491  17.274  0.00  0.00    +0.000 A 
ATOM     16  C   UNL     1       7.379   6.067  18.330  0.00  0.00    +0.000 A 
ATOM     17  C   UNL     1       8.249   7.124  18.693  0.00  0.00    +0.000 A 
ATOM     18  C   UNL     1       8.018   8.155  17.820  0.00  0.00    +0.000 A 
ATOM     19  N   UNL     1       7.082   7.731  16.913  0.00  0.00    +0.000 N 
ATOM     20  H   UNL     1       6.735   8.273  16.131  0.00  0.00    +0.000 HD
ENDBRANCH  13  15
ENDBRANCH   1  13
TORSDOF 4
ENDMDL
MODEL 8
REMARK VINA RESULT:      -6.9      1.824      3.691
REMARK  Name = 
REMARK  4 active torsions:
REMARK  status: ('A' for Active; 'I' for Inactive)
REMARK    1  A    between atoms: C_2  and  C_3
REMARK    2  A    between atoms: C_3  and  C_13
REMARK    3  A    between atoms: C_4  and  C_5
REMARK    4  A    between atoms: C_13  and  C_15
REMARK                            x       y       z     vdW  Elec       q    Type
REMARK                         _______ _______ _______ _____ _____    ______ ____
ROOT
ATOM      1  C   UNL     1       6.374   4.951  16.156  0.00  0.00    +0.000 C 
ATOM      2  C   UNL     1       5.040   4.701  16.111  0.00  0.00    +0.000 C 
ENDROOT
BRANCH   2   3
ATOM      3  C   UNL     1       4.120   4.590  17.247  0.00  0.00    +0.000 A 
ATOM      4  C   UNL     1       3.601   3.344  17.620  0.00  0.00    +0.000 A 
ATOM      5  C   UNL     1       2.618   3.253  18.614  0.00  0.00    +0.000 A 
ATOM      6  C   UNL     1       2.165   4.406  19.261  0.00  0.00    +0.000 A 
ATOM      7 CL   UNL     1       0.869   4.242  20.391  0.00  0.00    +0.000 Cl
ATOM      8  C   UNL     1       2.741   5.642  18.950  0.00  0.00    +0.000 A 
ATOM      9 CL   UNL     1       2.261   7.106  19.732  0.00  0.00    +0.000 Cl
ATOM     10  C   UNL     1       3.721   5.730  17.952  0.00  0.00    +0.000 A 
ENDBRANCH   2   3
BRANCH   1  12
ATOM     11  N   UNL     1       7.692   5.288  13.730  0.00  0.00    +0.000 NA
ATOM     12  C   UNL     1       7.095   5.135  14.830  0.00  0.00    +0.000 C 
ENDBRANCH   1  12
BRANCH   1  13
ATOM     13  C   UNL     1       7.174   5.208  17.410  0.00  0.00    +0.000 C 
ATOM     14  O   UNL     1       7.445   4.265  18.148  0.00  0.00    +0.000 OA
BRANCH  13  15
ATOM     15  C   UNL     1       7.652   6.550  17.746  0.00  0.00    +0.000 A 
ATOM     16  C   UNL     1       8.363   7.091  18.811  0.00  0.00    +0.000 A 
ATOM     17  C   UNL     1       8.374   8.502  18.677  0.00  0.00    +0.000 A 
ATOM     18  C   UNL     1       7.729   8.801  17.506  0.00  0.00    +0.000 A 
ATOM     19  N   UNL     1       7.382   7.618  16.906  0.00  0.00    +0.000 N 
ATOM     20  H   UNL     1       6.916   7.528  16.011  0.00  0.00    +0.000 HD
ENDBRANCH  13  15
ENDBRANCH   1  13
TORSDOF 4
ENDMDL
MODEL 9
REMARK VINA RESULT:      -6.9      4.615      6.561
REMARK  Name = 
REMARK  4 active torsions:
REMARK  status: ('A' for Active; 'I' for Inactive)
REMARK    1  A    between atoms: C_2  and  C_3
REMARK    2  A    between atoms: C_3  and  C_13
REMARK    3  A    between atoms: C_4  and  C_5
REMARK    4  A    between atoms: C_13  and  C_15
REMARK                            x       y       z     vdW  Elec       q    Type
REMARK                         _______ _______ _______ _____ _____    ______ ____
ROOT
ATOM      1  C   UNL     1       3.200   5.155  17.641  0.00  0.00    +0.000 C 
ATOM      2  C   UNL     1       3.474   6.432  18.015  0.00  0.00    +0.000 C 
ENDROOT
BRANCH   2   3
ATOM      3  C   UNL     1       2.638   7.315  18.833  0.00  0.00    +0.000 A 
ATOM      4  C   UNL     1       2.346   6.984  20.163  0.00  0.00    +0.000 A 
ATOM      5  C   UNL     1       1.439   7.753  20.903  0.00  0.00    +0.000 A 
ATOM      6  C   UNL     1       0.835   8.875  20.327  0.00  0.00    +0.000 A 
ATOM      7 CL   UNL     1      -0.362   9.711  21.249  0.00  0.00    +0.000 Cl
ATOM      8  C   UNL     1       1.189   9.257  19.028  0.00  0.00    +0.000 A 
ATOM      9 CL   UNL     1       0.515  10.651  18.262  0.00  0.00    +0.000 Cl
ATOM     10  C   UNL     1       2.093   8.482  18.289  0.00  0.00    +0.000 A 
ENDBRANCH   2   3
BRANCH   1  12
ATOM     11  N   UNL     1       5.180   3.777  16.257  0.00  0.00    +0.000 NA
ATOM     12  C   UNL     1       4.282   4.402  16.885  0.00  0.00    +0.000 C 
ENDBRANCH   1  12
BRANCH   1  13
ATOM     13  C   UNL     1       1.974   4.370  18.042  0.00  0.00    +0.000 C 
ATOM     14  O   UNL     1       1.047   4.267  17.244  0.00  0.00    +0.000 OA
BRANCH  13  15
ATOM     15  C   UNL     1       1.883   3.712  19.345  0.00  0.00    +0.000 A 
ATOM     16  C   UNL     1       0.882   3.579  20.301  0.00  0.00    +0.000 A 
ATOM     17  C   UNL     1       1.438   2.981  21.459  0.00  0.00    +0.000 A 
ATOM     18  C   UNL     1       2.750   2.700  21.178  0.00  0.00    +0.000 A 
ATOM     19  N   UNL     1       2.982   3.055  19.875  0.00  0.00    +0.000 N 
ATOM     20  H   UNL     1       3.859   2.937  19.381  0.00  0.00    +0.000 HD
ENDBRANCH  13  15
ENDBRANCH   1  13
TORSDOF 4
ENDMDL
