MODEL 1
REMARK VINA RESULT:      -6.8      0.000      0.000
REMARK  Name = 
REMARK  5 active torsions:
REMARK  status: ('A' for Active; 'I' for Inactive)
REMARK    1  A    between atoms: C_1  and  O_2
REMARK    2  A    between atoms: O_2  and  C_3
REMARK    3  A    between atoms: C_3  and  C_4
REMARK    4  A    between atoms: C_4  and  N_5
REMARK    5  A    between atoms: C_15  and  C_16
REMARK                            x       y       z     vdW  Elec       q    Type
REMARK                         _______ _______ _______ _____ _____    ______ ____
ROOT
ATOM      1  N   UNL     1       5.704   4.149  17.403  0.00  0.00    +0.000 N 
ATOM      2  C   UNL     1       5.105   3.273  18.407  0.00  0.00    +0.000 C 
ATOM      3  C   UNL     1       3.735   3.772  18.896  0.00  0.00    +0.000 C 
ATOM      4  C   UNL     1       3.081   2.717  19.826  0.00  0.00    +0.000 C 
ATOM      5  C   UNL     1       1.787   3.233  20.461  0.00  0.00    +0.000 C 
ATOM      6  C   UNL     1       1.989   4.564  21.184  0.00  0.00    +0.000 C 
ATOM      7  N   UNL     1       2.693   5.506  20.324  0.00  0.00    +0.000 N 
ATOM      8  C   UNL     1       2.204   6.757  20.014  0.00  0.00    +0.000 A 
ATOM      9  C   UNL     1       1.344   7.438  20.869  0.00  0.00    +0.000 A 
ATOM     10  C   UNL     1       0.853   8.698  20.521  0.00  0.00    +0.000 A 
ATOM     11  C   UNL     1       1.229   9.259  19.308  0.00  0.00    +0.000 A 
ATOM     12  C   UNL     1       2.097   8.540  18.512  0.00  0.00    +0.000 A 
ATOM     13  N   UNL     1       2.586   7.325  18.849  0.00  0.00    +0.000 NA
ATOM     14  C   UNL     1       3.944   5.063  19.715  0.00  0.00    +0.000 C 
ATOM     15  C   UNL     1       2.866   3.970  17.634  0.00  0.00    +0.000 C 
ATOM     16  C   UNL     1       3.509   4.893  16.616  0.00  0.00    +0.000 C 
ATOM     17  C   UNL     1       4.961   4.601  16.318  0.00  0.00    +0.000 C 
ATOM     18  O   UNL     1       5.465   4.968  15.256  0.00  0.00    +0.000 OA
ENDROOT
BRANCH  11  19
ATOM     19  C   UNL     1       0.751  10.536  18.902  0.00  0.00    +0.000 C 
ATOM     20  N   UNL     1       0.366  11.585  18.574  0.00  0.00    +0.000 NA
ENDBRANCH  11  19
BRANCH   1  21
ATOM     21  C   UNL     1       7.035   4.741  17.572  0.00  0.00    +0.000 C 
BRANCH  21  22
ATOM     22  C   UNL     1       7.128   6.161  18.118  0.00  0.00    +0.000 C 
BRANCH  22  24
ATOM     23  C   UNL     1       7.835   8.339  17.600  0.00  0.00    +0.000 C 
ATOM     24  O   UNL     1       7.462   7.073  17.076  0.00  0.00    +0.000 OA
ENDBRANCH  22  24
ENDBRANCH  21  22
ENDBRANCH   1  21
TORSDOF 4
ENDMDL
MODEL 2
REMARK VINA RESULT:      -6.6      3.099      6.240
REMARK  Name = 
REMARK  5 active torsions:
REMARK  status: ('A' for Active; 'I' for Inactive)
REMARK    1  A    between atoms: C_1  and  O_2
REMARK    2  A    between atoms: O_2  and  C_3
REMARK    3  A    between atoms: C_3  and  C_4
REMARK    4  A    between atoms: C_4  and  N_5
REMARK    5  A    between atoms: C_15  and  C_16
REMARK                            x       y       z     vdW  Elec       q    Type
REMARK                         _______ _______ _______ _____ _____    ______ ____
ROOT
ATOM      1  N   UNL     1       2.368   3.186  20.418  0.00  0.00    +0.000 N 
ATOM      2  C   UNL     1       2.256   4.630  20.606  0.00  0.00    +0.000 C 
ATOM      3  C   UNL     1       2.507   5.423  19.314  0.00  0.00    +0.000 C 
ATOM      4  C   UNL     1       2.206   6.928  19.541  0.00  0.00    +0.000 C 
ATOM      5  C   UNL     1       2.588   7.781  18.328  0.00  0.00    +0.000 C 
ATOM      6  C   UNL     1       4.039   7.560  17.902  0.00  0.00    +0.000 C 
ATOM      7  N   UNL     1       4.324   6.136  17.791  0.00  0.00    +0.000 N 
ATOM      8  C   UNL     1       4.824   5.553  16.646  0.00  0.00    +0.000 A 
ATOM      9  C   UNL     1       5.597   6.270  15.738  0.00  0.00    +0.000 A 
ATOM     10  C   UNL     1       6.078   5.655  14.581  0.00  0.00    +0.000 A 
ATOM     11  C   UNL     1       5.769   4.322  14.343  0.00  0.00    +0.000 A 
ATOM     12  C   UNL     1       5.011   3.663  15.290  0.00  0.00    +0.000 A 
ATOM     13  N   UNL     1       4.554   4.249  16.420  0.00  0.00    +0.000 NA
ATOM     14  C   UNL     1       3.996   5.289  18.933  0.00  0.00    +0.000 C 
ATOM     15  C   UNL     1       1.540   4.849  18.253  0.00  0.00    +0.000 C 
ATOM     16  C   UNL     1       1.689   3.350  18.074  0.00  0.00    +0.000 C 
ATOM     17  C   UNL     1       1.731   2.553  19.357  0.00  0.00    +0.000 C 
ATOM     18  O   UNL     1       1.428   1.360  19.359  0.00  0.00    +0.000 OA
ENDROOT
BRANCH  11  19
ATOM     19  C   UNL     1       6.227   3.652  13.175  0.00  0.00    +0.000 C 
ATOM     20  N   UNL     1       6.594   3.101  12.217  0.00  0.00    +0.000 NA
ENDBRANCH  11  19
BRANCH   1  21
ATOM     21  C   UNL     1       3.288   2.361  21.209  0.00  0.00    +0.000 C 
BRANCH  21  22
ATOM     22  C   UNL     1       4.584   1.897  20.554  0.00  0.00    +0.000 C 
BRANCH  22  24
ATOM     23  C   UNL     1       5.772   0.164  21.601  0.00  0.00    +0.000 C 
ATOM     24  O   UNL     1       5.551   1.565  21.546  0.00  0.00    +0.000 OA
ENDBRANCH  22  24
ENDBRANCH  21  22
ENDBRANCH   1  21
TORSDOF 4
ENDMDL
MODEL 3
REMARK VINA RESULT:      -6.5      2.623      4.517
REMARK  Name = 
REMARK  5 active torsions:
REMARK  status: ('A' for Active; 'I' for Inactive)
REMARK    1  A    between atoms: C_1  and  O_2
REMARK    2  A    between atoms: O_2  and  C_3
REMARK    3  A    between atoms: C_3  and  C_4
REMARK    4  A    between atoms: C_4  and  N_5
REMARK    5  A    between atoms: C_15  and  C_16
REMARK                            x       y       z     vdW  Elec       q    Type
REMARK                         _______ _______ _______ _____ _____    ______ ____
ROOT
ATOM      1  N   UNL     1       3.849   2.644  18.486  0.00  0.00    +0.000 N 
ATOM      2  C   UNL     1       4.328   3.387  17.323  0.00  0.00    +0.000 C 
ATOM      3  C   UNL     1       4.375   4.905  17.560  0.00  0.00    +0.000 C 
ATOM      4  C   UNL     1       5.048   5.615  16.357  0.00  0.00    +0.000 C 
ATOM      5  C   UNL     1       4.980   7.140  16.476  0.00  0.00    +0.000 C 
ATOM      6  C   UNL     1       3.551   7.639  16.690  0.00  0.00    +0.000 C 
ATOM      7  N   UNL     1       2.907   6.889  17.760  0.00  0.00    +0.000 N 
ATOM      8  C   UNL     1       2.342   7.486  18.866  0.00  0.00    +0.000 A 
ATOM      9  C   UNL     1       1.843   8.784  18.822  0.00  0.00    +0.000 A 
ATOM     10  C   UNL     1       1.288   9.367  19.963  0.00  0.00    +0.000 A 
ATOM     11  C   UNL     1       1.248   8.639  21.144  0.00  0.00    +0.000 A 
ATOM     12  C   UNL     1       1.745   7.351  21.119  0.00  0.00    +0.000 A 
ATOM     13  N   UNL     1       2.271   6.775  20.013  0.00  0.00    +0.000 NA
ATOM     14  C   UNL     1       2.929   5.432  17.675  0.00  0.00    +0.000 C 
ATOM     15  C   UNL     1       5.219   5.122  18.837  0.00  0.00    +0.000 C 
ATOM     16  C   UNL     1       4.690   4.347  20.029  0.00  0.00    +0.000 C 
ATOM     17  C   UNL     1       4.361   2.898  19.754  0.00  0.00    +0.000 C 
ATOM     18  O   UNL     1       4.336   2.079  20.673  0.00  0.00    +0.000 OA
ENDROOT
BRANCH  11  19
ATOM     19  C   UNL     1       0.702   9.189  22.337  0.00  0.00    +0.000 C 
ATOM     20  N   UNL     1       0.256   9.633  23.316  0.00  0.00    +0.000 NA
ENDBRANCH  11  19
BRANCH   1  21
ATOM     21  C   UNL     1       2.698   1.738  18.419  0.00  0.00    +0.000 C 
BRANCH  21  22
ATOM     22  C   UNL     1       1.306   2.326  18.622  0.00  0.00    +0.000 C 
BRANCH  22  24
ATOM     23  C   UNL     1       0.898   3.729  20.460  0.00  0.00    +0.000 C 
ATOM     24  O   UNL     1       0.989   2.385  20.010  0.00  0.00    +0.000 OA
ENDBRANCH  22  24
ENDBRANCH  21  22
ENDBRANCH   1  21
TORSDOF 4
ENDMDL
MODEL 4
REMARK VINA RESULT:      -6.1      2.822      6.203
REMARK  Name = 
REMARK  5 active torsions:
REMARK  status: ('A' for Active; 'I' for Inactive)
REMARK    1  A    between atoms: C_1  and  O_2
REMARK    2  A    between atoms: O_2  and  C_3
REMARK    3  A    between atoms: C_3  and  C_4
REMARK    4  A    between atoms: C_4  and  N_5
REMARK    5  A    between atoms: C_15  and  C_16
REMARK                            x       y       z     vdW  Elec       q    Type
REMARK                         _______ _______ _______ _____ _____    ______ ____
ROOT
ATOM      1  N   UNL     1       1.905   3.563  20.173  0.00  0.00    +0.000 N 
ATOM      2  C   UNL     1       1.962   5.010  20.365  0.00  0.00    +0.000 C 
ATOM      3  C   UNL     1       2.382   5.766  19.094  0.00  0.00    +0.000 C 
ATOM      4  C   UNL     1       2.258   7.296  19.314  0.00  0.00    +0.000 C 
ATOM      5  C   UNL     1       2.811   8.095  18.131  0.00  0.00    +0.000 C 
ATOM      6  C   UNL     1       4.245   7.696  17.785  0.00  0.00    +0.000 C 
ATOM      7  N   UNL     1       4.357   6.247  17.680  0.00  0.00    +0.000 N 
ATOM      8  C   UNL     1       4.844   5.607  16.561  0.00  0.00    +0.000 A 
ATOM      9  C   UNL     1       5.749   6.221  15.702  0.00  0.00    +0.000 A 
ATOM     10  C   UNL     1       6.215   5.552  14.569  0.00  0.00    +0.000 A 
ATOM     11  C   UNL     1       5.756   4.268  14.305  0.00  0.00    +0.000 A 
ATOM     12  C   UNL     1       4.871   3.708  15.203  0.00  0.00    +0.000 A 
ATOM     13  N   UNL     1       4.427   4.346  16.311  0.00  0.00    +0.000 NA
ATOM     14  C   UNL     1       3.862   5.447  18.796  0.00  0.00    +0.000 C 
ATOM     15  C   UNL     1       1.412   5.316  17.977  0.00  0.00    +0.000 C 
ATOM     16  C   UNL     1       1.384   3.810  17.796  0.00  0.00    +0.000 C 
ATOM     17  C   UNL     1       1.255   3.015  19.073  0.00  0.00    +0.000 C 
ATOM     18  O   UNL     1       0.807   1.868  19.051  0.00  0.00    +0.000 OA
ENDROOT
BRANCH  11  19
ATOM     19  C   UNL     1       6.192   3.546  13.159  0.00  0.00    +0.000 C 
ATOM     20  N   UNL     1       6.556   2.957  12.224  0.00  0.00    +0.000 NA
ENDBRANCH  11  19
BRANCH   1  21
ATOM     21  C   UNL     1       2.670   2.630  21.008  0.00  0.00    +0.000 C 
BRANCH  21  22
ATOM     22  C   UNL     1       4.125   2.361  20.641  0.00  0.00    +0.000 C 
BRANCH  22  24
ATOM     23  C   UNL     1       4.096   1.057  18.689  0.00  0.00    +0.000 C 
ATOM     24  O   UNL     1       4.287   2.358  19.226  0.00  0.00    +0.000 OA
ENDBRANCH  22  24
ENDBRANCH  21  22
ENDBRANCH   1  21
TORSDOF 4
ENDMDL
MODEL 5
REMARK VINA RESULT:      -5.8      3.866      7.891
REMARK  Name = 
REMARK  5 active torsions:
REMARK  status: ('A' for Active; 'I' for Inactive)
REMARK    1  A    between atoms: C_1  and  O_2
REMARK    2  A    between atoms: O_2  and  C_3
REMARK    3  A    between atoms: C_3  and  C_4
REMARK    4  A    between atoms: C_4  and  N_5
REMARK    5  A    between atoms: C_15  and  C_16
REMARK                            x       y       z     vdW  Elec       q    Type
REMARK                         _______ _______ _______ _____ _____    ______ ____
ROOT
ATOM      1  N   UNL     1      -1.572  12.210  19.295  0.00  0.00    +0.000 N 
ATOM      2  C   UNL     1      -1.627  11.752  20.681  0.00  0.00    +0.000 C 
ATOM      3  C   UNL     1      -0.414  10.895  21.077  0.00  0.00    +0.000 C 
ATOM      4  C   UNL     1      -0.448  10.587  22.596  0.00  0.00    +0.000 C 
ATOM      5  C   UNL     1       0.655   9.609  23.010  0.00  0.00    +0.000 C 
ATOM      6  C   UNL     1       0.630   8.326  22.181  0.00  0.00    +0.000 C 
ATOM      7  N   UNL     1       0.563   8.642  20.760  0.00  0.00    +0.000 N 
ATOM      8  C   UNL     1       1.476   8.175  19.839  0.00  0.00    +0.000 A 
ATOM      9  C   UNL     1       2.166   6.983  20.033  0.00  0.00    +0.000 A 
ATOM     10  C   UNL     1       3.094   6.542  19.088  0.00  0.00    +0.000 A 
ATOM     11  C   UNL     1       3.326   7.312  17.956  0.00  0.00    +0.000 A 
ATOM     12  C   UNL     1       2.597   8.476  17.814  0.00  0.00    +0.000 A 
ATOM     13  N   UNL     1       1.686   8.902  18.719  0.00  0.00    +0.000 NA
ATOM     14  C   UNL     1      -0.488   9.553  20.318  0.00  0.00    +0.000 C 
ATOM     15  C   UNL     1       0.841  11.732  20.740  0.00  0.00    +0.000 C 
ATOM     16  C   UNL     1       0.874  12.182  19.291  0.00  0.00    +0.000 C 
ATOM     17  C   UNL     1      -0.414  12.781  18.778  0.00  0.00    +0.000 C 
ATOM     18  O   UNL     1      -0.406  13.544  17.812  0.00  0.00    +0.000 OA
ENDROOT
BRANCH  11  19
ATOM     19  C   UNL     1       4.267   6.913  16.967  0.00  0.00    +0.000 C 
ATOM     20  N   UNL     1       5.043   6.586  16.163  0.00  0.00    +0.000 NA
ENDBRANCH  11  19
BRANCH   1  21
ATOM     21  C   UNL     1      -2.645  11.933  18.334  0.00  0.00    +0.000 C 
BRANCH  21  22
ATOM     22  C   UNL     1      -2.597  10.621  17.558  0.00  0.00    +0.000 C 
BRANCH  22  24
ATOM     23  C   UNL     1      -3.357  10.775  15.342  0.00  0.00    +0.000 C 
ATOM     24  O   UNL     1      -2.230  10.859  16.203  0.00  0.00    +0.000 OA
ENDBRANCH  22  24
ENDBRANCH  21  22
ENDBRANCH   1  21
TORSDOF 4
ENDMDL
MODEL 6
REMARK VINA RESULT:      -5.7      1.043      1.110
REMARK  Name = 
REMARK  5 active torsions:
REMARK  status: ('A' for Active; 'I' for Inactive)
REMARK    1  A    between atoms: C_1  and  O_2
REMARK    2  A    between atoms: O_2  and  C_3
REMARK    3  A    between atoms: C_3  and  C_4
REMARK    4  A    between atoms: C_4  and  N_5
REMARK    5  A    between atoms: C_15  and  C_16
REMARK                            x       y       z     vdW  Elec       q    Type
REMARK                         _______ _______ _______ _____ _____    ______ ____
ROOT
ATOM      1  N   UNL     1       5.596   4.624  17.337  0.00  0.00    +0.000 N 
ATOM      2  C   UNL     1       5.049   3.721  18.346  0.00  0.00    +0.000 C 
ATOM      3  C   UNL     1       3.674   4.169  18.867  0.00  0.00    +0.000 C 
ATOM      4  C   UNL     1       3.076   3.086  19.802  0.00  0.00    +0.000 C 
ATOM      5  C   UNL     1       1.779   3.552  20.468  0.00  0.00    +0.000 C 
ATOM      6  C   UNL     1       1.951   4.885  21.197  0.00  0.00    +0.000 C 
ATOM      7  N   UNL     1       2.604   5.856  20.330  0.00  0.00    +0.000 N 
ATOM      8  C   UNL     1       2.065   7.091  20.040  0.00  0.00    +0.000 A 
ATOM      9  C   UNL     1       1.200   7.736  20.918  0.00  0.00    +0.000 A 
ATOM     10  C   UNL     1       0.660   8.982  20.590  0.00  0.00    +0.000 A 
ATOM     11  C   UNL     1       0.990   9.564  19.374  0.00  0.00    +0.000 A 
ATOM     12  C   UNL     1       1.866   8.880  18.554  0.00  0.00    +0.000 A 
ATOM     13  N   UNL     1       2.404   7.680  18.872  0.00  0.00    +0.000 NA
ATOM     14  C   UNL     1       3.856   5.461  19.692  0.00  0.00    +0.000 C 
ATOM     15  C   UNL     1       2.772   4.346  17.625  0.00  0.00    +0.000 C 
ATOM     16  C   UNL     1       3.362   5.297  16.602  0.00  0.00    +0.000 C 
ATOM     17  C   UNL     1       4.816   5.058  16.270  0.00  0.00    +0.000 C 
ATOM     18  O   UNL     1       5.285   5.450  15.201  0.00  0.00    +0.000 OA
ENDROOT
BRANCH  11  19
ATOM     19  C   UNL     1       0.461  10.827  18.988  0.00  0.00    +0.000 C 
ATOM     20  N   UNL     1       0.024  11.860  18.680  0.00  0.00    +0.000 NA
ENDBRANCH  11  19
BRANCH   1  21
ATOM     21  C   UNL     1       6.910   5.260  17.483  0.00  0.00    +0.000 C 
BRANCH  21  22
ATOM     22  C   UNL     1       8.093   4.385  17.885  0.00  0.00    +0.000 C 
BRANCH  22  24
ATOM     23  C   UNL     1       7.803   5.821  19.719  0.00  0.00    +0.000 C 
ATOM     24  O   UNL     1       8.569   4.757  19.175  0.00  0.00    +0.000 OA
ENDBRANCH  22  24
ENDBRANCH  21  22
ENDBRANCH   1  21
TORSDOF 4
ENDMDL
MODEL 7
REMARK VINA RESULT:      -5.4      7.235     10.629
REMARK  Name = 
REMARK  5 active torsions:
REMARK  status: ('A' for Active; 'I' for Inactive)
REMARK    1  A    between atoms: C_1  and  O_2
REMARK    2  A    between atoms: O_2  and  C_3
REMARK    3  A    between atoms: C_3  and  C_4
REMARK    4  A    between atoms: C_4  and  N_5
REMARK    5  A    between atoms: C_15  and  C_16
REMARK                            x       y       z     vdW  Elec       q    Type
REMARK                         _______ _______ _______ _____ _____    ______ ____
ROOT
ATOM      1  N   UNL     1       9.780  11.015  18.578  0.00  0.00    +0.000 N 
ATOM      2  C   UNL     1      10.743  11.640  17.674  0.00  0.00    +0.000 C 
ATOM      3  C   UNL     1      10.990  13.123  17.995  0.00  0.00    +0.000 C 
ATOM      4  C   UNL     1      12.141  13.677  17.115  0.00  0.00    +0.000 C 
ATOM      5  C   UNL     1      12.321  15.187  17.288  0.00  0.00    +0.000 C 
ATOM      6  C   UNL     1      11.021  15.955  17.052  0.00  0.00    +0.000 C 
ATOM      7  N   UNL     1       9.933  15.354  17.814  0.00  0.00    +0.000 N 
ATOM      8  C   UNL     1       9.157  16.061  18.707  0.00  0.00    +0.000 A 
ATOM      9  C   UNL     1       8.950  17.430  18.572  0.00  0.00    +0.000 A 
ATOM     10  C   UNL     1       8.169  18.121  19.501  0.00  0.00    +0.000 A 
ATOM     11  C   UNL     1       7.609  17.427  20.564  0.00  0.00    +0.000 A 
ATOM     12  C   UNL     1       7.839  16.068  20.633  0.00  0.00    +0.000 A 
ATOM     13  N   UNL     1       8.582  15.389  19.729  0.00  0.00    +0.000 NA
ATOM     14  C   UNL     1       9.711  13.920  17.662  0.00  0.00    +0.000 C 
ATOM     15  C   UNL     1      11.392  13.187  19.486  0.00  0.00    +0.000 C 
ATOM     16  C   UNL     1      10.367  12.541  20.399  0.00  0.00    +0.000 C 
ATOM     17  C   UNL     1       9.883  11.180  19.955  0.00  0.00    +0.000 C 
ATOM     18  O   UNL     1       9.407  10.391  20.771  0.00  0.00    +0.000 OA
ENDROOT
BRANCH  11  19
ATOM     19  C   UNL     1       6.813  18.085  21.543  0.00  0.00    +0.000 C 
ATOM     20  N   UNL     1       6.163  18.631  22.340  0.00  0.00    +0.000 NA
ENDBRANCH  11  19
BRANCH   1  21
ATOM     21  C   UNL     1       8.567  10.348  18.092  0.00  0.00    +0.000 C 
BRANCH  21  22
ATOM     22  C   UNL     1       8.455   8.838  18.272  0.00  0.00    +0.000 C 
BRANCH  22  24
ATOM     23  C   UNL     1       7.189   7.013  17.512  0.00  0.00    +0.000 C 
ATOM     24  O   UNL     1       7.783   8.254  17.160  0.00  0.00    +0.000 OA
ENDBRANCH  22  24
ENDBRANCH  21  22
ENDBRANCH   1  21
TORSDOF 4
ENDMDL
MODEL 8
REMARK VINA RESULT:      -5.3      7.983      9.624
REMARK  Name = 
REMARK  5 active torsions:
REMARK  status: ('A' for Active; 'I' for Inactive)
REMARK    1  A    between atoms: C_1  and  O_2
REMARK    2  A    between atoms: O_2  and  C_3
REMARK    3  A    between atoms: C_3  and  C_4
REMARK    4  A    between atoms: C_4  and  N_5
REMARK    5  A    between atoms: C_15  and  C_16
REMARK                            x       y       z     vdW  Elec       q    Type
REMARK                         _______ _______ _______ _____ _____    ______ ____
ROOT
ATOM      1  N   UNL     1       1.018  14.536  21.428  0.00  0.00    +0.000 N 
ATOM      2  C   UNL     1      -0.029  14.438  22.443  0.00  0.00    +0.000 C 
ATOM      3  C   UNL     1      -1.096  13.384  22.102  0.00  0.00    +0.000 C 
ATOM      4  C   UNL     1      -2.076  13.210  23.291  0.00  0.00    +0.000 C 
ATOM      5  C   UNL     1      -3.245  12.286  22.942  0.00  0.00    +0.000 C 
ATOM      6  C   UNL     1      -3.977  12.733  21.677  0.00  0.00    +0.000 C 
ATOM      7  N   UNL     1      -3.026  12.985  20.603  0.00  0.00    +0.000 N 
ATOM      8  C   UNL     1      -3.100  12.374  19.370  0.00  0.00    +0.000 A 
ATOM      9  C   UNL     1      -4.310  11.931  18.845  0.00  0.00    +0.000 A 
ATOM     10  C   UNL     1      -4.351  11.303  17.599  0.00  0.00    +0.000 A 
ATOM     11  C   UNL     1      -3.169  11.120  16.893  0.00  0.00    +0.000 A 
ATOM     12  C   UNL     1      -2.005  11.596  17.461  0.00  0.00    +0.000 A 
ATOM     13  N   UNL     1      -1.960  12.218  18.662  0.00  0.00    +0.000 NA
ATOM     14  C   UNL     1      -1.907  13.879  20.886  0.00  0.00    +0.000 C 
ATOM     15  C   UNL     1      -0.338  12.061  21.848  0.00  0.00    +0.000 C 
ATOM     16  C   UNL     1       0.733  12.193  20.783  0.00  0.00    +0.000 C 
ATOM     17  C   UNL     1       1.637  13.395  20.930  0.00  0.00    +0.000 C 
ATOM     18  O   UNL     1       2.759  13.397  20.422  0.00  0.00    +0.000 OA
ENDROOT
BRANCH  11  19
ATOM     19  C   UNL     1      -3.156  10.479  15.623  0.00  0.00    +0.000 C 
ATOM     20  N   UNL     1      -3.150   9.949  14.586  0.00  0.00    +0.000 NA
ENDBRANCH  11  19
BRANCH   1  21
ATOM     21  C   UNL     1       1.341  15.798  20.755  0.00  0.00    +0.000 C 
BRANCH  21  22
ATOM     22  C   UNL     1       0.704  16.075  19.398  0.00  0.00    +0.000 C 
BRANCH  22  24
ATOM     23  C   UNL     1       2.911  16.567  18.765  0.00  0.00    +0.000 C 
ATOM     24  O   UNL     1       1.679  15.985  18.363  0.00  0.00    +0.000 OA
ENDBRANCH  22  24
ENDBRANCH  21  22
ENDBRANCH   1  21
TORSDOF 4
ENDMDL
MODEL 9
REMARK VINA RESULT:      -5.2      7.834      9.778
REMARK  Name = 
REMARK  5 active torsions:
REMARK  status: ('A' for Active; 'I' for Inactive)
REMARK    1  A    between atoms: C_1  and  O_2
REMARK    2  A    between atoms: O_2  and  C_3
REMARK    3  A    between atoms: C_3  and  C_4
REMARK    4  A    between atoms: C_4  and  N_5
REMARK    5  A    between atoms: C_15  and  C_16
REMARK                            x       y       z     vdW  Elec       q    Type
REMARK                         _______ _______ _______ _____ _____    ______ ____
ROOT
ATOM      1  N   UNL     1       1.221  14.456  21.004  0.00  0.00    +0.000 N 
ATOM      2  C   UNL     1       0.289  14.333  22.123  0.00  0.00    +0.000 C 
ATOM      3  C   UNL     1      -0.809  13.286  21.875  0.00  0.00    +0.000 C 
ATOM      4  C   UNL     1      -1.656  13.084  23.158  0.00  0.00    +0.000 C 
ATOM      5  C   UNL     1      -2.857  12.166  22.916  0.00  0.00    +0.000 C 
ATOM      6  C   UNL     1      -3.720  12.639  21.746  0.00  0.00    +0.000 C 
ATOM      7  N   UNL     1      -2.888  12.917  20.583  0.00  0.00    +0.000 N 
ATOM      8  C   UNL     1      -3.095  12.333  19.351  0.00  0.00    +0.000 A 
ATOM      9  C   UNL     1      -4.354  11.900  18.949  0.00  0.00    +0.000 A 
ATOM     10  C   UNL     1      -4.529  11.300  17.700  0.00  0.00    +0.000 A 
ATOM     11  C   UNL     1      -3.430  11.135  16.868  0.00  0.00    +0.000 A 
ATOM     12  C   UNL     1      -2.211  11.600  17.319  0.00  0.00    +0.000 A 
ATOM     13  N   UNL     1      -2.037  12.195  18.522  0.00  0.00    +0.000 NA
ATOM     14  C   UNL     1      -1.745  13.806  20.764  0.00  0.00    +0.000 C 
ATOM     15  C   UNL     1      -0.084  11.970  21.512  0.00  0.00    +0.000 C 
ATOM     16  C   UNL     1       0.868  12.127  20.341  0.00  0.00    +0.000 C 
ATOM     17  C   UNL     1       1.783  13.327  20.418  0.00  0.00    +0.000 C 
ATOM     18  O   UNL     1       2.844  13.342  19.793  0.00  0.00    +0.000 OA
ENDROOT
BRANCH  11  19
ATOM     19  C   UNL     1      -3.552  10.522  15.590  0.00  0.00    +0.000 C 
ATOM     20  N   UNL     1      -3.661  10.023  14.544  0.00  0.00    +0.000 NA
ENDBRANCH  11  19
BRANCH   1  21
ATOM     21  C   UNL     1       1.472  15.733  20.329  0.00  0.00    +0.000 C 
BRANCH  21  22
ATOM     22  C   UNL     1       0.530  16.150  19.204  0.00  0.00    +0.000 C 
BRANCH  22  24
ATOM     23  C   UNL     1      -1.404  17.400  18.747  0.00  0.00    +0.000 C 
ATOM     24  O   UNL     1      -0.306  17.222  19.629  0.00  0.00    +0.000 OA
ENDBRANCH  22  24
ENDBRANCH  21  22
ENDBRANCH   1  21
TORSDOF 4
ENDMDL
