MODEL 1
REMARK VINA RESULT:      -8.2      0.000      0.000
REMARK  Name = 
REMARK  11 active torsions:
REMARK  status: ('A' for Active; 'I' for Inactive)
REMARK    1  A    between atoms: C_1  and  C_2
REMARK    2  A    between atoms: C_2  and  C_3
REMARK    3  A    between atoms: C_2  and  S_4
REMARK    4  A    between atoms: S_4  and  N_7
REMARK    5  A    between atoms: N_7  and  C_8
REMARK    6  A    between atoms: N_7  and  C_14
REMARK    7  A    between atoms: C_8  and  C_9
REMARK    8  A    between atoms: C_14  and  C_15
REMARK    9  A    between atoms: C_15  and  O_16
REMARK   10  A    between atoms: C_15  and  C_17
REMARK   11  A    between atoms: C_17  and  N_18
REMARK                            x       y       z     vdW  Elec       q    Type
REMARK                         _______ _______ _______ _____ _____    ______ ____
ROOT
ATOM      1  C   UNL     1       1.785   8.382  18.584  0.00  0.00    +0.000 C 
ENDROOT
BRANCH   1   2
ATOM      2  O   UNL     1       2.211   8.660  17.258  0.00  0.00    +0.000 OA
ATOM      3  H   UNL     1       2.407   9.622  17.190  0.00  0.00    +0.000 HD
ENDBRANCH   1   2
BRANCH   1   4
ATOM      4  C   UNL     1       1.488   9.664  19.399  0.00  0.00    +0.000 C 
BRANCH   4   5
ATOM      5  N   UNL     1       0.039   9.887  19.866  0.00  0.00    +0.000 NA
BRANCH   5   6
ATOM      6  S   UNL     1      -0.025  10.136  21.570  0.00  0.00    +0.000 S 
ATOM      7  O   UNL     1       1.311  10.498  21.983  0.00  0.00    +0.000 OA
ATOM      8  O   UNL     1      -0.701   8.980  22.137  0.00  0.00    +0.000 OA
BRANCH   6  10
ATOM      9  C   UNL     1      -1.833  11.392  23.244  0.00  0.00    +0.000 C 
ATOM     10  C   UNL     1      -1.112  11.543  21.913  0.00  0.00    +0.000 C 
ATOM     11  C   UNL     1      -0.234  12.803  21.949  0.00  0.00    +0.000 C 
ENDBRANCH   6  10
ENDBRANCH   5   6
BRANCH   5  12
ATOM     12  C   UNL     1      -0.535  11.064  19.105  0.00  0.00    +0.000 C 
BRANCH  12  13
ATOM     13  C   UNL     1      -1.628  10.694  18.148  0.00  0.00    +0.000 A 
ATOM     14  C   UNL     1      -1.743   9.829  17.074  0.00  0.00    +0.000 A 
ATOM     15  C   UNL     1      -3.098   9.882  16.650  0.00  0.00    +0.000 A 
ATOM     16  C   UNL     1      -3.722  10.786  17.474  0.00  0.00    +0.000 A 
ATOM     17  O   UNL     1      -2.842  11.286  18.377  0.00  0.00    +0.000 OA
ENDBRANCH  12  13
ENDBRANCH   5  12
ENDBRANCH   4   5
ENDBRANCH   1   4
BRANCH   1  18
ATOM     18  C   UNL     1       2.693   7.407  19.342  0.00  0.00    +0.000 C 
BRANCH  18  19
ATOM     19  N   UNL     1       2.887   6.119  18.686  0.00  0.00    +0.000 N 
ATOM     20  C   UNL     1       3.795   5.891  17.664  0.00  0.00    +0.000 A 
ATOM     21  C   UNL     1       4.678   6.753  16.988  0.00  0.00    +0.000 A 
ATOM     22  C   UNL     1       5.510   6.216  16.002  0.00  0.00    +0.000 A 
ATOM     23  C   UNL     1       5.457   4.866  15.680  0.00  0.00    +0.000 A 
ATOM     24  C   UNL     1       4.562   4.017  16.338  0.00  0.00    +0.000 A 
ATOM     25  C   UNL     1       3.720   4.532  17.348  0.00  0.00    +0.000 A 
ATOM     26  C   UNL     1       2.731   3.943  18.193  0.00  0.00    +0.000 A 
ATOM     27  C   UNL     1       2.217   2.633  18.318  0.00  0.00    +0.000 A 
ATOM     28  C   UNL     1       1.233   2.358  19.272  0.00  0.00    +0.000 A 
ATOM     29  C   UNL     1       0.768   3.365  20.109  0.00  0.00    +0.000 A 
ATOM     30  C   UNL     1       1.271   4.665  20.017  0.00  0.00    +0.000 A 
ATOM     31  C   UNL     1       2.244   4.943  19.039  0.00  0.00    +0.000 A 
ENDBRANCH  18  19
ENDBRANCH   1  18
TORSDOF 9
ENDMDL
MODEL 2
REMARK VINA RESULT:      -8.0      1.254      3.275
REMARK  Name = 
REMARK  11 active torsions:
REMARK  status: ('A' for Active; 'I' for Inactive)
REMARK    1  A    between atoms: C_1  and  C_2
REMARK    2  A    between atoms: C_2  and  C_3
REMARK    3  A    between atoms: C_2  and  S_4
REMARK    4  A    between atoms: S_4  and  N_7
REMARK    5  A    between atoms: N_7  and  C_8
REMARK    6  A    between atoms: N_7  and  C_14
REMARK    7  A    between atoms: C_8  and  C_9
REMARK    8  A    between atoms: C_14  and  C_15
REMARK    9  A    between atoms: C_15  and  O_16
REMARK   10  A    between atoms: C_15  and  C_17
REMARK   11  A    between atoms: C_17  and  N_18
REMARK                            x       y       z     vdW  Elec       q    Type
REMARK                         _______ _______ _______ _____ _____    ______ ____
ROOT
ATOM      1  C   UNL     1       1.660   8.556  18.531  0.00  0.00    +0.000 C 
ENDROOT
BRANCH   1   2
ATOM      2  O   UNL     1       1.935   8.625  17.140  0.00  0.00    +0.000 OA
ATOM      3  H   UNL     1       2.912   8.636  17.017  0.00  0.00    +0.000 HD
ENDBRANCH   1   2
BRANCH   1   4
ATOM      4  C   UNL     1       1.424   9.948  19.165  0.00  0.00    +0.000 C 
BRANCH   4   5
ATOM      5  N   UNL     1      -0.014  10.303  19.581  0.00  0.00    +0.000 NA
BRANCH   5   6
ATOM      6  S   UNL     1      -0.057  10.891  21.201  0.00  0.00    +0.000 S 
ATOM      7  O   UNL     1      -1.338  11.536  21.369  0.00  0.00    +0.000 OA
ATOM      8  O   UNL     1       1.185  11.616  21.416  0.00  0.00    +0.000 OA
BRANCH   6  10
ATOM      9  C   UNL     1      -0.543   8.215  21.698  0.00  0.00    +0.000 C 
ATOM     10  C   UNL     1       0.008   9.481  22.335  0.00  0.00    +0.000 C 
ATOM     11  C   UNL     1       1.482   9.263  22.711  0.00  0.00    +0.000 C 
ENDBRANCH   6  10
ENDBRANCH   5   6
BRANCH   5  12
ATOM     12  C   UNL     1      -0.560  11.320  18.601  0.00  0.00    +0.000 C 
BRANCH  12  13
ATOM     13  C   UNL     1      -1.680  10.803  17.749  0.00  0.00    +0.000 A 
ATOM     14  C   UNL     1      -2.523   9.706  17.795  0.00  0.00    +0.000 A 
ATOM     15  C   UNL     1      -3.444   9.853  16.722  0.00  0.00    +0.000 A 
ATOM     16  C   UNL     1      -3.097  11.016  16.077  0.00  0.00    +0.000 A 
ATOM     17  O   UNL     1      -2.031  11.592  16.686  0.00  0.00    +0.000 OA
ENDBRANCH  12  13
ENDBRANCH   5  12
ENDBRANCH   4   5
ENDBRANCH   1   4
BRANCH   1  18
ATOM     18  C   UNL     1       2.665   7.715  19.328  0.00  0.00    +0.000 C 
BRANCH  18  19
ATOM     19  N   UNL     1       2.899   6.378  18.795  0.00  0.00    +0.000 N 
ATOM     20  C   UNL     1       2.248   5.236  19.233  0.00  0.00    +0.000 A 
ATOM     21  C   UNL     1       1.299   5.034  20.252  0.00  0.00    +0.000 A 
ATOM     22  C   UNL     1       0.790   3.747  20.445  0.00  0.00    +0.000 A 
ATOM     23  C   UNL     1       1.223   2.684  19.662  0.00  0.00    +0.000 A 
ATOM     24  C   UNL     1       2.184   2.884  18.667  0.00  0.00    +0.000 A 
ATOM     25  C   UNL     1       2.704   4.179  18.443  0.00  0.00    +0.000 A 
ATOM     26  C   UNL     1       3.661   4.704  17.523  0.00  0.00    +0.000 A 
ATOM     27  C   UNL     1       4.454   4.121  16.510  0.00  0.00    +0.000 A 
ATOM     28  C   UNL     1       5.313   4.921  15.750  0.00  0.00    +0.000 A 
ATOM     29  C   UNL     1       5.378   6.290  15.975  0.00  0.00    +0.000 A 
ATOM     30  C   UNL     1       4.593   6.894  16.961  0.00  0.00    +0.000 A 
ATOM     31  C   UNL     1       3.748   6.081  17.740  0.00  0.00    +0.000 A 
ENDBRANCH  18  19
ENDBRANCH   1  18
TORSDOF 9
ENDMDL
MODEL 3
REMARK VINA RESULT:      -7.9      0.747      3.067
REMARK  Name = 
REMARK  11 active torsions:
REMARK  status: ('A' for Active; 'I' for Inactive)
REMARK    1  A    between atoms: C_1  and  C_2
REMARK    2  A    between atoms: C_2  and  C_3
REMARK    3  A    between atoms: C_2  and  S_4
REMARK    4  A    between atoms: S_4  and  N_7
REMARK    5  A    between atoms: N_7  and  C_8
REMARK    6  A    between atoms: N_7  and  C_14
REMARK    7  A    between atoms: C_8  and  C_9
REMARK    8  A    between atoms: C_14  and  C_15
REMARK    9  A    between atoms: C_15  and  O_16
REMARK   10  A    between atoms: C_15  and  C_17
REMARK   11  A    between atoms: C_17  and  N_18
REMARK                            x       y       z     vdW  Elec       q    Type
REMARK                         _______ _______ _______ _____ _____    ______ ____
ROOT
ATOM      1  C   UNL     1       1.503   8.257  18.894  0.00  0.00    +0.000 C 
ENDROOT
BRANCH   1   2
ATOM      2  O   UNL     1       1.434   8.135  17.481  0.00  0.00    +0.000 OA
ATOM      3  H   UNL     1       1.834   8.940  17.080  0.00  0.00    +0.000 HD
ENDBRANCH   1   2
BRANCH   1   4
ATOM      4  C   UNL     1       1.584   9.728  19.365  0.00  0.00    +0.000 C 
BRANCH   4   5
ATOM      5  N   UNL     1       0.293  10.375  19.896  0.00  0.00    +0.000 NA
BRANCH   5   6
ATOM      6  S   UNL     1       0.571  11.147  21.412  0.00  0.00    +0.000 S 
ATOM      7  O   UNL     1       1.533  12.196  21.168  0.00  0.00    +0.000 OA
ATOM      8  O   UNL     1       0.836  10.092  22.376  0.00  0.00    +0.000 OA
BRANCH   6  10
ATOM      9  C   UNL     1      -1.560  11.218  23.173  0.00  0.00    +0.000 C 
ATOM     10  C   UNL     1      -0.970  11.924  21.962  0.00  0.00    +0.000 C 
ATOM     11  C   UNL     1      -0.644  13.380  22.329  0.00  0.00    +0.000 C 
ENDBRANCH   6  10
ENDBRANCH   5   6
BRANCH   5  12
ATOM     12  C   UNL     1      -0.219  11.349  18.856  0.00  0.00    +0.000 C 
BRANCH  12  13
ATOM     13  C   UNL     1      -1.453  10.884  18.142  0.00  0.00    +0.000 A 
ATOM     14  C   UNL     1      -2.785  11.258  18.141  0.00  0.00    +0.000 A 
ATOM     15  C   UNL     1      -3.430  10.467  17.152  0.00  0.00    +0.000 A 
ATOM     16  C   UNL     1      -2.461   9.649  16.624  0.00  0.00    +0.000 A 
ATOM     17  O   UNL     1      -1.266   9.889  17.219  0.00  0.00    +0.000 OA
ENDBRANCH  12  13
ENDBRANCH   5  12
ENDBRANCH   4   5
ENDBRANCH   1   4
BRANCH   1  18
ATOM     18  C   UNL     1       2.573   7.374  19.548  0.00  0.00    +0.000 C 
BRANCH  18  19
ATOM     19  N   UNL     1       2.846   6.125  18.846  0.00  0.00    +0.000 N 
ATOM     20  C   UNL     1       2.194   4.929  19.100  0.00  0.00    +0.000 A 
ATOM     21  C   UNL     1       1.209   4.582  20.044  0.00  0.00    +0.000 A 
ATOM     22  C   UNL     1       0.711   3.276  20.039  0.00  0.00    +0.000 A 
ATOM     23  C   UNL     1       1.187   2.333  19.136  0.00  0.00    +0.000 A 
ATOM     24  C   UNL     1       2.182   2.675  18.216  0.00  0.00    +0.000 A 
ATOM     25  C   UNL     1       2.693   3.992  18.191  0.00  0.00    +0.000 A 
ATOM     26  C   UNL     1       3.677   4.646  17.389  0.00  0.00    +0.000 A 
ATOM     27  C   UNL     1       4.515   4.213  16.338  0.00  0.00    +0.000 A 
ATOM     28  C   UNL     1       5.391   5.117  15.728  0.00  0.00    +0.000 A 
ATOM     29  C   UNL     1       5.429   6.442  16.141  0.00  0.00    +0.000 A 
ATOM     30  C   UNL     1       4.600   6.900  17.168  0.00  0.00    +0.000 A 
ATOM     31  C   UNL     1       3.737   5.982  17.795  0.00  0.00    +0.000 A 
ENDBRANCH  18  19
ENDBRANCH   1  18
TORSDOF 9
ENDMDL
MODEL 4
REMARK VINA RESULT:      -7.8      1.387      3.371
REMARK  Name = 
REMARK  11 active torsions:
REMARK  status: ('A' for Active; 'I' for Inactive)
REMARK    1  A    between atoms: C_1  and  C_2
REMARK    2  A    between atoms: C_2  and  C_3
REMARK    3  A    between atoms: C_2  and  S_4
REMARK    4  A    between atoms: S_4  and  N_7
REMARK    5  A    between atoms: N_7  and  C_8
REMARK    6  A    between atoms: N_7  and  C_14
REMARK    7  A    between atoms: C_8  and  C_9
REMARK    8  A    between atoms: C_14  and  C_15
REMARK    9  A    between atoms: C_15  and  O_16
REMARK   10  A    between atoms: C_15  and  C_17
REMARK   11  A    between atoms: C_17  and  N_18
REMARK                            x       y       z     vdW  Elec       q    Type
REMARK                         _______ _______ _______ _____ _____    ______ ____
ROOT
ATOM      1  C   UNL     1       1.800   8.216  19.032  0.00  0.00    +0.000 C 
ENDROOT
BRANCH   1   2
ATOM      2  O   UNL     1       2.472   9.048  18.097  0.00  0.00    +0.000 OA
ATOM      3  H   UNL     1       2.709   9.891  18.547  0.00  0.00    +0.000 HD
ENDBRANCH   1   2
BRANCH   1   4
ATOM      4  C   UNL     1       0.979   9.020  20.069  0.00  0.00    +0.000 C 
BRANCH   4   5
ATOM      5  N   UNL     1       0.096  10.164  19.541  0.00  0.00    +0.000 NA
BRANCH   5   6
ATOM      6  S   UNL     1       0.843  11.693  19.816  0.00  0.00    +0.000 S 
ATOM      7  O   UNL     1       1.722  11.929  18.696  0.00  0.00    +0.000 OA
ATOM      8  O   UNL     1       1.349  11.671  21.180  0.00  0.00    +0.000 OA
BRANCH   6  10
ATOM      9  C   UNL     1      -0.335  13.892  21.010  0.00  0.00    +0.000 C 
ATOM     10  C   UNL     1      -0.434  12.977  19.800  0.00  0.00    +0.000 C 
ATOM     11  C   UNL     1      -0.238  13.802  18.519  0.00  0.00    +0.000 C 
ENDBRANCH   6  10
ENDBRANCH   5   6
BRANCH   5  12
ATOM     12  C   UNL     1      -0.168   9.926  18.069  0.00  0.00    +0.000 C 
BRANCH  12  13
ATOM     13  C   UNL     1      -1.591  10.163  17.660  0.00  0.00    +0.000 A 
ATOM     14  C   UNL     1      -2.695  10.757  18.245  0.00  0.00    +0.000 A 
ATOM     15  C   UNL     1      -3.733  10.736  17.275  0.00  0.00    +0.000 A 
ATOM     16  C   UNL     1      -3.208  10.116  16.166  0.00  0.00    +0.000 A 
ATOM     17  O   UNL     1      -1.918   9.762  16.391  0.00  0.00    +0.000 OA
ENDBRANCH  12  13
ENDBRANCH   5  12
ENDBRANCH   4   5
ENDBRANCH   1   4
BRANCH   1  18
ATOM     18  C   UNL     1       2.698   7.162  19.690  0.00  0.00    +0.000 C 
BRANCH  18  19
ATOM     19  N   UNL     1       2.928   5.968  18.885  0.00  0.00    +0.000 N 
ATOM     20  C   UNL     1       2.238   4.776  19.039  0.00  0.00    +0.000 A 
ATOM     21  C   UNL     1       1.244   4.383  19.954  0.00  0.00    +0.000 A 
ATOM     22  C   UNL     1       0.702   3.099  19.841  0.00  0.00    +0.000 A 
ATOM     23  C   UNL     1       1.146   2.221  18.859  0.00  0.00    +0.000 A 
ATOM     24  C   UNL     1       2.150   2.607  17.968  0.00  0.00    +0.000 A 
ATOM     25  C   UNL     1       2.704   3.905  18.052  0.00  0.00    +0.000 A 
ATOM     26  C   UNL     1       3.708   4.591  17.305  0.00  0.00    +0.000 A 
ATOM     27  C   UNL     1       4.530   4.222  16.217  0.00  0.00    +0.000 A 
ATOM     28  C   UNL     1       5.434   5.145  15.682  0.00  0.00    +0.000 A 
ATOM     29  C   UNL     1       5.517   6.428  16.205  0.00  0.00    +0.000 A 
ATOM     30  C   UNL     1       4.704   6.824  17.271  0.00  0.00    +0.000 A 
ATOM     31  C   UNL     1       3.813   5.885  17.822  0.00  0.00    +0.000 A 
ENDBRANCH  18  19
ENDBRANCH   1  18
TORSDOF 9
ENDMDL
MODEL 5
REMARK VINA RESULT:      -7.8      1.961      4.556
REMARK  Name = 
REMARK  11 active torsions:
REMARK  status: ('A' for Active; 'I' for Inactive)
REMARK    1  A    between atoms: C_1  and  C_2
REMARK    2  A    between atoms: C_2  and  C_3
REMARK    3  A    between atoms: C_2  and  S_4
REMARK    4  A    between atoms: S_4  and  N_7
REMARK    5  A    between atoms: N_7  and  C_8
REMARK    6  A    between atoms: N_7  and  C_14
REMARK    7  A    between atoms: C_8  and  C_9
REMARK    8  A    between atoms: C_14  and  C_15
REMARK    9  A    between atoms: C_15  and  O_16
REMARK   10  A    between atoms: C_15  and  C_17
REMARK   11  A    between atoms: C_17  and  N_18
REMARK                            x       y       z     vdW  Elec       q    Type
REMARK                         _______ _______ _______ _____ _____    ______ ____
ROOT
ATOM      1  C   UNL     1       1.507   8.519  18.357  0.00  0.00    +0.000 C 
ENDROOT
BRANCH   1   2
ATOM      2  O   UNL     1       2.172   9.257  17.343  0.00  0.00    +0.000 OA
ATOM      3  H   UNL     1       2.668   9.993  17.769  0.00  0.00    +0.000 HD
ENDBRANCH   1   2
BRANCH   1   4
ATOM      4  C   UNL     1       0.496   9.375  19.157  0.00  0.00    +0.000 C 
BRANCH   4   5
ATOM      5  N   UNL     1       0.412  10.874  18.818  0.00  0.00    +0.000 NA
BRANCH   5   6
ATOM      6  S   UNL     1      -1.230  11.390  18.723  0.00  0.00    +0.000 S 
ATOM      7  O   UNL     1      -1.259  12.492  17.790  0.00  0.00    +0.000 OA
ATOM      8  O   UNL     1      -1.698  11.548  20.090  0.00  0.00    +0.000 OA
BRANCH   6  10
ATOM      9  C   UNL     1      -3.715  10.324  18.145  0.00  0.00    +0.000 C 
ATOM     10  C   UNL     1      -2.224  10.047  18.027  0.00  0.00    +0.000 C 
ATOM     11  C   UNL     1      -1.846   9.918  16.543  0.00  0.00    +0.000 C 
ENDBRANCH   6  10
ENDBRANCH   5   6
BRANCH   5  12
ATOM     12  C   UNL     1       1.184  11.647  19.867  0.00  0.00    +0.000 C 
BRANCH  12  13
ATOM     13  C   UNL     1       2.037  12.746  19.308  0.00  0.00    +0.000 A 
ATOM     14  C   UNL     1       2.279  13.254  18.044  0.00  0.00    +0.000 A 
ATOM     15  C   UNL     1       3.132  14.378  18.212  0.00  0.00    +0.000 A 
ATOM     16  C   UNL     1       3.373  14.477  19.561  0.00  0.00    +0.000 A 
ATOM     17  O   UNL     1       2.721  13.493  20.230  0.00  0.00    +0.000 OA
ENDBRANCH  12  13
ENDBRANCH   5  12
ENDBRANCH   4   5
ENDBRANCH   1   4
BRANCH   1  18
ATOM     18  C   UNL     1       2.446   7.721  19.269  0.00  0.00    +0.000 C 
BRANCH  18  19
ATOM     19  N   UNL     1       2.781   6.387  18.783  0.00  0.00    +0.000 N 
ATOM     20  C   UNL     1       2.212   5.216  19.259  0.00  0.00    +0.000 A 
ATOM     21  C   UNL     1       1.274   4.980  20.281  0.00  0.00    +0.000 A 
ATOM     22  C   UNL     1       0.859   3.666  20.516  0.00  0.00    +0.000 A 
ATOM     23  C   UNL     1       1.373   2.612  19.771  0.00  0.00    +0.000 A 
ATOM     24  C   UNL     1       2.322   2.847  18.774  0.00  0.00    +0.000 A 
ATOM     25  C   UNL     1       2.748   4.168  18.507  0.00  0.00    +0.000 A 
ATOM     26  C   UNL     1       3.670   4.730  17.573  0.00  0.00    +0.000 A 
ATOM     27  C   UNL     1       4.510   4.172  16.583  0.00  0.00    +0.000 A 
ATOM     28  C   UNL     1       5.312   5.006  15.799  0.00  0.00    +0.000 A 
ATOM     29  C   UNL     1       5.276   6.383  15.977  0.00  0.00    +0.000 A 
ATOM     30  C   UNL     1       4.443   6.962  16.939  0.00  0.00    +0.000 A 
ATOM     31  C   UNL     1       3.655   6.117  17.742  0.00  0.00    +0.000 A 
ENDBRANCH  18  19
ENDBRANCH   1  18
TORSDOF 9
ENDMDL
MODEL 6
REMARK VINA RESULT:      -7.7      2.067      4.367
REMARK  Name = 
REMARK  11 active torsions:
REMARK  status: ('A' for Active; 'I' for Inactive)
REMARK    1  A    between atoms: C_1  and  C_2
REMARK    2  A    between atoms: C_2  and  C_3
REMARK    3  A    between atoms: C_2  and  S_4
REMARK    4  A    between atoms: S_4  and  N_7
REMARK    5  A    between atoms: N_7  and  C_8
REMARK    6  A    between atoms: N_7  and  C_14
REMARK    7  A    between atoms: C_8  and  C_9
REMARK    8  A    between atoms: C_14  and  C_15
REMARK    9  A    between atoms: C_15  and  O_16
REMARK   10  A    between atoms: C_15  and  C_17
REMARK   11  A    between atoms: C_17  and  N_18
REMARK                            x       y       z     vdW  Elec       q    Type
REMARK                         _______ _______ _______ _____ _____    ______ ____
ROOT
ATOM      1  C   UNL     1       2.447   8.357  18.520  0.00  0.00    +0.000 C 
ENDROOT
BRANCH   1   2
ATOM      2  O   UNL     1       1.948   7.830  19.741  0.00  0.00    +0.000 OA
ATOM      3  H   UNL     1       2.708   7.673  20.345  0.00  0.00    +0.000 HD
ENDBRANCH   1   2
BRANCH   1   4
ATOM      4  C   UNL     1       1.746   9.673  18.104  0.00  0.00    +0.000 C 
BRANCH   4   5
ATOM      5  N   UNL     1       1.324  10.637  19.225  0.00  0.00    +0.000 NA
BRANCH   5   6
ATOM      6  S   UNL     1       1.568  12.276  18.750  0.00  0.00    +0.000 S 
ATOM      7  O   UNL     1       0.294  12.758  18.270  0.00  0.00    +0.000 OA
ATOM      8  O   UNL     1       2.749  12.294  17.902  0.00  0.00    +0.000 OA
BRANCH   6  10
ATOM      9  C   UNL     1       3.232  14.122  19.963  0.00  0.00    +0.000 C 
ATOM     10  C   UNL     1       2.013  13.247  20.213  0.00  0.00    +0.000 C 
ATOM     11  C   UNL     1       0.809  14.137  20.557  0.00  0.00    +0.000 C 
ENDBRANCH   6  10
ENDBRANCH   5   6
BRANCH   5  12
ATOM     12  C   UNL     1      -0.124  10.364  19.574  0.00  0.00    +0.000 C 
BRANCH  12  13
ATOM     13  C   UNL     1      -0.407  10.370  21.047  0.00  0.00    +0.000 A 
ATOM     14  C   UNL     1      -1.024  11.244  21.924  0.00  0.00    +0.000 A 
ATOM     15  C   UNL     1      -1.047  10.603  23.192  0.00  0.00    +0.000 A 
ATOM     16  C   UNL     1      -0.429   9.388  23.017  0.00  0.00    +0.000 A 
ATOM     17  O   UNL     1      -0.034   9.241  21.728  0.00  0.00    +0.000 OA
ENDBRANCH  12  13
ENDBRANCH   5  12
ENDBRANCH   4   5
ENDBRANCH   1   4
BRANCH   1  18
ATOM     18  C   UNL     1       2.506   7.339  17.375  0.00  0.00    +0.000 C 
BRANCH  18  19
ATOM     19  N   UNL     1       3.334   6.169  17.641  0.00  0.00    +0.000 N 
ATOM     20  C   UNL     1       2.836   4.907  17.926  0.00  0.00    +0.000 A 
ATOM     21  C   UNL     1       1.519   4.434  18.078  0.00  0.00    +0.000 A 
ATOM     22  C   UNL     1       1.325   3.075  18.339  0.00  0.00    +0.000 A 
ATOM     23  C   UNL     1       2.406   2.210  18.466  0.00  0.00    +0.000 A 
ATOM     24  C   UNL     1       3.712   2.689  18.339  0.00  0.00    +0.000 A 
ATOM     25  C   UNL     1       3.936   4.056  18.061  0.00  0.00    +0.000 A 
ATOM     26  C   UNL     1       5.116   4.837  17.866  0.00  0.00    +0.000 A 
ATOM     27  C   UNL     1       6.495   4.533  17.899  0.00  0.00    +0.000 A 
ATOM     28  C   UNL     1       7.435   5.538  17.651  0.00  0.00    +0.000 A 
ATOM     29  C   UNL     1       7.019   6.830  17.358  0.00  0.00    +0.000 A 
ATOM     30  C   UNL     1       5.661   7.153  17.305  0.00  0.00    +0.000 A 
ATOM     31  C   UNL     1       4.718   6.144  17.579  0.00  0.00    +0.000 A 
ENDBRANCH  18  19
ENDBRANCH   1  18
TORSDOF 9
ENDMDL
MODEL 7
REMARK VINA RESULT:      -7.7      1.119      1.389
REMARK  Name = 
REMARK  11 active torsions:
REMARK  status: ('A' for Active; 'I' for Inactive)
REMARK    1  A    between atoms: C_1  and  C_2
REMARK    2  A    between atoms: C_2  and  C_3
REMARK    3  A    between atoms: C_2  and  S_4
REMARK    4  A    between atoms: S_4  and  N_7
REMARK    5  A    between atoms: N_7  and  C_8
REMARK    6  A    between atoms: N_7  and  C_14
REMARK    7  A    between atoms: C_8  and  C_9
REMARK    8  A    between atoms: C_14  and  C_15
REMARK    9  A    between atoms: C_15  and  O_16
REMARK   10  A    between atoms: C_15  and  C_17
REMARK   11  A    between atoms: C_17  and  N_18
REMARK                            x       y       z     vdW  Elec       q    Type
REMARK                         _______ _______ _______ _____ _____    ______ ____
ROOT
ATOM      1  C   UNL     1       1.535   8.487  18.520  0.00  0.00    +0.000 C 
ENDROOT
BRANCH   1   2
ATOM      2  O   UNL     1       1.247   8.439  17.131  0.00  0.00    +0.000 OA
ATOM      3  H   UNL     1       1.931   7.886  16.691  0.00  0.00    +0.000 HD
ENDBRANCH   1   2
BRANCH   1   4
ATOM      4  C   UNL     1       1.393   9.909  19.114  0.00  0.00    +0.000 C 
BRANCH   4   5
ATOM      5  N   UNL     1      -0.016  10.363  19.536  0.00  0.00    +0.000 NA
BRANCH   5   6
ATOM      6  S   UNL     1      -0.004  10.991  21.141  0.00  0.00    +0.000 S 
ATOM      7  O   UNL     1      -1.314  11.553  21.371  0.00  0.00    +0.000 OA
ATOM      8  O   UNL     1       1.196  11.803  21.264  0.00  0.00    +0.000 OA
BRANCH   6  10
ATOM      9  C   UNL     1      -0.468   9.880  23.631  0.00  0.00    +0.000 C 
ATOM     10  C   UNL     1       0.224   9.619  22.302  0.00  0.00    +0.000 C 
ATOM     11  C   UNL     1      -0.378   8.364  21.651  0.00  0.00    +0.000 C 
ENDBRANCH   6  10
ENDBRANCH   5   6
BRANCH   5  12
ATOM     12  C   UNL     1      -0.509  11.388  18.536  0.00  0.00    +0.000 C 
BRANCH  12  13
ATOM     13  C   UNL     1      -1.717  10.951  17.763  0.00  0.00    +0.000 A 
ATOM     14  C   UNL     1      -2.015   9.893  16.922  0.00  0.00    +0.000 A 
ATOM     15  C   UNL     1      -3.391  10.011  16.588  0.00  0.00    +0.000 A 
ATOM     16  C   UNL     1      -3.844  11.139  17.228  0.00  0.00    +0.000 A 
ATOM     17  O   UNL     1      -2.840  11.716  17.934  0.00  0.00    +0.000 OA
ENDBRANCH  12  13
ENDBRANCH   5  12
ENDBRANCH   4   5
ENDBRANCH   1   4
BRANCH   1  18
ATOM     18  C   UNL     1       2.863   7.824  18.908  0.00  0.00    +0.000 C 
BRANCH  18  19
ATOM     19  N   UNL     1       2.992   6.431  18.497  0.00  0.00    +0.000 N 
ATOM     20  C   UNL     1       3.834   5.988  17.489  0.00  0.00    +0.000 A 
ATOM     21  C   UNL     1       4.693   6.682  16.616  0.00  0.00    +0.000 A 
ATOM     22  C   UNL     1       5.455   5.945  15.705  0.00  0.00    +0.000 A 
ATOM     23  C   UNL     1       5.356   4.560  15.647  0.00  0.00    +0.000 A 
ATOM     24  C   UNL     1       4.484   3.877  16.499  0.00  0.00    +0.000 A 
ATOM     25  C   UNL     1       3.712   4.597  17.438  0.00  0.00    +0.000 A 
ATOM     26  C   UNL     1       2.763   4.207  18.431  0.00  0.00    +0.000 A 
ATOM     27  C   UNL     1       2.231   2.960  18.826  0.00  0.00    +0.000 A 
ATOM     28  C   UNL     1       1.299   2.899  19.867  0.00  0.00    +0.000 A 
ATOM     29  C   UNL     1       0.904   4.057  20.523  0.00  0.00    +0.000 A 
ATOM     30  C   UNL     1       1.426   5.302  20.161  0.00  0.00    +0.000 A 
ATOM     31  C   UNL     1       2.346   5.362  19.098  0.00  0.00    +0.000 A 
ENDBRANCH  18  19
ENDBRANCH   1  18
TORSDOF 9
ENDMDL
MODEL 8
REMARK VINA RESULT:      -7.7      3.072      7.871
REMARK  Name = 
REMARK  11 active torsions:
REMARK  status: ('A' for Active; 'I' for Inactive)
REMARK    1  A    between atoms: C_1  and  C_2
REMARK    2  A    between atoms: C_2  and  C_3
REMARK    3  A    between atoms: C_2  and  S_4
REMARK    4  A    between atoms: S_4  and  N_7
REMARK    5  A    between atoms: N_7  and  C_8
REMARK    6  A    between atoms: N_7  and  C_14
REMARK    7  A    between atoms: C_8  and  C_9
REMARK    8  A    between atoms: C_14  and  C_15
REMARK    9  A    between atoms: C_15  and  O_16
REMARK   10  A    between atoms: C_15  and  C_17
REMARK   11  A    between atoms: C_17  and  N_18
REMARK                            x       y       z     vdW  Elec       q    Type
REMARK                         _______ _______ _______ _____ _____    ______ ____
ROOT
ATOM      1  C   UNL     1       2.655   7.955  18.408  0.00  0.00    +0.000 C 
ENDROOT
BRANCH   1   2
ATOM      2  O   UNL     1       3.614   8.433  17.477  0.00  0.00    +0.000 OA
ATOM      3  H   UNL     1       3.474   7.968  16.621  0.00  0.00    +0.000 HD
ENDBRANCH   1   2
BRANCH   1   4
ATOM      4  C   UNL     1       2.521   6.413  18.392  0.00  0.00    +0.000 C 
BRANCH   4   5
ATOM      5  N   UNL     1       3.644   5.597  19.055  0.00  0.00    +0.000 NA
BRANCH   5   6
ATOM      6  S   UNL     1       3.008   4.198  19.835  0.00  0.00    +0.000 S 
ATOM      7  O   UNL     1       2.373   4.657  21.048  0.00  0.00    +0.000 OA
ATOM      8  O   UNL     1       4.081   3.216  19.872  0.00  0.00    +0.000 OA
BRANCH   6  10
ATOM      9  C   UNL     1       2.292   2.391  17.869  0.00  0.00    +0.000 C 
ATOM     10  C   UNL     1       1.729   3.471  18.779  0.00  0.00    +0.000 C 
ATOM     11  C   UNL     1       0.666   2.857  19.703  0.00  0.00    +0.000 C 
ENDBRANCH   6  10
ENDBRANCH   5   6
BRANCH   5  12
ATOM     12  C   UNL     1       4.663   5.234  17.995  0.00  0.00    +0.000 C 
BRANCH  12  13
ATOM     13  C   UNL     1       5.974   5.947  18.141  0.00  0.00    +0.000 A 
ATOM     14  C   UNL     1       7.126   5.743  18.880  0.00  0.00    +0.000 A 
ATOM     15  C   UNL     1       8.050   6.746  18.483  0.00  0.00    +0.000 A 
ATOM     16  C   UNL     1       7.403   7.511  17.542  0.00  0.00    +0.000 A 
ATOM     17  O   UNL     1       6.148   7.040  17.334  0.00  0.00    +0.000 OA
ENDBRANCH  12  13
ENDBRANCH   5  12
ENDBRANCH   4   5
ENDBRANCH   1   4
BRANCH   1  18
ATOM     18  C   UNL     1       1.296   8.660  18.326  0.00  0.00    +0.000 C 
BRANCH  18  19
ATOM     19  N   UNL     1       1.110   9.741  19.287  0.00  0.00    +0.000 N 
ATOM     20  C   UNL     1       1.487  11.056  19.066  0.00  0.00    +0.000 A 
ATOM     21  C   UNL     1       2.138  11.673  17.981  0.00  0.00    +0.000 A 
ATOM     22  C   UNL     1       2.361  13.052  18.033  0.00  0.00    +0.000 A 
ATOM     23  C   UNL     1       1.966  13.798  19.137  0.00  0.00    +0.000 A 
ATOM     24  C   UNL     1       1.341  13.178  20.222  0.00  0.00    +0.000 A 
ATOM     25  C   UNL     1       1.092  11.787  20.189  0.00  0.00    +0.000 A 
ATOM     26  C   UNL     1       0.480  10.880  21.106  0.00  0.00    +0.000 A 
ATOM     27  C   UNL     1      -0.085  11.034  22.391  0.00  0.00    +0.000 A 
ATOM     28  C   UNL     1      -0.631   9.927  23.049  0.00  0.00    +0.000 A 
ATOM     29  C   UNL     1      -0.632   8.679  22.439  0.00  0.00    +0.000 A 
ATOM     30  C   UNL     1      -0.093   8.503  21.162  0.00  0.00    +0.000 A 
ATOM     31  C   UNL     1       0.476   9.615  20.513  0.00  0.00    +0.000 A 
ENDBRANCH  18  19
ENDBRANCH   1  18
TORSDOF 9
ENDMDL
MODEL 9
REMARK VINA RESULT:      -7.6      2.081      3.389
REMARK  Name = 
REMARK  11 active torsions:
REMARK  status: ('A' for Active; 'I' for Inactive)
REMARK    1  A    between atoms: C_1  and  C_2
REMARK    2  A    between atoms: C_2  and  C_3
REMARK    3  A    between atoms: C_2  and  S_4
REMARK    4  A    between atoms: S_4  and  N_7
REMARK    5  A    between atoms: N_7  and  C_8
REMARK    6  A    between atoms: N_7  and  C_14
REMARK    7  A    between atoms: C_8  and  C_9
REMARK    8  A    between atoms: C_14  and  C_15
REMARK    9  A    between atoms: C_15  and  O_16
REMARK   10  A    between atoms: C_15  and  C_17
REMARK   11  A    between atoms: C_17  and  N_18
REMARK                            x       y       z     vdW  Elec       q    Type
REMARK                         _______ _______ _______ _____ _____    ______ ____
ROOT
ATOM      1  C   UNL     1       2.074   8.446  19.106  0.00  0.00    +0.000 C 
ENDROOT
BRANCH   1   2
ATOM      2  O   UNL     1       1.588   8.210  20.420  0.00  0.00    +0.000 OA
ATOM      3  H   UNL     1       2.359   8.072  21.016  0.00  0.00    +0.000 HD
ENDBRANCH   1   2
BRANCH   1   4
ATOM      4  C   UNL     1       1.480   9.724  18.468  0.00  0.00    +0.000 C 
BRANCH   4   5
ATOM      5  N   UNL     1       1.126  10.888  19.410  0.00  0.00    +0.000 NA
BRANCH   5   6
ATOM      6  S   UNL     1       1.651  12.392  18.751  0.00  0.00    +0.000 S 
ATOM      7  O   UNL     1       0.465  13.073  18.287  0.00  0.00    +0.000 OA
ATOM      8  O   UNL     1       2.749  12.092  17.846  0.00  0.00    +0.000 OA
BRANCH   6  10
ATOM      9  C   UNL     1       3.419  14.363  19.549  0.00  0.00    +0.000 C 
ATOM     10  C   UNL     1       2.380  13.387  20.077  0.00  0.00    +0.000 C 
ATOM     11  C   UNL     1       1.237  14.170  20.744  0.00  0.00    +0.000 C 
ENDBRANCH   6  10
ENDBRANCH   5   6
BRANCH   5  12
ATOM     12  C   UNL     1      -0.368  10.873  19.652  0.00  0.00    +0.000 C 
BRANCH  12  13
ATOM     13  C   UNL     1      -0.752  10.993  21.097  0.00  0.00    +0.000 A 
ATOM     14  C   UNL     1      -1.485  11.897  21.846  0.00  0.00    +0.000 A 
ATOM     15  C   UNL     1      -1.552  11.374  23.165  0.00  0.00    +0.000 A 
ATOM     16  C   UNL     1      -0.843  10.197  23.147  0.00  0.00    +0.000 A 
ATOM     17  O   UNL     1      -0.352   9.963  21.905  0.00  0.00    +0.000 OA
ENDBRANCH  12  13
ENDBRANCH   5  12
ENDBRANCH   4   5
ENDBRANCH   1   4
BRANCH   1  18
ATOM     18  C   UNL     1       1.978   7.231  18.175  0.00  0.00    +0.000 C 
BRANCH  18  19
ATOM     19  N   UNL     1       2.881   6.135  18.508  0.00  0.00    +0.000 N 
ATOM     20  C   UNL     1       4.197   6.048  18.080  0.00  0.00    +0.000 A 
ATOM     21  C   UNL     1       4.964   6.880  17.243  0.00  0.00    +0.000 A 
ATOM     22  C   UNL     1       6.301   6.543  17.012  0.00  0.00    +0.000 A 
ATOM     23  C   UNL     1       6.859   5.404  17.581  0.00  0.00    +0.000 A 
ATOM     24  C   UNL     1       6.087   4.569  18.392  0.00  0.00    +0.000 A 
ATOM     25  C   UNL     1       4.736   4.894  18.652  0.00  0.00    +0.000 A 
ATOM     26  C   UNL     1       3.710   4.272  19.426  0.00  0.00    +0.000 A 
ATOM     27  C   UNL     1       3.661   3.093  20.203  0.00  0.00    +0.000 A 
ATOM     28  C   UNL     1       2.482   2.746  20.869  0.00  0.00    +0.000 A 
ATOM     29  C   UNL     1       1.362   3.563  20.783  0.00  0.00    +0.000 A 
ATOM     30  C   UNL     1       1.389   4.742  20.034  0.00  0.00    +0.000 A 
ATOM     31  C   UNL     1       2.570   5.075  19.346  0.00  0.00    +0.000 A 
ENDBRANCH  18  19
ENDBRANCH   1  18
TORSDOF 9
ENDMDL
