MODEL 1
REMARK VINA RESULT:      -7.9      0.000      0.000
REMARK  Name = 
REMARK  12 active torsions:
REMARK  status: ('A' for Active; 'I' for Inactive)
REMARK    1  A    between atoms: C_1  and  C_2
REMARK    2  A    between atoms: C_2  and  N_3
REMARK    3  A    between atoms: N_3  and  C_4
REMARK    4  A    between atoms: N_3  and  S_13
REMARK    5  A    between atoms: C_4  and  C_5
REMARK    6  A    between atoms: C_7  and  C_8
REMARK    7  A    between atoms: C_8  and  C_9
REMARK    8  A    between atoms: C_8  and  C_10
REMARK    9  A    between atoms: S_13  and  C_16
REMARK   10  A    between atoms: C_19  and  O_20
REMARK   11  A    between atoms: C_21  and  C_22
REMARK   12  A    between atoms: C_22  and  O_24
REMARK                            x       y       z     vdW  Elec       q    Type
REMARK                         _______ _______ _______ _____ _____    ______ ____
ROOT
ATOM      1  S   UNL     1       5.765   5.098  18.683  0.00  0.00    +0.000 S 
ATOM      2  O   UNL     1       6.897   4.292  19.078  0.00  0.00    +0.000 OA
ATOM      3  O   UNL     1       5.384   6.288  19.410  0.00  0.00    +0.000 OA
ENDROOT
BRANCH   1   4
ATOM      4  C   UNL     1       4.364   3.998  18.665  0.00  0.00    +0.000 A 
ATOM      5  C   UNL     1       4.002   3.362  17.476  0.00  0.00    +0.000 A 
ATOM      6  C   UNL     1       2.901   2.504  17.464  0.00  0.00    +0.000 A 
ATOM      7  C   UNL     1       2.185   2.273  18.646  0.00  0.00    +0.000 A 
ATOM      8  C   UNL     1       2.557   2.891  19.849  0.00  0.00    +0.000 A 
ATOM      9  C   UNL     1       3.651   3.765  19.849  0.00  0.00    +0.000 A 
BRANCH   7  10
ATOM     10  O   UNL     1       1.105   1.427  18.615  0.00  0.00    +0.000 OA
ATOM     11  H   UNL     1       1.316   0.664  18.042  0.00  0.00    +0.000 HD
ENDBRANCH   7  10
BRANCH   8  12
ATOM     12  C   UNL     1       1.861   2.672  21.153  0.00  0.00    +0.000 C 
ATOM     13  O   UNL     1       2.468   2.404  22.179  0.00  0.00    +0.000 OA
BRANCH  12  14
ATOM     14  O   UNL     1       0.518   2.785  21.121  0.00  0.00    +0.000 OA
ATOM     15  H   UNL     1       0.120   2.333  20.345  0.00  0.00    +0.000 HD
ENDBRANCH  12  14
ENDBRANCH   8  12
ENDBRANCH   1   4
BRANCH   1  16
ATOM     16  N   UNL     1       5.964   5.582  17.029  0.00  0.00    +0.000 NA
BRANCH  16  18
ATOM     17  C   UNL     1       7.555   7.519  17.362  0.00  0.00    +0.000 C 
ATOM     18  C   UNL     1       6.182   7.066  16.886  0.00  0.00    +0.000 C 
ENDBRANCH  16  18
BRANCH  16  19
ATOM     19  C   UNL     1       7.094   4.807  16.377  0.00  0.00    +0.000 C 
BRANCH  19  20
ATOM     20  C   UNL     1       7.020   4.666  14.894  0.00  0.00    +0.000 A 
ATOM     21  N   UNL     1       6.362   3.780  14.177  0.00  0.00    +0.000 NA
ATOM     22  C   UNL     1       6.712   4.127  12.895  0.00  0.00    +0.000 A 
ATOM     23  N   UNL     1       7.591   5.135  12.807  0.00  0.00    +0.000 NA
ATOM     24  O   UNL     1       7.793   5.502  14.142  0.00  0.00    +0.000 OA
BRANCH  22  25
ATOM     25  C   UNL     1       6.144   3.444  11.693  0.00  0.00    +0.000 C 
ATOM     26  C   UNL     1       6.806   2.088  11.443  0.00  0.00    +0.000 C 
ATOM     27  C   UNL     1       4.629   3.274  11.822  0.00  0.00    +0.000 C 
ENDBRANCH  22  25
ENDBRANCH  19  20
ENDBRANCH  16  19
ENDBRANCH   1  16
TORSDOF 9
ENDMDL
MODEL 2
REMARK VINA RESULT:      -7.8      0.676      1.293
REMARK  Name = 
REMARK  12 active torsions:
REMARK  status: ('A' for Active; 'I' for Inactive)
REMARK    1  A    between atoms: C_1  and  C_2
REMARK    2  A    between atoms: C_2  and  N_3
REMARK    3  A    between atoms: N_3  and  C_4
REMARK    4  A    between atoms: N_3  and  S_13
REMARK    5  A    between atoms: C_4  and  C_5
REMARK    6  A    between atoms: C_7  and  C_8
REMARK    7  A    between atoms: C_8  and  C_9
REMARK    8  A    between atoms: C_8  and  C_10
REMARK    9  A    between atoms: S_13  and  C_16
REMARK   10  A    between atoms: C_19  and  O_20
REMARK   11  A    between atoms: C_21  and  C_22
REMARK   12  A    between atoms: C_22  and  O_24
REMARK                            x       y       z     vdW  Elec       q    Type
REMARK                         _______ _______ _______ _____ _____    ______ ____
ROOT
ATOM      1  S   UNL     1       5.870   4.841  18.374  0.00  0.00    +0.000 S 
ATOM      2  O   UNL     1       6.953   3.889  18.284  0.00  0.00    +0.000 OA
ATOM      3  O   UNL     1       5.820   5.848  19.411  0.00  0.00    +0.000 OA
ENDROOT
BRANCH   1   4
ATOM      4  C   UNL     1       4.376   3.875  18.480  0.00  0.00    +0.000 A 
ATOM      5  C   UNL     1       3.824   3.330  17.319  0.00  0.00    +0.000 A 
ATOM      6  C   UNL     1       2.652   2.577  17.405  0.00  0.00    +0.000 A 
ATOM      7  C   UNL     1       2.054   2.357  18.653  0.00  0.00    +0.000 A 
ATOM      8  C   UNL     1       2.617   2.882  19.826  0.00  0.00    +0.000 A 
ATOM      9  C   UNL     1       3.783   3.653  19.730  0.00  0.00    +0.000 A 
BRANCH   7  10
ATOM     10  O   UNL     1       0.902   1.615  18.718  0.00  0.00    +0.000 OA
ATOM     11  H   UNL     1       1.138   0.666  18.748  0.00  0.00    +0.000 HD
ENDBRANCH   7  10
BRANCH   8  12
ATOM     12  C   UNL     1       2.055   2.667  21.194  0.00  0.00    +0.000 C 
ATOM     13  O   UNL     1       0.865   2.789  21.436  0.00  0.00    +0.000 OA
BRANCH  12  14
ATOM     14  O   UNL     1       2.952   2.333  22.144  0.00  0.00    +0.000 OA
ATOM     15  H   UNL     1       3.870   2.586  21.902  0.00  0.00    +0.000 HD
ENDBRANCH  12  14
ENDBRANCH   8  12
ENDBRANCH   1   4
BRANCH   1  16
ATOM     16  N   UNL     1       5.736   5.691  16.866  0.00  0.00    +0.000 NA
BRANCH  16  18
ATOM     17  C   UNL     1       3.940   7.436  17.212  0.00  0.00    +0.000 C 
ATOM     18  C   UNL     1       5.427   7.152  17.055  0.00  0.00    +0.000 C 
ENDBRANCH  16  18
BRANCH  16  19
ATOM     19  C   UNL     1       6.994   5.508  16.037  0.00  0.00    +0.000 C 
BRANCH  19  20
ATOM     20  C   UNL     1       6.809   4.883  14.696  0.00  0.00    +0.000 A 
ATOM     21  N   UNL     1       6.087   3.835  14.363  0.00  0.00    +0.000 NA
ATOM     22  C   UNL     1       6.346   3.719  13.020  0.00  0.00    +0.000 A 
ATOM     23  N   UNL     1       7.232   4.604  12.541  0.00  0.00    +0.000 NA
ATOM     24  O   UNL     1       7.538   5.388  13.659  0.00  0.00    +0.000 OA
BRANCH  22  25
ATOM     25  C   UNL     1       5.681   2.696  12.156  0.00  0.00    +0.000 C 
ATOM     26  C   UNL     1       4.506   3.287  11.375  0.00  0.00    +0.000 C 
ATOM     27  C   UNL     1       6.683   2.055  11.194  0.00  0.00    +0.000 C 
ENDBRANCH  22  25
ENDBRANCH  19  20
ENDBRANCH  16  19
ENDBRANCH   1  16
TORSDOF 9
ENDMDL
MODEL 3
REMARK VINA RESULT:      -7.8      3.138      5.476
REMARK  Name = 
REMARK  12 active torsions:
REMARK  status: ('A' for Active; 'I' for Inactive)
REMARK    1  A    between atoms: C_1  and  C_2
REMARK    2  A    between atoms: C_2  and  N_3
REMARK    3  A    between atoms: N_3  and  C_4
REMARK    4  A    between atoms: N_3  and  S_13
REMARK    5  A    between atoms: C_4  and  C_5
REMARK    6  A    between atoms: C_7  and  C_8
REMARK    7  A    between atoms: C_8  and  C_9
REMARK    8  A    between atoms: C_8  and  C_10
REMARK    9  A    between atoms: S_13  and  C_16
REMARK   10  A    between atoms: C_19  and  O_20
REMARK   11  A    between atoms: C_21  and  C_22
REMARK   12  A    between atoms: C_22  and  O_24
REMARK                            x       y       z     vdW  Elec       q    Type
REMARK                         _______ _______ _______ _____ _____    ______ ____
ROOT
ATOM      1  S   UNL     1       5.918   4.752  18.246  0.00  0.00    +0.000 S 
ATOM      2  O   UNL     1       6.589   4.278  17.058  0.00  0.00    +0.000 OA
ATOM      3  O   UNL     1       6.564   4.754  19.540  0.00  0.00    +0.000 OA
ENDROOT
BRANCH   1   4
ATOM      4  C   UNL     1       4.426   3.787  18.384  0.00  0.00    +0.000 A 
ATOM      5  C   UNL     1       3.904   3.160  17.251  0.00  0.00    +0.000 A 
ATOM      6  C   UNL     1       2.734   2.408  17.362  0.00  0.00    +0.000 A 
ATOM      7  C   UNL     1       2.106   2.272  18.607  0.00  0.00    +0.000 A 
ATOM      8  C   UNL     1       2.638   2.882  19.754  0.00  0.00    +0.000 A 
ATOM      9  C   UNL     1       3.803   3.650  19.632  0.00  0.00    +0.000 A 
BRANCH   7  10
ATOM     10  O   UNL     1       0.956   1.530  18.697  0.00  0.00    +0.000 OA
ATOM     11  H   UNL     1       1.178   0.642  19.040  0.00  0.00    +0.000 HD
ENDBRANCH   7  10
BRANCH   8  12
ATOM     12  C   UNL     1       2.044   2.760  21.119  0.00  0.00    +0.000 C 
ATOM     13  O   UNL     1       2.724   2.541  22.109  0.00  0.00    +0.000 OA
BRANCH  12  14
ATOM     14  O   UNL     1       0.704   2.902  21.184  0.00  0.00    +0.000 OA
ATOM     15  H   UNL     1       0.337   3.379  20.407  0.00  0.00    +0.000 HD
ENDBRANCH  12  14
ENDBRANCH   8  12
ENDBRANCH   1   4
BRANCH   1  16
ATOM     16  N   UNL     1       5.368   6.375  17.977  0.00  0.00    +0.000 NA
BRANCH  16  18
ATOM     17  C   UNL     1       7.605   7.517  17.691  0.00  0.00    +0.000 C 
ATOM     18  C   UNL     1       6.275   7.144  17.053  0.00  0.00    +0.000 C 
ENDBRANCH  16  18
BRANCH  16  19
ATOM     19  C   UNL     1       3.942   6.377  17.456  0.00  0.00    +0.000 C 
BRANCH  19  20
ATOM     20  C   UNL     1       3.072   7.489  17.935  0.00  0.00    +0.000 A 
ATOM     21  N   UNL     1       2.444   7.615  19.085  0.00  0.00    +0.000 NA
ATOM     22  C   UNL     1       1.781   8.806  18.925  0.00  0.00    +0.000 A 
ATOM     23  N   UNL     1       1.928   9.372  17.718  0.00  0.00    +0.000 NA
ATOM     24  O   UNL     1       2.797   8.497  17.057  0.00  0.00    +0.000 OA
BRANCH  22  25
ATOM     25  C   UNL     1       0.971   9.430  20.015  0.00  0.00    +0.000 C 
ATOM     26  C   UNL     1      -0.356   9.984  19.493  0.00  0.00    +0.000 C 
ATOM     27  C   UNL     1       0.715   8.433  21.147  0.00  0.00    +0.000 C 
ENDBRANCH  22  25
ENDBRANCH  19  20
ENDBRANCH  16  19
ENDBRANCH   1  16
TORSDOF 9
ENDMDL
MODEL 4
REMARK VINA RESULT:      -7.8      3.631      7.322
REMARK  Name = 
REMARK  12 active torsions:
REMARK  status: ('A' for Active; 'I' for Inactive)
REMARK    1  A    between atoms: C_1  and  C_2
REMARK    2  A    between atoms: C_2  and  N_3
REMARK    3  A    between atoms: N_3  and  C_4
REMARK    4  A    between atoms: N_3  and  S_13
REMARK    5  A    between atoms: C_4  and  C_5
REMARK    6  A    between atoms: C_7  and  C_8
REMARK    7  A    between atoms: C_8  and  C_9
REMARK    8  A    between atoms: C_8  and  C_10
REMARK    9  A    between atoms: S_13  and  C_16
REMARK   10  A    between atoms: C_19  and  O_20
REMARK   11  A    between atoms: C_21  and  C_22
REMARK   12  A    between atoms: C_22  and  O_24
REMARK                            x       y       z     vdW  Elec       q    Type
REMARK                         _______ _______ _______ _____ _____    ______ ____
ROOT
ATOM      1  S   UNL     1       3.431   3.017  19.029  0.00  0.00    +0.000 S 
ATOM      2  O   UNL     1       4.037   2.635  20.284  0.00  0.00    +0.000 OA
ATOM      3  O   UNL     1       2.896   2.039  18.109  0.00  0.00    +0.000 OA
ENDROOT
BRANCH   1   4
ATOM      4  C   UNL     1       4.663   3.966  18.159  0.00  0.00    +0.000 A 
ATOM      5  C   UNL     1       4.591   4.079  16.769  0.00  0.00    +0.000 A 
ATOM      6  C   UNL     1       5.559   4.820  16.090  0.00  0.00    +0.000 A 
ATOM      7  C   UNL     1       6.579   5.459  16.808  0.00  0.00    +0.000 A 
ATOM      8  C   UNL     1       6.643   5.369  18.207  0.00  0.00    +0.000 A 
ATOM      9  C   UNL     1       5.679   4.608  18.880  0.00  0.00    +0.000 A 
BRANCH   7  10
ATOM     10  O   UNL     1       7.523   6.183  16.124  0.00  0.00    +0.000 OA
ATOM     11  H   UNL     1       7.719   5.729  15.281  0.00  0.00    +0.000 HD
ENDBRANCH   7  10
BRANCH   8  12
ATOM     12  C   UNL     1       7.681   6.045  19.043  0.00  0.00    +0.000 C 
ATOM     13  O   UNL     1       8.236   7.074  18.688  0.00  0.00    +0.000 OA
BRANCH  12  14
ATOM     14  O   UNL     1       7.967   5.441  20.214  0.00  0.00    +0.000 OA
ATOM     15  H   UNL     1       7.683   4.500  20.232  0.00  0.00    +0.000 HD
ENDBRANCH  12  14
ENDBRANCH   8  12
ENDBRANCH   1   4
BRANCH   1  16
ATOM     16  N   UNL     1       2.148   4.144  19.340  0.00  0.00    +0.000 NA
BRANCH  16  18
ATOM     17  C   UNL     1       1.148   2.936  21.323  0.00  0.00    +0.000 C 
ATOM     18  C   UNL     1       0.927   3.480  19.919  0.00  0.00    +0.000 C 
ENDBRANCH  16  18
BRANCH  16  19
ATOM     19  C   UNL     1       2.629   5.267  20.241  0.00  0.00    +0.000 C 
BRANCH  19  20
ATOM     20  C   UNL     1       2.323   6.651  19.781  0.00  0.00    +0.000 A 
ATOM     21  N   UNL     1       1.653   7.601  20.398  0.00  0.00    +0.000 NA
ATOM     22  C   UNL     1       1.666   8.614  19.471  0.00  0.00    +0.000 A 
ATOM     23  N   UNL     1       2.255   8.302  18.308  0.00  0.00    +0.000 NA
ATOM     24  O   UNL     1       2.703   6.993  18.515  0.00  0.00    +0.000 OA
BRANCH  22  25
ATOM     25  C   UNL     1       1.082   9.963  19.743  0.00  0.00    +0.000 C 
ATOM     26  C   UNL     1       0.165  10.425  18.610  0.00  0.00    +0.000 C 
ATOM     27  C   UNL     1       0.323   9.973  21.072  0.00  0.00    +0.000 C 
ENDBRANCH  22  25
ENDBRANCH  19  20
ENDBRANCH  16  19
ENDBRANCH   1  16
TORSDOF 9
ENDMDL
MODEL 5
REMARK VINA RESULT:      -7.7      3.201      5.487
REMARK  Name = 
REMARK  12 active torsions:
REMARK  status: ('A' for Active; 'I' for Inactive)
REMARK    1  A    between atoms: C_1  and  C_2
REMARK    2  A    between atoms: C_2  and  N_3
REMARK    3  A    between atoms: N_3  and  C_4
REMARK    4  A    between atoms: N_3  and  S_13
REMARK    5  A    between atoms: C_4  and  C_5
REMARK    6  A    between atoms: C_7  and  C_8
REMARK    7  A    between atoms: C_8  and  C_9
REMARK    8  A    between atoms: C_8  and  C_10
REMARK    9  A    between atoms: S_13  and  C_16
REMARK   10  A    between atoms: C_19  and  O_20
REMARK   11  A    between atoms: C_21  and  C_22
REMARK   12  A    between atoms: C_22  and  O_24
REMARK                            x       y       z     vdW  Elec       q    Type
REMARK                         _______ _______ _______ _____ _____    ______ ____
ROOT
ATOM      1  S   UNL     1       5.947   4.835  18.363  0.00  0.00    +0.000 S 
ATOM      2  O   UNL     1       6.694   4.304  17.245  0.00  0.00    +0.000 OA
ATOM      3  O   UNL     1       6.506   4.899  19.695  0.00  0.00    +0.000 OA
ENDROOT
BRANCH   1   4
ATOM      4  C   UNL     1       4.446   3.879  18.447  0.00  0.00    +0.000 A 
ATOM      5  C   UNL     1       3.928   3.306  17.284  0.00  0.00    +0.000 A 
ATOM      6  C   UNL     1       2.750   2.561  17.353  0.00  0.00    +0.000 A 
ATOM      7  C   UNL     1       2.112   2.377  18.587  0.00  0.00    +0.000 A 
ATOM      8  C   UNL     1       2.639   2.932  19.763  0.00  0.00    +0.000 A 
ATOM      9  C   UNL     1       3.812   3.694  19.683  0.00  0.00    +0.000 A 
BRANCH   7  10
ATOM     10  O   UNL     1       0.954   1.643  18.635  0.00  0.00    +0.000 OA
ATOM     11  H   UNL     1       1.183   0.695  18.705  0.00  0.00    +0.000 HD
ENDBRANCH   7  10
BRANCH   8  12
ATOM     12  C   UNL     1       2.033   2.756  21.117  0.00  0.00    +0.000 C 
ATOM     13  O   UNL     1       2.706   2.510  22.106  0.00  0.00    +0.000 OA
BRANCH  12  14
ATOM     14  O   UNL     1       0.692   2.883  21.174  0.00  0.00    +0.000 OA
ATOM     15  H   UNL     1       0.234   2.016  21.238  0.00  0.00    +0.000 HD
ENDBRANCH  12  14
ENDBRANCH   8  12
ENDBRANCH   1   4
BRANCH   1  16
ATOM     16  N   UNL     1       5.422   6.444  17.980  0.00  0.00    +0.000 NA
BRANCH  16  18
ATOM     17  C   UNL     1       7.628   7.634  17.647  0.00  0.00    +0.000 C 
ATOM     18  C   UNL     1       6.342   7.133  17.006  0.00  0.00    +0.000 C 
ENDBRANCH  16  18
BRANCH  16  19
ATOM     19  C   UNL     1       3.997   6.431  17.458  0.00  0.00    +0.000 C 
BRANCH  19  20
ATOM     20  C   UNL     1       3.027   7.301  18.183  0.00  0.00    +0.000 A 
ATOM     21  N   UNL     1       2.493   8.443  17.804  0.00  0.00    +0.000 NA
ATOM     22  C   UNL     1       1.729   8.781  18.894  0.00  0.00    +0.000 A 
ATOM     23  N   UNL     1       1.824   7.936  19.930  0.00  0.00    +0.000 NA
ATOM     24  O   UNL     1       2.686   6.941  19.454  0.00  0.00    +0.000 OA
BRANCH  22  25
ATOM     25  C   UNL     1       0.849   9.989  18.917  0.00  0.00    +0.000 C 
ATOM     26  C   UNL     1      -0.301   9.875  17.915  0.00  0.00    +0.000 C 
ATOM     27  C   UNL     1       0.300  10.241  20.322  0.00  0.00    +0.000 C 
ENDBRANCH  22  25
ENDBRANCH  19  20
ENDBRANCH  16  19
ENDBRANCH   1  16
TORSDOF 9
ENDMDL
MODEL 6
REMARK VINA RESULT:      -7.5      3.554      7.318
REMARK  Name = 
REMARK  12 active torsions:
REMARK  status: ('A' for Active; 'I' for Inactive)
REMARK    1  A    between atoms: C_1  and  C_2
REMARK    2  A    between atoms: C_2  and  N_3
REMARK    3  A    between atoms: N_3  and  C_4
REMARK    4  A    between atoms: N_3  and  S_13
REMARK    5  A    between atoms: C_4  and  C_5
REMARK    6  A    between atoms: C_7  and  C_8
REMARK    7  A    between atoms: C_8  and  C_9
REMARK    8  A    between atoms: C_8  and  C_10
REMARK    9  A    between atoms: S_13  and  C_16
REMARK   10  A    between atoms: C_19  and  O_20
REMARK   11  A    between atoms: C_21  and  C_22
REMARK   12  A    between atoms: C_22  and  O_24
REMARK                            x       y       z     vdW  Elec       q    Type
REMARK                         _______ _______ _______ _____ _____    ______ ____
ROOT
ATOM      1  S   UNL     1       3.886   3.240  18.636  0.00  0.00    +0.000 S 
ATOM      2  O   UNL     1       4.550   3.135  19.914  0.00  0.00    +0.000 OA
ATOM      3  O   UNL     1       3.326   2.086  17.968  0.00  0.00    +0.000 OA
ENDROOT
BRANCH   1   4
ATOM      4  C   UNL     1       5.066   3.989  17.531  0.00  0.00    +0.000 A 
ATOM      5  C   UNL     1       5.150   3.546  16.209  0.00  0.00    +0.000 A 
ATOM      6  C   UNL     1       6.078   4.132  15.347  0.00  0.00    +0.000 A 
ATOM      7  C   UNL     1       6.899   5.170  15.806  0.00  0.00    +0.000 A 
ATOM      8  C   UNL     1       6.804   5.636  17.127  0.00  0.00    +0.000 A 
ATOM      9  C   UNL     1       5.883   5.030  17.992  0.00  0.00    +0.000 A 
BRANCH   7  10
ATOM     10  O   UNL     1       7.806   5.734  14.945  0.00  0.00    +0.000 OA
ATOM     11  H   UNL     1       8.339   6.393  15.433  0.00  0.00    +0.000 HD
ENDBRANCH   7  10
BRANCH   8  12
ATOM     12  C   UNL     1       7.622   6.755  17.681  0.00  0.00    +0.000 C 
ATOM     13  O   UNL     1       8.185   6.679  18.762  0.00  0.00    +0.000 OA
BRANCH  12  14
ATOM     14  O   UNL     1       7.695   7.859  16.910  0.00  0.00    +0.000 OA
ATOM     15  H   UNL     1       8.393   7.792  16.221  0.00  0.00    +0.000 HD
ENDBRANCH  12  14
ENDBRANCH   8  12
ENDBRANCH   1   4
BRANCH   1  16
ATOM     16  N   UNL     1       2.602   4.401  18.758  0.00  0.00    +0.000 NA
BRANCH  16  18
ATOM     17  C   UNL     1       1.044   3.411  20.486  0.00  0.00    +0.000 C 
ATOM     18  C   UNL     1       1.267   3.756  19.020  0.00  0.00    +0.000 C 
ENDBRANCH  16  18
BRANCH  16  19
ATOM     19  C   UNL     1       2.918   5.437  19.821  0.00  0.00    +0.000 C 
BRANCH  19  20
ATOM     20  C   UNL     1       2.304   6.782  19.626  0.00  0.00    +0.000 A 
ATOM     21  N   UNL     1       2.256   7.522  18.540  0.00  0.00    +0.000 NA
ATOM     22  C   UNL     1       1.613   8.650  18.985  0.00  0.00    +0.000 A 
ATOM     23  N   UNL     1       1.327   8.653  20.295  0.00  0.00    +0.000 NA
ATOM     24  O   UNL     1       1.781   7.401  20.725  0.00  0.00    +0.000 OA
BRANCH  22  25
ATOM     25  C   UNL     1       1.248   9.781  18.078  0.00  0.00    +0.000 C 
ATOM     26  C   UNL     1      -0.267   9.911  17.910  0.00  0.00    +0.000 C 
ATOM     27  C   UNL     1       1.836  11.101  18.582  0.00  0.00    +0.000 C 
ENDBRANCH  22  25
ENDBRANCH  19  20
ENDBRANCH  16  19
ENDBRANCH   1  16
TORSDOF 9
ENDMDL
MODEL 7
REMARK VINA RESULT:      -7.4      3.395      7.565
REMARK  Name = 
REMARK  12 active torsions:
REMARK  status: ('A' for Active; 'I' for Inactive)
REMARK    1  A    between atoms: C_1  and  C_2
REMARK    2  A    between atoms: C_2  and  N_3
REMARK    3  A    between atoms: N_3  and  C_4
REMARK    4  A    between atoms: N_3  and  S_13
REMARK    5  A    between atoms: C_4  and  C_5
REMARK    6  A    between atoms: C_7  and  C_8
REMARK    7  A    between atoms: C_8  and  C_9
REMARK    8  A    between atoms: C_8  and  C_10
REMARK    9  A    between atoms: S_13  and  C_16
REMARK   10  A    between atoms: C_19  and  O_20
REMARK   11  A    between atoms: C_21  and  C_22
REMARK   12  A    between atoms: C_22  and  O_24
REMARK                            x       y       z     vdW  Elec       q    Type
REMARK                         _______ _______ _______ _____ _____    ______ ____
ROOT
ATOM      1  S   UNL     1       4.079   3.015  18.713  0.00  0.00    +0.000 S 
ATOM      2  O   UNL     1       4.587   2.701  20.029  0.00  0.00    +0.000 OA
ATOM      3  O   UNL     1       3.810   1.987  17.732  0.00  0.00    +0.000 OA
ENDROOT
BRANCH   1   4
ATOM      4  C   UNL     1       5.244   4.158  17.999  0.00  0.00    +0.000 A 
ATOM      5  C   UNL     1       5.785   5.175  18.789  0.00  0.00    +0.000 A 
ATOM      6  C   UNL     1       6.695   6.071  18.225  0.00  0.00    +0.000 A 
ATOM      7  C   UNL     1       7.072   5.930  16.883  0.00  0.00    +0.000 A 
ATOM      8  C   UNL     1       6.550   4.897  16.090  0.00  0.00    +0.000 A 
ATOM      9  C   UNL     1       5.624   4.012  16.657  0.00  0.00    +0.000 A 
BRANCH   7  10
ATOM     10  O   UNL     1       7.967   6.821  16.346  0.00  0.00    +0.000 OA
ATOM     11  H   UNL     1       7.761   7.716  16.679  0.00  0.00    +0.000 HD
ENDBRANCH   7  10
BRANCH   8  12
ATOM     12  C   UNL     1       6.926   4.665  14.663  0.00  0.00    +0.000 C 
ATOM     13  O   UNL     1       7.685   5.406  14.060  0.00  0.00    +0.000 OA
BRANCH  12  14
ATOM     14  O   UNL     1       6.366   3.583  14.084  0.00  0.00    +0.000 OA
ATOM     15  H   UNL     1       5.532   3.308  14.525  0.00  0.00    +0.000 HD
ENDBRANCH  12  14
ENDBRANCH   8  12
ENDBRANCH   1   4
BRANCH   1  16
ATOM     16  N   UNL     1       2.612   3.928  18.876  0.00  0.00    +0.000 NA
BRANCH  16  18
ATOM     17  C   UNL     1       0.697   2.690  19.969  0.00  0.00    +0.000 C 
ATOM     18  C   UNL     1       1.383   3.083  18.668  0.00  0.00    +0.000 C 
ENDBRANCH  16  18
BRANCH  16  19
ATOM     19  C   UNL     1       2.564   4.627  20.223  0.00  0.00    +0.000 C 
BRANCH  19  20
ATOM     20  C   UNL     1       2.105   6.045  20.207  0.00  0.00    +0.000 A 
ATOM     21  N   UNL     1       2.324   6.978  19.305  0.00  0.00    +0.000 NA
ATOM     22  C   UNL     1       1.697   8.068  19.856  0.00  0.00    +0.000 A 
ATOM     23  N   UNL     1       1.166   7.856  21.068  0.00  0.00    +0.000 NA
ATOM     24  O   UNL     1       1.431   6.501  21.302  0.00  0.00    +0.000 OA
BRANCH  22  25
ATOM     25  C   UNL     1       1.602   9.383  19.153  0.00  0.00    +0.000 C 
ATOM     26  C   UNL     1       1.879   9.249  17.654  0.00  0.00    +0.000 C 
ATOM     27  C   UNL     1       0.232  10.028  19.378  0.00  0.00    +0.000 C 
ENDBRANCH  22  25
ENDBRANCH  19  20
ENDBRANCH  16  19
ENDBRANCH   1  16
TORSDOF 9
ENDMDL
MODEL 8
REMARK VINA RESULT:      -7.4      3.419      7.312
REMARK  Name = 
REMARK  12 active torsions:
REMARK  status: ('A' for Active; 'I' for Inactive)
REMARK    1  A    between atoms: C_1  and  C_2
REMARK    2  A    between atoms: C_2  and  N_3
REMARK    3  A    between atoms: N_3  and  C_4
REMARK    4  A    between atoms: N_3  and  S_13
REMARK    5  A    between atoms: C_4  and  C_5
REMARK    6  A    between atoms: C_7  and  C_8
REMARK    7  A    between atoms: C_8  and  C_9
REMARK    8  A    between atoms: C_8  and  C_10
REMARK    9  A    between atoms: S_13  and  C_16
REMARK   10  A    between atoms: C_19  and  O_20
REMARK   11  A    between atoms: C_21  and  C_22
REMARK   12  A    between atoms: C_22  and  O_24
REMARK                            x       y       z     vdW  Elec       q    Type
REMARK                         _______ _______ _______ _____ _____    ______ ____
ROOT
ATOM      1  S   UNL     1       4.027   3.039  18.938  0.00  0.00    +0.000 S 
ATOM      2  O   UNL     1       4.575   2.762  20.246  0.00  0.00    +0.000 OA
ATOM      3  O   UNL     1       3.728   1.985  17.994  0.00  0.00    +0.000 OA
ENDROOT
BRANCH   1   4
ATOM      4  C   UNL     1       5.170   4.161  18.156  0.00  0.00    +0.000 A 
ATOM      5  C   UNL     1       5.906   5.053  18.940  0.00  0.00    +0.000 A 
ATOM      6  C   UNL     1       6.798   5.932  18.324  0.00  0.00    +0.000 A 
ATOM      7  C   UNL     1       6.963   5.898  16.934  0.00  0.00    +0.000 A 
ATOM      8  C   UNL     1       6.244   4.989  16.142  0.00  0.00    +0.000 A 
ATOM      9  C   UNL     1       5.337   4.122  16.765  0.00  0.00    +0.000 A 
BRANCH   7  10
ATOM     10  O   UNL     1       7.843   6.771  16.346  0.00  0.00    +0.000 OA
ATOM     11  H   UNL     1       8.682   6.302  16.166  0.00  0.00    +0.000 HD
ENDBRANCH   7  10
BRANCH   8  12
ATOM     12  C   UNL     1       6.387   4.873  14.660  0.00  0.00    +0.000 C 
ATOM     13  O   UNL     1       7.337   5.349  14.057  0.00  0.00    +0.000 OA
BRANCH  12  14
ATOM     14  O   UNL     1       5.393   4.213  14.030  0.00  0.00    +0.000 OA
ATOM     15  H   UNL     1       4.813   4.811  13.510  0.00  0.00    +0.000 HD
ENDBRANCH  12  14
ENDBRANCH   8  12
ENDBRANCH   1   4
BRANCH   1  16
ATOM     16  N   UNL     1       2.566   3.958  19.118  0.00  0.00    +0.000 NA
BRANCH  16  18
ATOM     17  C   UNL     1       1.301   3.093  21.129  0.00  0.00    +0.000 C 
ATOM     18  C   UNL     1       1.417   3.119  19.612  0.00  0.00    +0.000 C 
ENDBRANCH  16  18
BRANCH  16  19
ATOM     19  C   UNL     1       2.793   5.150  20.029  0.00  0.00    +0.000 C 
BRANCH  19  20
ATOM     20  C   UNL     1       2.447   6.484  19.459  0.00  0.00    +0.000 A 
ATOM     21  N   UNL     1       1.917   7.529  20.057  0.00  0.00    +0.000 NA
ATOM     22  C   UNL     1       1.795   8.424  19.023  0.00  0.00    +0.000 A 
ATOM     23  N   UNL     1       2.166   7.951  17.825  0.00  0.00    +0.000 NA
ATOM     24  O   UNL     1       2.610   6.656  18.115  0.00  0.00    +0.000 OA
BRANCH  22  25
ATOM     25  C   UNL     1       1.301   9.821  19.221  0.00  0.00    +0.000 C 
ATOM     26  C   UNL     1       1.984  10.807  18.271  0.00  0.00    +0.000 C 
ATOM     27  C   UNL     1      -0.218   9.895  19.051  0.00  0.00    +0.000 C 
ENDBRANCH  22  25
ENDBRANCH  19  20
ENDBRANCH  16  19
ENDBRANCH   1  16
TORSDOF 9
ENDMDL
MODEL 9
REMARK VINA RESULT:      -7.4      3.544      7.760
REMARK  Name = 
REMARK  12 active torsions:
REMARK  status: ('A' for Active; 'I' for Inactive)
REMARK    1  A    between atoms: C_1  and  C_2
REMARK    2  A    between atoms: C_2  and  N_3
REMARK    3  A    between atoms: N_3  and  C_4
REMARK    4  A    between atoms: N_3  and  S_13
REMARK    5  A    between atoms: C_4  and  C_5
REMARK    6  A    between atoms: C_7  and  C_8
REMARK    7  A    between atoms: C_8  and  C_9
REMARK    8  A    between atoms: C_8  and  C_10
REMARK    9  A    between atoms: S_13  and  C_16
REMARK   10  A    between atoms: C_19  and  O_20
REMARK   11  A    between atoms: C_21  and  C_22
REMARK   12  A    between atoms: C_22  and  O_24
REMARK                            x       y       z     vdW  Elec       q    Type
REMARK                         _______ _______ _______ _____ _____    ______ ____
ROOT
ATOM      1  S   UNL     1       3.907   2.956  18.895  0.00  0.00    +0.000 S 
ATOM      2  O   UNL     1       4.500   2.555  20.150  0.00  0.00    +0.000 OA
ATOM      3  O   UNL     1       3.530   1.992  17.886  0.00  0.00    +0.000 OA
ENDROOT
BRANCH   1   4
ATOM      4  C   UNL     1       5.056   4.099  18.154  0.00  0.00    +0.000 A 
ATOM      5  C   UNL     1       5.729   5.019  18.960  0.00  0.00    +0.000 A 
ATOM      6  C   UNL     1       6.625   5.915  18.376  0.00  0.00    +0.000 A 
ATOM      7  C   UNL     1       6.857   5.871  16.995  0.00  0.00    +0.000 A 
ATOM      8  C   UNL     1       6.201   4.933  16.183  0.00  0.00    +0.000 A 
ATOM      9  C   UNL     1       5.289   4.049  16.773  0.00  0.00    +0.000 A 
BRANCH   7  10
ATOM     10  O   UNL     1       7.740   6.760  16.438  0.00  0.00    +0.000 OA
ATOM     11  H   UNL     1       8.648   6.516  16.707  0.00  0.00    +0.000 HD
ENDBRANCH   7  10
BRANCH   8  12
ATOM     12  C   UNL     1       6.416   4.805  14.710  0.00  0.00    +0.000 C 
ATOM     13  O   UNL     1       5.586   4.300  13.971  0.00  0.00    +0.000 OA
BRANCH  12  14
ATOM     14  O   UNL     1       7.593   5.279  14.252  0.00  0.00    +0.000 OA
ATOM     15  H   UNL     1       8.216   4.562  14.001  0.00  0.00    +0.000 HD
ENDBRANCH  12  14
ENDBRANCH   8  12
ENDBRANCH   1   4
BRANCH   1  16
ATOM     16  N   UNL     1       2.490   3.904  19.215  0.00  0.00    +0.000 NA
BRANCH  16  18
ATOM     17  C   UNL     1       1.065   2.793  20.984  0.00  0.00    +0.000 C 
ATOM     18  C   UNL     1       1.280   3.052  19.500  0.00  0.00    +0.000 C 
ENDBRANCH  16  18
BRANCH  16  19
ATOM     19  C   UNL     1       2.743   4.877  20.352  0.00  0.00    +0.000 C 
BRANCH  19  20
ATOM     20  C   UNL     1       2.275   6.276  20.132  0.00  0.00    +0.000 A 
ATOM     21  N   UNL     1       1.432   6.991  20.845  0.00  0.00    +0.000 NA
ATOM     22  C   UNL     1       1.368   8.162  20.131  0.00  0.00    +0.000 A 
ATOM     23  N   UNL     1       2.079   8.165  18.995  0.00  0.00    +0.000 NA
ATOM     24  O   UNL     1       2.694   6.908  18.997  0.00  0.00    +0.000 OA
BRANCH  22  25
ATOM     25  C   UNL     1       0.578   9.344  20.592  0.00  0.00    +0.000 C 
ATOM     26  C   UNL     1       0.742   9.588  22.093  0.00  0.00    +0.000 C 
ATOM     27  C   UNL     1       0.964  10.601  19.810  0.00  0.00    +0.000 C 
ENDBRANCH  22  25
ENDBRANCH  19  20
ENDBRANCH  16  19
ENDBRANCH   1  16
TORSDOF 9
ENDMDL
