MODEL 1
REMARK VINA RESULT:      -8.8      0.000      0.000
REMARK  Name = 
REMARK  4 active torsions:
REMARK  status: ('A' for Active; 'I' for Inactive)
REMARK    1  A    between atoms: C_2  and  C_4
REMARK    2  A    between atoms: C_7  and  N_8
REMARK    3  A    between atoms: N_8  and  C_9
REMARK    4  A    between atoms: C_17  and  C_18
REMARK                            x       y       z     vdW  Elec       q    Type
REMARK                         _______ _______ _______ _____ _____    ______ ____
ROOT
ATOM      1  C   UNL     1       2.935   3.389  20.299  0.00  0.00    +0.000 A 
ATOM      2  C   UNL     1       3.895   2.457  19.917  0.00  0.00    +0.000 A 
ATOM      3  N   UNL     1       4.938   2.713  19.097  0.00  0.00    +0.000 NA
ATOM      4  C   UNL     1       5.096   3.954  18.589  0.00  0.00    +0.000 A 
ATOM      5  C   UNL     1       4.074   4.915  18.846  0.00  0.00    +0.000 A 
ATOM      6  S   UNL     1       3.997   6.532  18.222  0.00  0.00    +0.000 S 
ATOM      7  C   UNL     1       2.574   6.923  19.089  0.00  0.00    +0.000 A 
ATOM      8  C   UNL     1       2.150   5.828  19.815  0.00  0.00    +0.000 A 
ATOM      9  C   UNL     1       2.991   4.662  19.690  0.00  0.00    +0.000 A 
ENDROOT
BRANCH   7  10
ATOM     10  C   UNL     1       1.968   8.268  19.009  0.00  0.00    +0.000 A 
ATOM     11  C   UNL     1       1.221   8.776  20.087  0.00  0.00    +0.000 A 
ATOM     12  C   UNL     1       0.682  10.067  20.055  0.00  0.00    +0.000 A 
ATOM     13  C   UNL     1       0.881  10.878  18.939  0.00  0.00    +0.000 A 
ATOM     14  C   UNL     1       1.610  10.392  17.858  0.00  0.00    +0.000 A 
ATOM     15  C   UNL     1       2.146   9.103  17.896  0.00  0.00    +0.000 A 
ENDBRANCH   7  10
BRANCH   1  17
ATOM     16  N   UNL     1       0.649   2.852  20.888  0.00  0.00    +0.000 N 
ATOM     17  C   UNL     1       1.927   3.065  21.327  0.00  0.00    +0.000 C 
ATOM     18  O   UNL     1       2.214   2.928  22.509  0.00  0.00    +0.000 OA
ATOM     19  H   UNL     1      -0.001   2.480  21.570  0.00  0.00    +0.000 HD
ATOM     20  H   UNL     1       0.426   2.695  19.913  0.00  0.00    +0.000 HD
ENDBRANCH   1  17
BRANCH   4  21
ATOM     21  N   UNL     1       6.235   4.324  17.924  0.00  0.00    +0.000 N 
ATOM     22  H   UNL     1       6.800   4.979  18.456  0.00  0.00    +0.000 HD
BRANCH  21  23
ATOM     23  C   UNL     1       6.532   4.339  16.502  0.00  0.00    +0.000 C 
ATOM     24  C   UNL     1       5.463   3.844  15.530  0.00  0.00    +0.000 C 
ATOM     25  C   UNL     1       6.116   3.703  14.144  0.00  0.00    +0.000 C 
ATOM     26  C   UNL     1       6.875   4.967  13.705  0.00  0.00    +0.000 C 
ATOM     27  N   UNL     1       7.759   5.522  14.734  0.00  0.00    +0.000 NA
ATOM     28  C   UNL     1       7.053   5.699  16.013  0.00  0.00    +0.000 C 
ATOM     29  H   UNL     1       8.130   6.419  14.423  0.00  0.00    +0.000 HD
ENDBRANCH  21  23
ENDBRANCH   4  21
TORSDOF 4
ENDMDL
MODEL 2
REMARK VINA RESULT:      -8.4      2.408      6.859
REMARK  Name = 
REMARK  4 active torsions:
REMARK  status: ('A' for Active; 'I' for Inactive)
REMARK    1  A    between atoms: C_2  and  C_4
REMARK    2  A    between atoms: C_7  and  N_8
REMARK    3  A    between atoms: N_8  and  C_9
REMARK    4  A    between atoms: C_17  and  C_18
REMARK                            x       y       z     vdW  Elec       q    Type
REMARK                         _______ _______ _______ _____ _____    ______ ____
ROOT
ATOM      1  C   UNL     1       3.836   3.684  18.971  0.00  0.00    +0.000 A 
ATOM      2  C   UNL     1       3.228   4.499  19.920  0.00  0.00    +0.000 A 
ATOM      3  N   UNL     1       3.010   5.825  19.777  0.00  0.00    +0.000 NA
ATOM      4  C   UNL     1       3.396   6.442  18.640  0.00  0.00    +0.000 A 
ATOM      5  C   UNL     1       4.135   5.684  17.685  0.00  0.00    +0.000 A 
ATOM      6  S   UNL     1       4.827   6.273  16.208  0.00  0.00    +0.000 S 
ATOM      7  C   UNL     1       5.392   4.734  15.721  0.00  0.00    +0.000 A 
ATOM      8  C   UNL     1       5.086   3.794  16.685  0.00  0.00    +0.000 A 
ATOM      9  C   UNL     1       4.369   4.314  17.824  0.00  0.00    +0.000 A 
ENDROOT
BRANCH   7  10
ATOM     10  C   UNL     1       6.092   4.541  14.435  0.00  0.00    +0.000 A 
ATOM     11  C   UNL     1       5.575   3.657  13.470  0.00  0.00    +0.000 A 
ATOM     12  C   UNL     1       6.191   3.499  12.224  0.00  0.00    +0.000 A 
ATOM     13  C   UNL     1       7.341   4.224  11.917  0.00  0.00    +0.000 A 
ATOM     14  C   UNL     1       7.874   5.098  12.860  0.00  0.00    +0.000 A 
ATOM     15  C   UNL     1       7.254   5.253  14.101  0.00  0.00    +0.000 A 
ENDBRANCH   7  10
BRANCH   1  17
ATOM     16  N   UNL     1       4.935   1.720  19.863  0.00  0.00    +0.000 N 
ATOM     17  C   UNL     1       3.884   2.219  19.144  0.00  0.00    +0.000 C 
ATOM     18  O   UNL     1       3.004   1.479  18.726  0.00  0.00    +0.000 OA
ATOM     19  H   UNL     1       4.881   0.740  20.110  0.00  0.00    +0.000 HD
ATOM     20  H   UNL     1       5.527   2.304  20.441  0.00  0.00    +0.000 HD
ENDBRANCH   1  17
BRANCH   4  21
ATOM     21  N   UNL     1       3.022   7.728  18.353  0.00  0.00    +0.000 N 
ATOM     22  H   UNL     1       3.818   8.336  18.184  0.00  0.00    +0.000 HD
BRANCH  21  23
ATOM     23  C   UNL     1       1.812   8.457  18.698  0.00  0.00    +0.000 C 
ATOM     24  C   UNL     1       1.570   8.810  20.164  0.00  0.00    +0.000 C 
ATOM     25  C   UNL     1       0.122   9.318  20.291  0.00  0.00    +0.000 C 
ATOM     26  C   UNL     1      -0.219  10.423  19.277  0.00  0.00    +0.000 C 
ATOM     27  N   UNL     1       0.196  10.125  17.903  0.00  0.00    +0.000 NA
ATOM     28  C   UNL     1       1.608   9.717  17.843  0.00  0.00    +0.000 C 
ATOM     29  H   UNL     1       0.053  10.945  17.315  0.00  0.00    +0.000 HD
ENDBRANCH  21  23
ENDBRANCH   4  21
TORSDOF 4
ENDMDL
MODEL 3
REMARK VINA RESULT:      -8.2      1.331      1.645
REMARK  Name = 
REMARK  4 active torsions:
REMARK  status: ('A' for Active; 'I' for Inactive)
REMARK    1  A    between atoms: C_2  and  C_4
REMARK    2  A    between atoms: C_7  and  N_8
REMARK    3  A    between atoms: N_8  and  C_9
REMARK    4  A    between atoms: C_17  and  C_18
REMARK                            x       y       z     vdW  Elec       q    Type
REMARK                         _______ _______ _______ _____ _____    ______ ____
ROOT
ATOM      1  C   UNL     1       2.167   2.993  18.706  0.00  0.00    +0.000 A 
ATOM      2  C   UNL     1       3.041   2.056  18.165  0.00  0.00    +0.000 A 
ATOM      3  N   UNL     1       4.212   2.349  17.559  0.00  0.00    +0.000 NA
ATOM      4  C   UNL     1       4.599   3.638  17.450  0.00  0.00    +0.000 A 
ATOM      5  C   UNL     1       3.687   4.648  17.873  0.00  0.00    +0.000 A 
ATOM      6  S   UNL     1       3.908   6.363  17.740  0.00  0.00    +0.000 S 
ATOM      7  C   UNL     1       2.442   6.733  18.541  0.00  0.00    +0.000 A 
ATOM      8  C   UNL     1       1.782   5.567  18.875  0.00  0.00    +0.000 A 
ATOM      9  C   UNL     1       2.473   4.356  18.500  0.00  0.00    +0.000 A 
ENDROOT
BRANCH   7  10
ATOM     10  C   UNL     1       2.033   8.129  18.795  0.00  0.00    +0.000 A 
ATOM     11  C   UNL     1       2.208   9.112  17.804  0.00  0.00    +0.000 A 
ATOM     12  C   UNL     1       1.780  10.429  18.002  0.00  0.00    +0.000 A 
ATOM     13  C   UNL     1       1.165  10.790  19.200  0.00  0.00    +0.000 A 
ATOM     14  C   UNL     1       0.989   9.835  20.196  0.00  0.00    +0.000 A 
ATOM     15  C   UNL     1       1.417   8.521  19.993  0.00  0.00    +0.000 A 
ENDBRANCH   7  10
BRANCH   1  17
ATOM     16  N   UNL     1       1.057   2.770  20.846  0.00  0.00    +0.000 N 
ATOM     17  C   UNL     1       0.992   2.572  19.494  0.00  0.00    +0.000 C 
ATOM     18  O   UNL     1      -0.022   2.125  18.974  0.00  0.00    +0.000 OA
ATOM     19  H   UNL     1       0.195   2.626  21.359  0.00  0.00    +0.000 HD
ATOM     20  H   UNL     1       1.750   3.368  21.277  0.00  0.00    +0.000 HD
ENDBRANCH   1  17
BRANCH   4  21
ATOM     21  N   UNL     1       5.858   3.982  17.033  0.00  0.00    +0.000 N 
ATOM     22  H   UNL     1       6.366   4.518  17.731  0.00  0.00    +0.000 HD
BRANCH  21  23
ATOM     23  C   UNL     1       6.397   4.138  15.692  0.00  0.00    +0.000 C 
ATOM     24  C   UNL     1       5.492   3.819  14.504  0.00  0.00    +0.000 C 
ATOM     25  C   UNL     1       6.369   3.796  13.239  0.00  0.00    +0.000 C 
ATOM     26  C   UNL     1       7.242   5.053  13.088  0.00  0.00    +0.000 C 
ATOM     27  N   UNL     1       7.957   5.435  14.310  0.00  0.00    +0.000 NA
ATOM     28  C   UNL     1       7.049   5.511  15.465  0.00  0.00    +0.000 C 
ATOM     29  H   UNL     1       8.412   6.338  14.175  0.00  0.00    +0.000 HD
ENDBRANCH  21  23
ENDBRANCH   4  21
TORSDOF 4
ENDMDL
MODEL 4
REMARK VINA RESULT:      -8.0      2.638      6.847
REMARK  Name = 
REMARK  4 active torsions:
REMARK  status: ('A' for Active; 'I' for Inactive)
REMARK    1  A    between atoms: C_2  and  C_4
REMARK    2  A    between atoms: C_7  and  N_8
REMARK    3  A    between atoms: N_8  and  C_9
REMARK    4  A    between atoms: C_17  and  C_18
REMARK                            x       y       z     vdW  Elec       q    Type
REMARK                         _______ _______ _______ _____ _____    ______ ____
ROOT
ATOM      1  C   UNL     1       1.633   3.517  19.310  0.00  0.00    +0.000 A 
ATOM      2  C   UNL     1       1.015   4.147  20.385  0.00  0.00    +0.000 A 
ATOM      3  N   UNL     1       1.224   5.430  20.755  0.00  0.00    +0.000 NA
ATOM      4  C   UNL     1       2.091   6.191  20.053  0.00  0.00    +0.000 A 
ATOM      5  C   UNL     1       2.847   5.563  19.020  0.00  0.00    +0.000 A 
ATOM      6  S   UNL     1       4.088   6.295  18.056  0.00  0.00    +0.000 S 
ATOM      7  C   UNL     1       4.328   4.901  17.094  0.00  0.00    +0.000 A 
ATOM      8  C   UNL     1       3.498   3.885  17.524  0.00  0.00    +0.000 A 
ATOM      9  C   UNL     1       2.640   4.237  18.630  0.00  0.00    +0.000 A 
ENDROOT
BRANCH   7  10
ATOM     10  C   UNL     1       5.304   4.887  15.986  0.00  0.00    +0.000 A 
ATOM     11  C   UNL     1       6.544   5.538  16.122  0.00  0.00    +0.000 A 
ATOM     12  C   UNL     1       7.505   5.493  15.105  0.00  0.00    +0.000 A 
ATOM     13  C   UNL     1       7.242   4.794  13.928  0.00  0.00    +0.000 A 
ATOM     14  C   UNL     1       6.019   4.150  13.769  0.00  0.00    +0.000 A 
ATOM     15  C   UNL     1       5.065   4.197  14.788  0.00  0.00    +0.000 A 
ENDBRANCH   7  10
BRANCH   1  17
ATOM     16  N   UNL     1       2.115   1.154  19.099  0.00  0.00    +0.000 N 
ATOM     17  C   UNL     1       1.222   2.167  18.880  0.00  0.00    +0.000 C 
ATOM     18  O   UNL     1       0.117   1.936  18.407  0.00  0.00    +0.000 OA
ATOM     19  H   UNL     1       1.768   0.214  18.947  0.00  0.00    +0.000 HD
ATOM     20  H   UNL     1       2.911   1.252  19.716  0.00  0.00    +0.000 HD
ENDBRANCH   1  17
BRANCH   4  21
ATOM     21  N   UNL     1       2.191   7.543  20.251  0.00  0.00    +0.000 N 
ATOM     22  H   UNL     1       3.149   7.844  20.403  0.00  0.00    +0.000 HD
BRANCH  21  23
ATOM     23  C   UNL     1       1.210   8.498  20.737  0.00  0.00    +0.000 C 
ATOM     24  C   UNL     1       1.382   9.065  22.145  0.00  0.00    +0.000 C 
ATOM     25  C   UNL     1       0.090   9.817  22.510  0.00  0.00    +0.000 C 
ATOM     26  C   UNL     1      -0.340  10.831  21.436  0.00  0.00    +0.000 C 
ATOM     27  N   UNL     1      -0.318  10.301  20.069  0.00  0.00    +0.000 NA
ATOM     28  C   UNL     1       0.971   9.661  19.761  0.00  0.00    +0.000 C 
ATOM     29  H   UNL     1      -0.491  11.055  19.405  0.00  0.00    +0.000 HD
ENDBRANCH  21  23
ENDBRANCH   4  21
TORSDOF 4
ENDMDL
MODEL 5
REMARK VINA RESULT:      -8.0      2.519      6.527
REMARK  Name = 
REMARK  4 active torsions:
REMARK  status: ('A' for Active; 'I' for Inactive)
REMARK    1  A    between atoms: C_2  and  C_4
REMARK    2  A    between atoms: C_7  and  N_8
REMARK    3  A    between atoms: N_8  and  C_9
REMARK    4  A    between atoms: C_17  and  C_18
REMARK                            x       y       z     vdW  Elec       q    Type
REMARK                         _______ _______ _______ _____ _____    ______ ____
ROOT
ATOM      1  C   UNL     1       1.703   3.560  19.250  0.00  0.00    +0.000 A 
ATOM      2  C   UNL     1       1.099   4.227  20.310  0.00  0.00    +0.000 A 
ATOM      3  N   UNL     1       1.311   5.522  20.631  0.00  0.00    +0.000 NA
ATOM      4  C   UNL     1       2.166   6.259  19.889  0.00  0.00    +0.000 A 
ATOM      5  C   UNL     1       2.908   5.595  18.869  0.00  0.00    +0.000 A 
ATOM      6  S   UNL     1       4.133   6.295  17.861  0.00  0.00    +0.000 S 
ATOM      7  C   UNL     1       4.363   4.867  16.947  0.00  0.00    +0.000 A 
ATOM      8  C   UNL     1       3.541   3.866  17.425  0.00  0.00    +0.000 A 
ATOM      9  C   UNL     1       2.699   4.257  18.530  0.00  0.00    +0.000 A 
ENDROOT
BRANCH   7  10
ATOM     10  C   UNL     1       5.322   4.816  15.825  0.00  0.00    +0.000 A 
ATOM     11  C   UNL     1       6.585   5.426  15.941  0.00  0.00    +0.000 A 
ATOM     12  C   UNL     1       7.529   5.344  14.912  0.00  0.00    +0.000 A 
ATOM     13  C   UNL     1       7.229   4.648  13.743  0.00  0.00    +0.000 A 
ATOM     14  C   UNL     1       5.983   4.043  13.604  0.00  0.00    +0.000 A 
ATOM     15  C   UNL     1       5.044   4.127  14.635  0.00  0.00    +0.000 A 
ENDBRANCH   7  10
BRANCH   1  17
ATOM     16  N   UNL     1       2.188   1.191  19.114  0.00  0.00    +0.000 N 
ATOM     17  C   UNL     1       1.289   2.194  18.875  0.00  0.00    +0.000 C 
ATOM     18  O   UNL     1       0.176   1.944  18.428  0.00  0.00    +0.000 OA
ATOM     19  H   UNL     1       1.842   0.246  19.001  0.00  0.00    +0.000 HD
ATOM     20  H   UNL     1       2.994   1.313  19.714  0.00  0.00    +0.000 HD
ENDBRANCH   1  17
BRANCH   4  21
ATOM     21  N   UNL     1       2.266   7.617  20.037  0.00  0.00    +0.000 N 
ATOM     22  H   UNL     1       2.904   7.881  20.782  0.00  0.00    +0.000 HD
BRANCH  21  23
ATOM     23  C   UNL     1       1.332   8.674  19.686  0.00  0.00    +0.000 C 
ATOM     24  C   UNL     1       0.936   9.682  20.763  0.00  0.00    +0.000 C 
ATOM     25  C   UNL     1      -0.248  10.505  20.224  0.00  0.00    +0.000 C 
ATOM     26  C   UNL     1       0.015  11.095  18.829  0.00  0.00    +0.000 C 
ATOM     27  N   UNL     1       0.570  10.137  17.868  0.00  0.00    +0.000 NA
ATOM     28  C   UNL     1       1.742   9.439  18.418  0.00  0.00    +0.000 C 
ATOM     29  H   UNL     1       0.834  10.622  17.011  0.00  0.00    +0.000 HD
ENDBRANCH  21  23
ENDBRANCH   4  21
TORSDOF 4
ENDMDL
MODEL 6
REMARK VINA RESULT:      -8.0      1.824      2.602
REMARK  Name = 
REMARK  4 active torsions:
REMARK  status: ('A' for Active; 'I' for Inactive)
REMARK    1  A    between atoms: C_2  and  C_4
REMARK    2  A    between atoms: C_7  and  N_8
REMARK    3  A    between atoms: N_8  and  C_9
REMARK    4  A    between atoms: C_17  and  C_18
REMARK                            x       y       z     vdW  Elec       q    Type
REMARK                         _______ _______ _______ _____ _____    ______ ____
ROOT
ATOM      1  C   UNL     1       2.654   3.423  20.160  0.00  0.00    +0.000 A 
ATOM      2  C   UNL     1       3.467   2.675  19.315  0.00  0.00    +0.000 A 
ATOM      3  N   UNL     1       4.236   3.186  18.329  0.00  0.00    +0.000 NA
ATOM      4  C   UNL     1       4.244   4.519  18.115  0.00  0.00    +0.000 A 
ATOM      5  C   UNL     1       3.336   5.321  18.867  0.00  0.00    +0.000 A 
ATOM      6  S   UNL     1       3.085   7.029  18.701  0.00  0.00    +0.000 S 
ATOM      7  C   UNL     1       1.965   7.109  19.992  0.00  0.00    +0.000 A 
ATOM      8  C   UNL     1       1.763   5.848  20.518  0.00  0.00    +0.000 A 
ATOM      9  C   UNL     1       2.535   4.804  19.888  0.00  0.00    +0.000 A 
ENDROOT
BRANCH   7  10
ATOM     10  C   UNL     1       1.360   8.389  20.410  0.00  0.00    +0.000 A 
ATOM     11  C   UNL     1       1.072   9.384  19.457  0.00  0.00    +0.000 A 
ATOM     12  C   UNL     1       0.450  10.584  19.823  0.00  0.00    +0.000 A 
ATOM     13  C   UNL     1       0.103  10.812  21.153  0.00  0.00    +0.000 A 
ATOM     14  C   UNL     1       0.385   9.845  22.113  0.00  0.00    +0.000 A 
ATOM     15  C   UNL     1       1.005   8.649  21.742  0.00  0.00    +0.000 A 
ENDBRANCH   7  10
BRANCH   1  17
ATOM     16  N   UNL     1       0.624   2.625  21.211  0.00  0.00    +0.000 N 
ATOM     17  C   UNL     1       1.977   2.800  21.314  0.00  0.00    +0.000 C 
ATOM     18  O   UNL     1       2.588   2.396  22.295  0.00  0.00    +0.000 OA
ATOM     19  H   UNL     1       0.192   2.060  21.933  0.00  0.00    +0.000 HD
ATOM     20  H   UNL     1       0.130   2.697  20.331  0.00  0.00    +0.000 HD
ENDBRANCH   1  17
BRANCH   4  21
ATOM     21  N   UNL     1       5.148   5.112  17.274  0.00  0.00    +0.000 N 
ATOM     22  H   UNL     1       5.185   4.663  16.364  0.00  0.00    +0.000 HD
BRANCH  21  23
ATOM     23  C   UNL     1       6.336   5.896  17.570  0.00  0.00    +0.000 C 
ATOM     24  C   UNL     1       6.335   7.380  17.209  0.00  0.00    +0.000 C 
ATOM     25  C   UNL     1       7.775   7.902  17.364  0.00  0.00    +0.000 C 
ATOM     26  C   UNL     1       8.399   7.552  18.725  0.00  0.00    +0.000 C 
ATOM     27  N   UNL     1       8.219   6.153  19.124  0.00  0.00    +0.000 NA
ATOM     28  C   UNL     1       6.811   5.740  19.023  0.00  0.00    +0.000 C 
ATOM     29  H   UNL     1       8.544   6.023  20.082  0.00  0.00    +0.000 HD
ENDBRANCH  21  23
ENDBRANCH   4  21
TORSDOF 4
ENDMDL
MODEL 7
REMARK VINA RESULT:      -7.9      1.326      1.867
REMARK  Name = 
REMARK  4 active torsions:
REMARK  status: ('A' for Active; 'I' for Inactive)
REMARK    1  A    between atoms: C_2  and  C_4
REMARK    2  A    between atoms: C_7  and  N_8
REMARK    3  A    between atoms: N_8  and  C_9
REMARK    4  A    between atoms: C_17  and  C_18
REMARK                            x       y       z     vdW  Elec       q    Type
REMARK                         _______ _______ _______ _____ _____    ______ ____
ROOT
ATOM      1  C   UNL     1       2.562   3.652  20.005  0.00  0.00    +0.000 A 
ATOM      2  C   UNL     1       3.257   2.983  19.003  0.00  0.00    +0.000 A 
ATOM      3  N   UNL     1       3.838   3.575  17.937  0.00  0.00    +0.000 NA
ATOM      4  C   UNL     1       3.761   4.916  17.797  0.00  0.00    +0.000 A 
ATOM      5  C   UNL     1       2.956   5.639  18.726  0.00  0.00    +0.000 A 
ATOM      6  S   UNL     1       2.618   7.339  18.695  0.00  0.00    +0.000 S 
ATOM      7  C   UNL     1       1.717   7.306  20.149  0.00  0.00    +0.000 A 
ATOM      8  C   UNL     1       1.650   6.014  20.631  0.00  0.00    +0.000 A 
ATOM      9  C   UNL     1       2.349   5.037  19.831  0.00  0.00    +0.000 A 
ENDROOT
BRANCH   7  10
ATOM     10  C   UNL     1       1.139   8.536  20.726  0.00  0.00    +0.000 A 
ATOM     11  C   UNL     1       0.885   9.654  19.909  0.00  0.00    +0.000 A 
ATOM     12  C   UNL     1       0.289  10.811  20.424  0.00  0.00    +0.000 A 
ATOM     13  C   UNL     1      -0.065  10.873  21.770  0.00  0.00    +0.000 A 
ATOM     14  C   UNL     1       0.185   9.782  22.598  0.00  0.00    +0.000 A 
ATOM     15  C   UNL     1       0.779   8.630  22.079  0.00  0.00    +0.000 A 
ENDBRANCH   7  10
BRANCH   1  17
ATOM     16  N   UNL     1       0.760   2.705  21.315  0.00  0.00    +0.000 N 
ATOM     17  C   UNL     1       2.103   2.944  21.216  0.00  0.00    +0.000 C 
ATOM     18  O   UNL     1       2.877   2.529  22.069  0.00  0.00    +0.000 OA
ATOM     19  H   UNL     1       0.471   2.088  22.065  0.00  0.00    +0.000 HD
ATOM     20  H   UNL     1       0.130   2.791  20.527  0.00  0.00    +0.000 HD
ENDBRANCH   1  17
BRANCH   4  21
ATOM     21  N   UNL     1       4.497   5.588  16.857  0.00  0.00    +0.000 N 
ATOM     22  H   UNL     1       4.078   6.476  16.598  0.00  0.00    +0.000 HD
BRANCH  21  23
ATOM     23  C   UNL     1       5.439   5.092  15.868  0.00  0.00    +0.000 C 
ATOM     24  C   UNL     1       4.890   4.529  14.559  0.00  0.00    +0.000 C 
ATOM     25  C   UNL     1       6.049   3.832  13.824  0.00  0.00    +0.000 C 
ATOM     26  C   UNL     1       7.298   4.720  13.691  0.00  0.00    +0.000 C 
ATOM     27  N   UNL     1       7.690   5.393  14.933  0.00  0.00    +0.000 NA
ATOM     28  C   UNL     1       6.554   6.100  15.545  0.00  0.00    +0.000 C 
ATOM     29  H   UNL     1       8.441   6.055  14.745  0.00  0.00    +0.000 HD
ENDBRANCH  21  23
ENDBRANCH   4  21
TORSDOF 4
ENDMDL
MODEL 8
REMARK VINA RESULT:      -7.7      2.263      6.934
REMARK  Name = 
REMARK  4 active torsions:
REMARK  status: ('A' for Active; 'I' for Inactive)
REMARK    1  A    between atoms: C_2  and  C_4
REMARK    2  A    between atoms: C_7  and  N_8
REMARK    3  A    between atoms: N_8  and  C_9
REMARK    4  A    between atoms: C_17  and  C_18
REMARK                            x       y       z     vdW  Elec       q    Type
REMARK                         _______ _______ _______ _____ _____    ______ ____
ROOT
ATOM      1  C   UNL     1       3.813   3.852  18.894  0.00  0.00    +0.000 A 
ATOM      2  C   UNL     1       3.199   4.699  19.810  0.00  0.00    +0.000 A 
ATOM      3  N   UNL     1       2.985   6.019  19.621  0.00  0.00    +0.000 NA
ATOM      4  C   UNL     1       3.382   6.598  18.467  0.00  0.00    +0.000 A 
ATOM      5  C   UNL     1       4.128   5.807  17.545  0.00  0.00    +0.000 A 
ATOM      6  S   UNL     1       4.833   6.346  16.056  0.00  0.00    +0.000 S 
ATOM      7  C   UNL     1       5.400   4.790  15.624  0.00  0.00    +0.000 A 
ATOM      8  C   UNL     1       5.083   3.883  16.616  0.00  0.00    +0.000 A 
ATOM      9  C   UNL     1       4.357   4.442  17.731  0.00  0.00    +0.000 A 
ENDROOT
BRANCH   7  10
ATOM     10  C   UNL     1       6.110   4.553  14.351  0.00  0.00    +0.000 A 
ATOM     11  C   UNL     1       5.605   3.630  13.417  0.00  0.00    +0.000 A 
ATOM     12  C   UNL     1       6.231   3.429  12.182  0.00  0.00    +0.000 A 
ATOM     13  C   UNL     1       7.379   4.149  11.857  0.00  0.00    +0.000 A 
ATOM     14  C   UNL     1       7.900   5.061  12.769  0.00  0.00    +0.000 A 
ATOM     15  C   UNL     1       7.270   5.259  14.000  0.00  0.00    +0.000 A 
ENDBRANCH   7  10
BRANCH   1  17
ATOM     16  N   UNL     1       4.917   1.913  19.833  0.00  0.00    +0.000 N 
ATOM     17  C   UNL     1       3.856   2.393  19.116  0.00  0.00    +0.000 C 
ATOM     18  O   UNL     1       2.965   1.644  18.738  0.00  0.00    +0.000 OA
ATOM     19  H   UNL     1       4.862   0.941  20.114  0.00  0.00    +0.000 HD
ATOM     20  H   UNL     1       5.522   2.512  20.381  0.00  0.00    +0.000 HD
ENDBRANCH   1  17
BRANCH   4  21
ATOM     21  N   UNL     1       3.014   7.875  18.135  0.00  0.00    +0.000 N 
ATOM     22  H   UNL     1       3.727   8.358  17.597  0.00  0.00    +0.000 HD
BRANCH  21  23
ATOM     23  C   UNL     1       2.071   8.779  18.772  0.00  0.00    +0.000 C 
ATOM     24  C   UNL     1       0.923   9.341  17.936  0.00  0.00    +0.000 C 
ATOM     25  C   UNL     1       0.254  10.463  18.750  0.00  0.00    +0.000 C 
ATOM     26  C   UNL     1      -0.118  10.029  20.179  0.00  0.00    +0.000 C 
ATOM     27  N   UNL     1       0.955   9.327  20.889  0.00  0.00    +0.000 NA
ATOM     28  C   UNL     1       1.501   8.222  20.086  0.00  0.00    +0.000 C 
ATOM     29  H   UNL     1       0.601   8.962  21.773  0.00  0.00    +0.000 HD
ENDBRANCH  21  23
ENDBRANCH   4  21
TORSDOF 4
ENDMDL
MODEL 9
REMARK VINA RESULT:      -7.7      4.686      8.341
REMARK  Name = 
REMARK  4 active torsions:
REMARK  status: ('A' for Active; 'I' for Inactive)
REMARK    1  A    between atoms: C_2  and  C_4
REMARK    2  A    between atoms: C_7  and  N_8
REMARK    3  A    between atoms: N_8  and  C_9
REMARK    4  A    between atoms: C_17  and  C_18
REMARK                            x       y       z     vdW  Elec       q    Type
REMARK                         _______ _______ _______ _____ _____    ______ ____
ROOT
ATOM      1  C   UNL     1       0.528  10.147  21.524  0.00  0.00    +0.000 A 
ATOM      2  C   UNL     1      -0.179  11.337  21.383  0.00  0.00    +0.000 A 
ATOM      3  N   UNL     1      -0.530  11.892  20.202  0.00  0.00    +0.000 NA
ATOM      4  C   UNL     1      -0.189  11.276  19.050  0.00  0.00    +0.000 A 
ATOM      5  C   UNL     1       0.642  10.121  19.131  0.00  0.00    +0.000 A 
ATOM      6  S   UNL     1       1.296   9.223  17.800  0.00  0.00    +0.000 S 
ATOM      7  C   UNL     1       2.027   8.044  18.801  0.00  0.00    +0.000 A 
ATOM      8  C   UNL     1       1.803   8.350  20.129  0.00  0.00    +0.000 A 
ATOM      9  C   UNL     1       1.014   9.539  20.346  0.00  0.00    +0.000 A 
ENDROOT
BRANCH   7  10
ATOM     10  C   UNL     1       2.767   6.899  18.232  0.00  0.00    +0.000 A 
ATOM     11  C   UNL     1       2.236   5.599  18.312  0.00  0.00    +0.000 A 
ATOM     12  C   UNL     1       2.893   4.508  17.733  0.00  0.00    +0.000 A 
ATOM     13  C   UNL     1       4.099   4.696  17.060  0.00  0.00    +0.000 A 
ATOM     14  C   UNL     1       4.646   5.973  16.976  0.00  0.00    +0.000 A 
ATOM     15  C   UNL     1       3.985   7.059  17.555  0.00  0.00    +0.000 A 
ENDBRANCH   7  10
BRANCH   1  17
ATOM     16  N   UNL     1      -0.402   9.130  23.515  0.00  0.00    +0.000 N 
ATOM     17  C   UNL     1       0.725   9.532  22.851  0.00  0.00    +0.000 C 
ATOM     18  O   UNL     1       1.836   9.327  23.323  0.00  0.00    +0.000 OA
ATOM     19  H   UNL     1      -0.254   8.573  24.348  0.00  0.00    +0.000 HD
ATOM     20  H   UNL     1      -1.300   9.038  23.059  0.00  0.00    +0.000 HD
ENDBRANCH   1  17
BRANCH   4  21
ATOM     21  N   UNL     1      -0.689  11.678  17.840  0.00  0.00    +0.000 N 
ATOM     22  H   UNL     1      -0.122  12.400  17.406  0.00  0.00    +0.000 HD
BRANCH  21  23
ATOM     23  C   UNL     1      -2.044  11.626  17.316  0.00  0.00    +0.000 C 
ATOM     24  C   UNL     1      -2.412  10.492  16.361  0.00  0.00    +0.000 C 
ATOM     25  C   UNL     1      -3.785  10.820  15.749  0.00  0.00    +0.000 C 
ATOM     26  C   UNL     1      -4.848  11.167  16.805  0.00  0.00    +0.000 C 
ATOM     27  N   UNL     1      -4.395  12.126  17.817  0.00  0.00    +0.000 NA
ATOM     28  C   UNL     1      -3.115  11.715  18.415  0.00  0.00    +0.000 C 
ATOM     29  H   UNL     1      -5.100  12.213  18.549  0.00  0.00    +0.000 HD
ENDBRANCH  21  23
ENDBRANCH   4  21
TORSDOF 4
ENDMDL
