MODEL 1
REMARK VINA RESULT:      -7.2      0.000      0.000
REMARK  Name = 
REMARK  11 active torsions:
REMARK  status: ('A' for Active; 'I' for Inactive)
REMARK    1  A    between atoms: C_1  and  C_2
REMARK    2  A    between atoms: C_2  and  C_3
REMARK    3  A    between atoms: C_3  and  C_4
REMARK    4  A    between atoms: C_4  and  N_5
REMARK    5  A    between atoms: N_5  and  C_6
REMARK    6  A    between atoms: N_5  and  C_8
REMARK    7  A    between atoms: C_6  and  C_7
REMARK    8  A    between atoms: C_10  and  C_11
REMARK    9  A    between atoms: N_17  and  C_18
REMARK   10  A    between atoms: C_21  and  S_22
REMARK   11  A    between atoms: S_22  and  C_23
REMARK                            x       y       z     vdW  Elec       q    Type
REMARK                         _______ _______ _______ _____ _____    ______ ____
ROOT
ATOM      1  C   UNL     1       3.920   5.376  18.667  0.00  0.00    +0.000 A 
ATOM      2  N   UNL     1       3.507   4.468  19.610  0.00  0.00    +0.000 NA
ATOM      3  C   UNL     1       2.541   4.782  20.508  0.00  0.00    +0.000 A 
ATOM      4  C   UNL     1       2.067   3.699  21.428  0.00  0.00    +0.000 C 
ATOM      5  N   UNL     1       1.925   5.968  20.637  0.00  0.00    +0.000 NA
ATOM      6  C   UNL     1       2.341   6.853  19.711  0.00  0.00    +0.000 A 
ATOM      7  C   UNL     1       3.264   6.627  18.705  0.00  0.00    +0.000 A 
ATOM      8  N   UNL     1       3.347   7.746  17.924  0.00  0.00    +0.000 NA
ATOM      9  N   UNL     1       2.542   8.668  18.420  0.00  0.00    +0.000 NA
ATOM     10  N   UNL     1       1.916   8.154  19.504  0.00  0.00    +0.000 N 
ENDROOT
BRANCH  10  11
ATOM     11  C   UNL     1       1.038   8.935  20.294  0.00  0.00    +0.000 A 
ATOM     12  C   UNL     1       1.142   8.859  21.695  0.00  0.00    +0.000 A 
ATOM     13  C   UNL     1       0.337   9.663  22.509  0.00  0.00    +0.000 A 
ATOM     14  C   UNL     1      -0.597  10.541  21.951  0.00  0.00    +0.000 A 
ATOM     15  C   UNL     1      -0.714  10.595  20.560  0.00  0.00    +0.000 A 
ATOM     16  C   UNL     1       0.093   9.801  19.730  0.00  0.00    +0.000 A 
ATOM     17 BR   UNL     1      -0.342   9.895  17.873  0.00  0.00    +0.000 Br
BRANCH  14  18
ATOM     18  S   UNL     1      -1.577  11.513  23.088  0.00  0.00    +0.000 S 
ATOM     19  C   UNL     1      -2.615  12.511  21.989  0.00  0.00    +0.000 C 
ENDBRANCH  14  18
ENDBRANCH  10  11
BRANCH   1  20
ATOM     20  N   UNL     1       4.934   5.024  17.769  0.00  0.00    +0.000 N 
BRANCH  20  21
ATOM     21  C   UNL     1       4.573   4.859  16.359  0.00  0.00    +0.000 C 
ATOM     22  C   UNL     1       5.518   3.929  15.608  0.00  0.00    +0.000 C 
ENDBRANCH  20  21
BRANCH  20  23
ATOM     23  C   UNL     1       6.332   5.351  18.087  0.00  0.00    +0.000 C 
BRANCH  23  24
ATOM     24  C   UNL     1       6.808   6.681  17.490  0.00  0.00    +0.000 C 
BRANCH  24  26
ATOM     25  C   UNL     1       8.044   8.821  17.833  0.00  0.00    +0.000 C 
ATOM     26  C   UNL     1       7.987   7.339  18.201  0.00  0.00    +0.000 C 
ENDBRANCH  24  26
ENDBRANCH  23  24
ENDBRANCH  20  23
ENDBRANCH   1  20
TORSDOF 7
ENDMDL
MODEL 2
REMARK VINA RESULT:      -7.1      0.947      2.164
REMARK  Name = 
REMARK  11 active torsions:
REMARK  status: ('A' for Active; 'I' for Inactive)
REMARK    1  A    between atoms: C_1  and  C_2
REMARK    2  A    between atoms: C_2  and  C_3
REMARK    3  A    between atoms: C_3  and  C_4
REMARK    4  A    between atoms: C_4  and  N_5
REMARK    5  A    between atoms: N_5  and  C_6
REMARK    6  A    between atoms: N_5  and  C_8
REMARK    7  A    between atoms: C_6  and  C_7
REMARK    8  A    between atoms: C_10  and  C_11
REMARK    9  A    between atoms: N_17  and  C_18
REMARK   10  A    between atoms: C_21  and  S_22
REMARK   11  A    between atoms: S_22  and  C_23
REMARK                            x       y       z     vdW  Elec       q    Type
REMARK                         _______ _______ _______ _____ _____    ______ ____
ROOT
ATOM      1  C   UNL     1       3.807   5.546  18.483  0.00  0.00    +0.000 A 
ATOM      2  N   UNL     1       3.435   4.623  19.429  0.00  0.00    +0.000 NA
ATOM      3  C   UNL     1       2.493   4.917  20.360  0.00  0.00    +0.000 A 
ATOM      4  C   UNL     1       2.060   3.819  21.283  0.00  0.00    +0.000 C 
ATOM      5  N   UNL     1       1.868   6.094  20.520  0.00  0.00    +0.000 NA
ATOM      6  C   UNL     1       2.244   6.993  19.591  0.00  0.00    +0.000 A 
ATOM      7  C   UNL     1       3.139   6.789  18.555  0.00  0.00    +0.000 A 
ATOM      8  N   UNL     1       3.184   7.916  17.784  0.00  0.00    +0.000 NA
ATOM      9  N   UNL     1       2.384   8.824  18.314  0.00  0.00    +0.000 NA
ATOM     10  N   UNL     1       1.798   8.291  19.412  0.00  0.00    +0.000 N 
ENDROOT
BRANCH  10  11
ATOM     11  C   UNL     1       0.936   9.054  20.236  0.00  0.00    +0.000 A 
ATOM     12  C   UNL     1       1.105   8.989  21.631  0.00  0.00    +0.000 A 
ATOM     13  C   UNL     1       0.316   9.776  22.477  0.00  0.00    +0.000 A 
ATOM     14  C   UNL     1      -0.666  10.626  21.957  0.00  0.00    +0.000 A 
ATOM     15  C   UNL     1      -0.846  10.668  20.573  0.00  0.00    +0.000 A 
ATOM     16  C   UNL     1      -0.057   9.891  19.711  0.00  0.00    +0.000 A 
ATOM     17 BR   UNL     1      -0.577   9.961  17.875  0.00  0.00    +0.000 Br
BRANCH  14  18
ATOM     18  S   UNL     1      -1.619  11.578  23.132  0.00  0.00    +0.000 S 
ATOM     19  C   UNL     1      -2.194  12.988  22.150  0.00  0.00    +0.000 C 
ENDBRANCH  14  18
ENDBRANCH  10  11
BRANCH   1  20
ATOM     20  N   UNL     1       4.797   5.215  17.552  0.00  0.00    +0.000 N 
BRANCH  20  21
ATOM     21  C   UNL     1       6.155   5.711  17.792  0.00  0.00    +0.000 C 
ATOM     22  C   UNL     1       6.657   5.407  19.200  0.00  0.00    +0.000 C 
ENDBRANCH  20  21
BRANCH  20  23
ATOM     23  C   UNL     1       4.642   4.011  16.721  0.00  0.00    +0.000 C 
BRANCH  23  24
ATOM     24  C   UNL     1       5.780   3.800  15.716  0.00  0.00    +0.000 C 
BRANCH  24  26
ATOM     25  C   UNL     1       5.968   3.638  13.234  0.00  0.00    +0.000 C 
ATOM     26  C   UNL     1       5.654   4.569  14.405  0.00  0.00    +0.000 C 
ENDBRANCH  24  26
ENDBRANCH  23  24
ENDBRANCH  20  23
ENDBRANCH   1  20
TORSDOF 7
ENDMDL
MODEL 3
REMARK VINA RESULT:      -6.9      1.163      2.163
REMARK  Name = 
REMARK  11 active torsions:
REMARK  status: ('A' for Active; 'I' for Inactive)
REMARK    1  A    between atoms: C_1  and  C_2
REMARK    2  A    between atoms: C_2  and  C_3
REMARK    3  A    between atoms: C_3  and  C_4
REMARK    4  A    between atoms: C_4  and  N_5
REMARK    5  A    between atoms: N_5  and  C_6
REMARK    6  A    between atoms: N_5  and  C_8
REMARK    7  A    between atoms: C_6  and  C_7
REMARK    8  A    between atoms: C_10  and  C_11
REMARK    9  A    between atoms: N_17  and  C_18
REMARK   10  A    between atoms: C_21  and  S_22
REMARK   11  A    between atoms: S_22  and  C_23
REMARK                            x       y       z     vdW  Elec       q    Type
REMARK                         _______ _______ _______ _____ _____    ______ ____
ROOT
ATOM      1  C   UNL     1       3.743   6.346  18.200  0.00  0.00    +0.000 A 
ATOM      2  N   UNL     1       3.454   5.462  19.210  0.00  0.00    +0.000 NA
ATOM      3  C   UNL     1       2.498   5.741  20.131  0.00  0.00    +0.000 A 
ATOM      4  C   UNL     1       2.162   4.676  21.129  0.00  0.00    +0.000 C 
ATOM      5  N   UNL     1       1.780   6.872  20.220  0.00  0.00    +0.000 NA
ATOM      6  C   UNL     1       2.076   7.734  19.229  0.00  0.00    +0.000 A 
ATOM      7  C   UNL     1       2.977   7.533  18.198  0.00  0.00    +0.000 A 
ATOM      8  N   UNL     1       2.925   8.607  17.353  0.00  0.00    +0.000 NA
ATOM      9  N   UNL     1       2.058   9.480  17.832  0.00  0.00    +0.000 NA
ATOM     10  N   UNL     1       1.524   8.976  18.969  0.00  0.00    +0.000 N 
ENDROOT
BRANCH  10  11
ATOM     11  C   UNL     1       0.609   9.721  19.752  0.00  0.00    +0.000 A 
ATOM     12  C   UNL     1       0.902   9.937  21.111  0.00  0.00    +0.000 A 
ATOM     13  C   UNL     1       0.056  10.720  21.902  0.00  0.00    +0.000 A 
ATOM     14  C   UNL     1      -1.105  11.288  21.367  0.00  0.00    +0.000 A 
ATOM     15  C   UNL     1      -1.405  11.050  20.023  0.00  0.00    +0.000 A 
ATOM     16  C   UNL     1      -0.560  10.273  19.215  0.00  0.00    +0.000 A 
ATOM     17 BR   UNL     1      -1.236   9.926  17.463  0.00  0.00    +0.000 Br
BRANCH  14  18
ATOM     18  S   UNL     1      -2.115  12.263  22.473  0.00  0.00    +0.000 S 
ATOM     19  C   UNL     1      -0.965  13.527  23.076  0.00  0.00    +0.000 C 
ENDBRANCH  14  18
ENDBRANCH  10  11
BRANCH   1  20
ATOM     20  N   UNL     1       4.751   6.035  17.280  0.00  0.00    +0.000 N 
BRANCH  20  21
ATOM     21  C   UNL     1       5.830   7.009  17.093  0.00  0.00    +0.000 C 
ATOM     22  C   UNL     1       7.166   6.527  17.647  0.00  0.00    +0.000 C 
ENDBRANCH  20  21
BRANCH  20  23
ATOM     23  C   UNL     1       5.030   4.628  16.956  0.00  0.00    +0.000 C 
BRANCH  23  24
ATOM     24  C   UNL     1       4.841   4.285  15.474  0.00  0.00    +0.000 C 
BRANCH  24  26
ATOM     25  C   UNL     1       6.950   4.928  14.308  0.00  0.00    +0.000 C 
ATOM     26  C   UNL     1       6.078   3.756  14.755  0.00  0.00    +0.000 C 
ENDBRANCH  24  26
ENDBRANCH  23  24
ENDBRANCH  20  23
ENDBRANCH   1  20
TORSDOF 7
ENDMDL
MODEL 4
REMARK VINA RESULT:      -6.7      3.113      5.086
REMARK  Name = 
REMARK  11 active torsions:
REMARK  status: ('A' for Active; 'I' for Inactive)
REMARK    1  A    between atoms: C_1  and  C_2
REMARK    2  A    between atoms: C_2  and  C_3
REMARK    3  A    between atoms: C_3  and  C_4
REMARK    4  A    between atoms: C_4  and  N_5
REMARK    5  A    between atoms: N_5  and  C_6
REMARK    6  A    between atoms: N_5  and  C_8
REMARK    7  A    between atoms: C_6  and  C_7
REMARK    8  A    between atoms: C_10  and  C_11
REMARK    9  A    between atoms: N_17  and  C_18
REMARK   10  A    between atoms: C_21  and  S_22
REMARK   11  A    between atoms: S_22  and  C_23
REMARK                            x       y       z     vdW  Elec       q    Type
REMARK                         _______ _______ _______ _____ _____    ______ ____
ROOT
ATOM      1  C   UNL     1       1.608   7.673  20.234  0.00  0.00    +0.000 A 
ATOM      2  N   UNL     1       1.168   7.938  21.507  0.00  0.00    +0.000 NA
ATOM      3  C   UNL     1       0.782   9.187  21.868  0.00  0.00    +0.000 A 
ATOM      4  C   UNL     1       0.206   9.369  23.239  0.00  0.00    +0.000 C 
ATOM      5  N   UNL     1       0.824  10.288  21.102  0.00  0.00    +0.000 NA
ATOM      6  C   UNL     1       1.262  10.018  19.858  0.00  0.00    +0.000 A 
ATOM      7  C   UNL     1       1.616   8.779  19.355  0.00  0.00    +0.000 A 
ATOM      8  N   UNL     1       1.923   8.912  18.030  0.00  0.00    +0.000 NA
ATOM      9  N   UNL     1       1.809  10.185  17.696  0.00  0.00    +0.000 NA
ATOM     10  N   UNL     1       1.407  10.881  18.785  0.00  0.00    +0.000 N 
ENDROOT
BRANCH  10  11
ATOM     11  C   UNL     1       1.264  12.289  18.754  0.00  0.00    +0.000 A 
ATOM     12  C   UNL     1       2.421  13.086  18.832  0.00  0.00    +0.000 A 
ATOM     13  C   UNL     1       2.329  14.479  18.741  0.00  0.00    +0.000 A 
ATOM     14  C   UNL     1       1.088  15.107  18.590  0.00  0.00    +0.000 A 
ATOM     15  C   UNL     1      -0.060  14.313  18.538  0.00  0.00    +0.000 A 
ATOM     16  C   UNL     1       0.019  12.914  18.619  0.00  0.00    +0.000 A 
ATOM     17 BR   UNL     1      -1.671  12.027  18.704  0.00  0.00    +0.000 Br
BRANCH  14  18
ATOM     18  S   UNL     1       1.090  16.892  18.493  0.00  0.00    +0.000 S 
ATOM     19  C   UNL     1      -0.647  17.289  18.161  0.00  0.00    +0.000 C 
ENDBRANCH  14  18
ENDBRANCH  10  11
BRANCH   1  20
ATOM     20  N   UNL     1       2.018   6.376  19.904  0.00  0.00    +0.000 N 
BRANCH  20  21
ATOM     21  C   UNL     1       3.402   6.190  19.460  0.00  0.00    +0.000 C 
ATOM     22  C   UNL     1       3.502   5.653  18.037  0.00  0.00    +0.000 C 
ENDBRANCH  20  21
BRANCH  20  23
ATOM     23  C   UNL     1       1.323   5.221  20.491  0.00  0.00    +0.000 C 
BRANCH  23  24
ATOM     24  C   UNL     1       2.242   4.275  21.272  0.00  0.00    +0.000 C 
BRANCH  24  26
ATOM     25  C   UNL     1       1.715   2.247  19.918  0.00  0.00    +0.000 C 
ATOM     26  C   UNL     1       1.793   2.819  21.333  0.00  0.00    +0.000 C 
ENDBRANCH  24  26
ENDBRANCH  23  24
ENDBRANCH  20  23
ENDBRANCH   1  20
TORSDOF 7
ENDMDL
MODEL 5
REMARK VINA RESULT:      -6.7      1.156      2.723
REMARK  Name = 
REMARK  11 active torsions:
REMARK  status: ('A' for Active; 'I' for Inactive)
REMARK    1  A    between atoms: C_1  and  C_2
REMARK    2  A    between atoms: C_2  and  C_3
REMARK    3  A    between atoms: C_3  and  C_4
REMARK    4  A    between atoms: C_4  and  N_5
REMARK    5  A    between atoms: N_5  and  C_6
REMARK    6  A    between atoms: N_5  and  C_8
REMARK    7  A    between atoms: C_6  and  C_7
REMARK    8  A    between atoms: C_10  and  C_11
REMARK    9  A    between atoms: N_17  and  C_18
REMARK   10  A    between atoms: C_21  and  S_22
REMARK   11  A    between atoms: S_22  and  C_23
REMARK                            x       y       z     vdW  Elec       q    Type
REMARK                         _______ _______ _______ _____ _____    ______ ____
ROOT
ATOM      1  C   UNL     1       3.657   5.729  18.551  0.00  0.00    +0.000 A 
ATOM      2  N   UNL     1       3.351   4.865  19.573  0.00  0.00    +0.000 NA
ATOM      3  C   UNL     1       2.452   5.204  20.530  0.00  0.00    +0.000 A 
ATOM      4  C   UNL     1       2.087   4.161  21.543  0.00  0.00    +0.000 C 
ATOM      5  N   UNL     1       1.813   6.378  20.646  0.00  0.00    +0.000 NA
ATOM      6  C   UNL     1       2.125   7.221  19.643  0.00  0.00    +0.000 A 
ATOM      7  C   UNL     1       2.970   6.963  18.577  0.00  0.00    +0.000 A 
ATOM      8  N   UNL     1       2.954   8.039  17.734  0.00  0.00    +0.000 NA
ATOM      9  N   UNL     1       2.165   8.966  18.245  0.00  0.00    +0.000 NA
ATOM     10  N   UNL     1       1.645   8.497  19.403  0.00  0.00    +0.000 N 
ENDROOT
BRANCH  10  11
ATOM     11  C   UNL     1       0.811   9.298  20.220  0.00  0.00    +0.000 A 
ATOM     12  C   UNL     1       1.033   9.305  21.609  0.00  0.00    +0.000 A 
ATOM     13  C   UNL     1       0.273  10.132  22.444  0.00  0.00    +0.000 A 
ATOM     14  C   UNL     1      -0.732  10.951  21.919  0.00  0.00    +0.000 A 
ATOM     15  C   UNL     1      -0.965  10.922  20.542  0.00  0.00    +0.000 A 
ATOM     16  C   UNL     1      -0.204  10.104  19.692  0.00  0.00    +0.000 A 
ATOM     17 BR   UNL     1      -0.795  10.080  17.875  0.00  0.00    +0.000 Br
BRANCH  14  18
ATOM     18  S   UNL     1      -1.645  11.959  23.080  0.00  0.00    +0.000 S 
ATOM     19  C   UNL     1      -3.002  12.617  22.076  0.00  0.00    +0.000 C 
ENDBRANCH  14  18
ENDBRANCH  10  11
BRANCH   1  20
ATOM     20  N   UNL     1       4.606   5.354  17.593  0.00  0.00    +0.000 N 
BRANCH  20  21
ATOM     21  C   UNL     1       5.917   6.007  17.637  0.00  0.00    +0.000 C 
ATOM     22  C   UNL     1       6.865   5.367  18.645  0.00  0.00    +0.000 C 
ENDBRANCH  20  21
BRANCH  20  23
ATOM     23  C   UNL     1       4.519   4.028  16.964  0.00  0.00    +0.000 C 
BRANCH  23  24
ATOM     24  C   UNL     1       3.100   3.448  16.934  0.00  0.00    +0.000 C 
BRANCH  24  26
ATOM     25  C   UNL     1       1.574   2.148  18.419  0.00  0.00    +0.000 C 
ATOM     26  C   UNL     1       2.909   2.130  17.677  0.00  0.00    +0.000 C 
ENDBRANCH  24  26
ENDBRANCH  23  24
ENDBRANCH  20  23
ENDBRANCH   1  20
TORSDOF 7
ENDMDL
MODEL 6
REMARK VINA RESULT:      -6.7      3.424      7.627
REMARK  Name = 
REMARK  11 active torsions:
REMARK  status: ('A' for Active; 'I' for Inactive)
REMARK    1  A    between atoms: C_1  and  C_2
REMARK    2  A    between atoms: C_2  and  C_3
REMARK    3  A    between atoms: C_3  and  C_4
REMARK    4  A    between atoms: C_4  and  N_5
REMARK    5  A    between atoms: N_5  and  C_6
REMARK    6  A    between atoms: N_5  and  C_8
REMARK    7  A    between atoms: C_6  and  C_7
REMARK    8  A    between atoms: C_10  and  C_11
REMARK    9  A    between atoms: N_17  and  C_18
REMARK   10  A    between atoms: C_21  and  S_22
REMARK   11  A    between atoms: S_22  and  C_23
REMARK                            x       y       z     vdW  Elec       q    Type
REMARK                         _______ _______ _______ _____ _____    ______ ____
ROOT
ATOM      1  C   UNL     1       0.068  10.847  19.905  0.00  0.00    +0.000 A 
ATOM      2  N   UNL     1      -0.143  10.650  21.248  0.00  0.00    +0.000 NA
ATOM      3  C   UNL     1       0.365   9.565  21.884  0.00  0.00    +0.000 A 
ATOM      4  C   UNL     1       0.188   9.484  23.370  0.00  0.00    +0.000 C 
ATOM      5  N   UNL     1       1.055   8.560  21.322  0.00  0.00    +0.000 NA
ATOM      6  C   UNL     1       1.251   8.760  20.006  0.00  0.00    +0.000 A 
ATOM      7  C   UNL     1       0.844   9.855  19.264  0.00  0.00    +0.000 A 
ATOM      8  N   UNL     1       1.310   9.719  17.987  0.00  0.00    +0.000 NA
ATOM      9  N   UNL     1       1.958   8.572  17.893  0.00  0.00    +0.000 NA
ATOM     10  N   UNL     1       1.942   7.969  19.104  0.00  0.00    +0.000 N 
ENDROOT
BRANCH  10  11
ATOM     11  C   UNL     1       2.500   6.682  19.299  0.00  0.00    +0.000 A 
ATOM     12  C   UNL     1       1.991   5.876  20.333  0.00  0.00    +0.000 A 
ATOM     13  C   UNL     1       2.471   4.575  20.518  0.00  0.00    +0.000 A 
ATOM     14  C   UNL     1       3.477   4.057  19.695  0.00  0.00    +0.000 A 
ATOM     15  C   UNL     1       3.997   4.871  18.686  0.00  0.00    +0.000 A 
ATOM     16  C   UNL     1       3.518   6.175  18.483  0.00  0.00    +0.000 A 
ATOM     17 BR   UNL     1       4.477   7.178  17.171  0.00  0.00    +0.000 Br
BRANCH  14  18
ATOM     18  S   UNL     1       4.019   2.387  20.029  0.00  0.00    +0.000 S 
ATOM     19  C   UNL     1       3.594   1.503  18.505  0.00  0.00    +0.000 C 
ENDBRANCH  14  18
ENDBRANCH  10  11
BRANCH   1  20
ATOM     20  N   UNL     1      -0.489  11.966  19.278  0.00  0.00    +0.000 N 
BRANCH  20  21
ATOM     21  C   UNL     1       0.405  12.830  18.502  0.00  0.00    +0.000 C 
ATOM     22  C   UNL     1       0.285  14.302  18.882  0.00  0.00    +0.000 C 
ENDBRANCH  20  21
BRANCH  20  23
ATOM     23  C   UNL     1      -1.918  11.971  18.934  0.00  0.00    +0.000 C 
BRANCH  23  24
ATOM     24  C   UNL     1      -2.346  10.799  18.044  0.00  0.00    +0.000 C 
BRANCH  24  26
ATOM     25  C   UNL     1      -2.802   9.829  15.791  0.00  0.00    +0.000 C 
ATOM     26  C   UNL     1      -2.463  11.108  16.555  0.00  0.00    +0.000 C 
ENDBRANCH  24  26
ENDBRANCH  23  24
ENDBRANCH  20  23
ENDBRANCH   1  20
TORSDOF 7
ENDMDL
MODEL 7
REMARK VINA RESULT:      -6.6      1.241      1.785
REMARK  Name = 
REMARK  11 active torsions:
REMARK  status: ('A' for Active; 'I' for Inactive)
REMARK    1  A    between atoms: C_1  and  C_2
REMARK    2  A    between atoms: C_2  and  C_3
REMARK    3  A    between atoms: C_3  and  C_4
REMARK    4  A    between atoms: C_4  and  N_5
REMARK    5  A    between atoms: N_5  and  C_6
REMARK    6  A    between atoms: N_5  and  C_8
REMARK    7  A    between atoms: C_6  and  C_7
REMARK    8  A    between atoms: C_10  and  C_11
REMARK    9  A    between atoms: N_17  and  C_18
REMARK   10  A    between atoms: C_21  and  S_22
REMARK   11  A    between atoms: S_22  and  C_23
REMARK                            x       y       z     vdW  Elec       q    Type
REMARK                         _______ _______ _______ _____ _____    ______ ____
ROOT
ATOM      1  C   UNL     1       3.703   5.314  18.633  0.00  0.00    +0.000 A 
ATOM      2  N   UNL     1       3.336   4.459  19.643  0.00  0.00    +0.000 NA
ATOM      3  C   UNL     1       2.429   4.832  20.580  0.00  0.00    +0.000 A 
ATOM      4  C   UNL     1       1.997   3.801  21.579  0.00  0.00    +0.000 C 
ATOM      5  N   UNL     1       1.837   6.032  20.686  0.00  0.00    +0.000 NA
ATOM      6  C   UNL     1       2.208   6.864  19.695  0.00  0.00    +0.000 A 
ATOM      7  C   UNL     1       3.067   6.575  18.649  0.00  0.00    +0.000 A 
ATOM      8  N   UNL     1       3.117   7.653  17.810  0.00  0.00    +0.000 NA
ATOM      9  N   UNL     1       2.355   8.611  18.307  0.00  0.00    +0.000 NA
ATOM     10  N   UNL     1       1.787   8.160  19.450  0.00  0.00    +0.000 N 
ENDROOT
BRANCH  10  11
ATOM     11  C   UNL     1       0.968   8.992  20.250  0.00  0.00    +0.000 A 
ATOM     12  C   UNL     1       1.140   8.966  21.646  0.00  0.00    +0.000 A 
ATOM     13  C   UNL     1       0.395   9.819  22.467  0.00  0.00    +0.000 A 
ATOM     14  C   UNL     1      -0.545  10.699  21.921  0.00  0.00    +0.000 A 
ATOM     15  C   UNL     1      -0.730  10.704  20.536  0.00  0.00    +0.000 A 
ATOM     16  C   UNL     1       0.017   9.859  19.700  0.00  0.00    +0.000 A 
ATOM     17 BR   UNL     1      -0.507   9.894  17.863  0.00  0.00    +0.000 Br
BRANCH  14  18
ATOM     18  S   UNL     1      -1.445  11.737  23.066  0.00  0.00    +0.000 S 
ATOM     19  C   UNL     1      -0.876  13.405  22.645  0.00  0.00    +0.000 C 
ENDBRANCH  14  18
ENDBRANCH  10  11
BRANCH   1  20
ATOM     20  N   UNL     1       4.658   4.903  17.696  0.00  0.00    +0.000 N 
BRANCH  20  21
ATOM     21  C   UNL     1       4.449   3.617  17.026  0.00  0.00    +0.000 C 
ATOM     22  C   UNL     1       2.975   3.290  16.817  0.00  0.00    +0.000 C 
ENDBRANCH  20  21
BRANCH  20  23
ATOM     23  C   UNL     1       5.485   5.908  17.012  0.00  0.00    +0.000 C 
BRANCH  23  24
ATOM     24  C   UNL     1       5.580   5.705  15.496  0.00  0.00    +0.000 C 
BRANCH  24  26
ATOM     25  C   UNL     1       6.405   4.095  13.778  0.00  0.00    +0.000 C 
ATOM     26  C   UNL     1       6.790   4.913  15.010  0.00  0.00    +0.000 C 
ENDBRANCH  24  26
ENDBRANCH  23  24
ENDBRANCH  20  23
ENDBRANCH   1  20
TORSDOF 7
ENDMDL
MODEL 8
REMARK VINA RESULT:      -6.6      3.117      4.713
REMARK  Name = 
REMARK  11 active torsions:
REMARK  status: ('A' for Active; 'I' for Inactive)
REMARK    1  A    between atoms: C_1  and  C_2
REMARK    2  A    between atoms: C_2  and  C_3
REMARK    3  A    between atoms: C_3  and  C_4
REMARK    4  A    between atoms: C_4  and  N_5
REMARK    5  A    between atoms: N_5  and  C_6
REMARK    6  A    between atoms: N_5  and  C_8
REMARK    7  A    between atoms: C_6  and  C_7
REMARK    8  A    between atoms: C_10  and  C_11
REMARK    9  A    between atoms: N_17  and  C_18
REMARK   10  A    between atoms: C_21  and  S_22
REMARK   11  A    between atoms: S_22  and  C_23
REMARK                            x       y       z     vdW  Elec       q    Type
REMARK                         _______ _______ _______ _____ _____    ______ ____
ROOT
ATOM      1  C   UNL     1       1.730   7.555  20.021  0.00  0.00    +0.000 A 
ATOM      2  N   UNL     1       1.123   7.720  21.241  0.00  0.00    +0.000 NA
ATOM      3  C   UNL     1       0.614   8.922  21.612  0.00  0.00    +0.000 A 
ATOM      4  C   UNL     1      -0.134   8.991  22.908  0.00  0.00    +0.000 C 
ATOM      5  N   UNL     1       0.675  10.065  20.911  0.00  0.00    +0.000 NA
ATOM      6  C   UNL     1       1.277   9.893  19.720  0.00  0.00    +0.000 A 
ATOM      7  C   UNL     1       1.771   8.708  19.205  0.00  0.00    +0.000 A 
ATOM      8  N   UNL     1       2.226   8.935  17.936  0.00  0.00    +0.000 NA
ATOM      9  N   UNL     1       2.069  10.215  17.654  0.00  0.00    +0.000 NA
ATOM     10  N   UNL     1       1.493  10.823  18.717  0.00  0.00    +0.000 N 
ENDROOT
BRANCH  10  11
ATOM     11  C   UNL     1       1.262  12.219  18.737  0.00  0.00    +0.000 A 
ATOM     12  C   UNL     1       2.358  13.082  18.921  0.00  0.00    +0.000 A 
ATOM     13  C   UNL     1       2.182  14.469  18.884  0.00  0.00    +0.000 A 
ATOM     14  C   UNL     1       0.914  15.026  18.683  0.00  0.00    +0.000 A 
ATOM     15  C   UNL     1      -0.175  14.165  18.527  0.00  0.00    +0.000 A 
ATOM     16  C   UNL     1      -0.012  12.771  18.553  0.00  0.00    +0.000 A 
ATOM     17 BR   UNL     1      -1.642  11.778  18.495  0.00  0.00    +0.000 Br
BRANCH  14  18
ATOM     18  S   UNL     1       0.806  16.810  18.663  0.00  0.00    +0.000 S 
ATOM     19  C   UNL     1       2.186  17.318  19.721  0.00  0.00    +0.000 C 
ENDBRANCH  14  18
ENDBRANCH  10  11
BRANCH   1  20
ATOM     20  N   UNL     1       2.263   6.306  19.681  0.00  0.00    +0.000 N 
BRANCH  20  21
ATOM     21  C   UNL     1       2.187   5.236  20.679  0.00  0.00    +0.000 C 
ATOM     22  C   UNL     1       1.081   4.229  20.386  0.00  0.00    +0.000 C 
ENDBRANCH  20  21
BRANCH  20  23
ATOM     23  C   UNL     1       2.366   5.921  18.266  0.00  0.00    +0.000 C 
BRANCH  23  24
ATOM     24  C   UNL     1       3.797   5.612  17.810  0.00  0.00    +0.000 C 
BRANCH  24  26
ATOM     25  C   UNL     1       2.708   3.450  17.208  0.00  0.00    +0.000 C 
ATOM     26  C   UNL     1       3.993   4.271  17.112  0.00  0.00    +0.000 C 
ENDBRANCH  24  26
ENDBRANCH  23  24
ENDBRANCH  20  23
ENDBRANCH   1  20
TORSDOF 7
ENDMDL
MODEL 9
REMARK VINA RESULT:      -6.5      3.466      7.252
REMARK  Name = 
REMARK  11 active torsions:
REMARK  status: ('A' for Active; 'I' for Inactive)
REMARK    1  A    between atoms: C_1  and  C_2
REMARK    2  A    between atoms: C_2  and  C_3
REMARK    3  A    between atoms: C_3  and  C_4
REMARK    4  A    between atoms: C_4  and  N_5
REMARK    5  A    between atoms: N_5  and  C_6
REMARK    6  A    between atoms: N_5  and  C_8
REMARK    7  A    between atoms: C_6  and  C_7
REMARK    8  A    between atoms: C_10  and  C_11
REMARK    9  A    between atoms: N_17  and  C_18
REMARK   10  A    between atoms: C_21  and  S_22
REMARK   11  A    between atoms: S_22  and  C_23
REMARK                            x       y       z     vdW  Elec       q    Type
REMARK                         _______ _______ _______ _____ _____    ______ ____
ROOT
ATOM      1  C   UNL     1       0.352  10.791  19.530  0.00  0.00    +0.000 A 
ATOM      2  N   UNL     1       0.070  10.623  20.863  0.00  0.00    +0.000 NA
ATOM      3  C   UNL     1       0.522   9.539  21.542  0.00  0.00    +0.000 A 
ATOM      4  C   UNL     1       0.270   9.488  23.018  0.00  0.00    +0.000 C 
ATOM      5  N   UNL     1       1.218   8.511  21.032  0.00  0.00    +0.000 NA
ATOM      6  C   UNL     1       1.484   8.683  19.724  0.00  0.00    +0.000 A 
ATOM      7  C   UNL     1       1.138   9.773  18.945  0.00  0.00    +0.000 A 
ATOM      8  N   UNL     1       1.665   9.605  17.695  0.00  0.00    +0.000 NA
ATOM      9  N   UNL     1       2.292   8.444  17.653  0.00  0.00    +0.000 NA
ATOM     10  N   UNL     1       2.202   7.862  18.871  0.00  0.00    +0.000 N 
ENDROOT
BRANCH  10  11
ATOM     11  C   UNL     1       2.723   6.569  19.116  0.00  0.00    +0.000 A 
ATOM     12  C   UNL     1       2.152   5.794  20.141  0.00  0.00    +0.000 A 
ATOM     13  C   UNL     1       2.595   4.487  20.373  0.00  0.00    +0.000 A 
ATOM     14  C   UNL     1       3.624   3.932  19.605  0.00  0.00    +0.000 A 
ATOM     15  C   UNL     1       4.205   4.715  18.604  0.00  0.00    +0.000 A 
ATOM     16  C   UNL     1       3.765   6.024  18.355  0.00  0.00    +0.000 A 
ATOM     17 BR   UNL     1       4.802   6.980  17.067  0.00  0.00    +0.000 Br
BRANCH  14  18
ATOM     18  S   UNL     1       4.114   2.258  19.995  0.00  0.00    +0.000 S 
ATOM     19  C   UNL     1       3.678   1.341  18.494  0.00  0.00    +0.000 C 
ENDBRANCH  14  18
ENDBRANCH  10  11
BRANCH   1  20
ATOM     20  N   UNL     1      -0.149  11.910  18.856  0.00  0.00    +0.000 N 
BRANCH  20  21
ATOM     21  C   UNL     1      -1.513  11.834  18.325  0.00  0.00    +0.000 C 
ATOM     22  C   UNL     1      -2.571  12.238  19.346  0.00  0.00    +0.000 C 
ENDBRANCH  20  21
BRANCH  20  23
ATOM     23  C   UNL     1       0.401  13.242  19.148  0.00  0.00    +0.000 C 
BRANCH  23  24
ATOM     24  C   UNL     1       1.701  13.554  18.396  0.00  0.00    +0.000 C 
BRANCH  24  26
ATOM     25  C   UNL     1       2.567  13.565  20.736  0.00  0.00    +0.000 C 
ATOM     26  C   UNL     1       2.925  13.807  19.270  0.00  0.00    +0.000 C 
ENDBRANCH  24  26
ENDBRANCH  23  24
ENDBRANCH  20  23
ENDBRANCH   1  20
TORSDOF 7
ENDMDL
