MODEL 1
REMARK VINA RESULT:      -8.6      0.000      0.000
REMARK  Name = 
REMARK  6 active torsions:
REMARK  status: ('A' for Active; 'I' for Inactive)
REMARK    1  A    between atoms: C_1  and  N_2
REMARK    2  A    between atoms: C_4  and  C_5
REMARK    3  A    between atoms: C_8  and  C_9
REMARK    4  A    between atoms: C_9  and  N_10
REMARK    5  A    between atoms: C_13  and  C_14
REMARK    6  A    between atoms: C_13  and  O_15
REMARK                            x       y       z     vdW  Elec       q    Type
REMARK                         _______ _______ _______ _____ _____    ______ ____
ROOT
ATOM      1  C   UNL     1       3.394   4.818  18.048  0.00  0.00    +0.000 C 
ENDROOT
BRANCH   1   2
ATOM      2  N   UNL     1       4.756   5.135  17.674  0.00  0.00    +0.000 N 
ATOM      3  C   UNL     1       5.777   5.351  18.607  0.00  0.00    +0.000 C 
ATOM      4  O   UNL     1       5.659   5.455  19.821  0.00  0.00    +0.000 OA
ATOM      5  C   UNL     1       7.136   5.332  17.834  0.00  0.00    +0.000 C 
ATOM      6  C   UNL     1       7.871   6.660  17.957  0.00  0.00    +0.000 C 
ATOM      7  C   UNL     1       6.684   5.018  16.435  0.00  0.00    +0.000 A 
ATOM      8  C   UNL     1       7.447   4.762  15.305  0.00  0.00    +0.000 A 
ATOM      9  C   UNL     1       6.787   4.429  14.119  0.00  0.00    +0.000 A 
ATOM     10  C   UNL     1       5.386   4.374  14.074  0.00  0.00    +0.000 A 
ATOM     11  C   UNL     1       4.624   4.629  15.217  0.00  0.00    +0.000 A 
ATOM     12  C   UNL     1       5.289   4.932  16.391  0.00  0.00    +0.000 A 
BRANCH   5  13
ATOM     13  O   UNL     1       7.982   4.288  18.300  0.00  0.00    +0.000 OA
ATOM     14  H   UNL     1       8.853   4.698  18.452  0.00  0.00    +0.000 HD
ENDBRANCH   5  13
ENDBRANCH   1   2
BRANCH   1  18
ATOM     15  C   UNL     1       1.444   7.927  20.357  0.00  0.00    +0.000 A 
ATOM     16  C   UNL     1       1.960   8.199  19.081  0.00  0.00    +0.000 A 
ATOM     17  C   UNL     1       2.580   7.193  18.329  0.00  0.00    +0.000 A 
ATOM     18  C   UNL     1       2.707   5.895  18.841  0.00  0.00    +0.000 A 
ATOM     19  C   UNL     1       2.204   5.638  20.117  0.00  0.00    +0.000 A 
ATOM     20  F   UNL     1       2.344   4.423  20.662  0.00  0.00    +0.000 F 
ATOM     21  C   UNL     1       1.576   6.631  20.868  0.00  0.00    +0.000 A 
BRANCH  15  25
ATOM     22  C   UNL     1      -1.320  11.807  21.789  0.00  0.00    +0.000 C 
ATOM     23  N   UNL     1      -0.430  10.672  21.773  0.00  0.00    +0.000 N 
ATOM     24  C   UNL     1      -0.071   9.919  20.690  0.00  0.00    +0.000 A 
ATOM     25  C   UNL     1       0.808   8.960  21.155  0.00  0.00    +0.000 A 
ATOM     26  C   UNL     1       0.895   9.233  22.544  0.00  0.00    +0.000 A 
ATOM     27  N   UNL     1       0.146  10.271  22.918  0.00  0.00    +0.000 NA
ENDBRANCH  15  25
ENDBRANCH   1  18
TORSDOF 4
ENDMDL
MODEL 2
REMARK VINA RESULT:      -8.5      0.918      1.315
REMARK  Name = 
REMARK  6 active torsions:
REMARK  status: ('A' for Active; 'I' for Inactive)
REMARK    1  A    between atoms: C_1  and  N_2
REMARK    2  A    between atoms: C_4  and  C_5
REMARK    3  A    between atoms: C_8  and  C_9
REMARK    4  A    between atoms: C_9  and  N_10
REMARK    5  A    between atoms: C_13  and  C_14
REMARK    6  A    between atoms: C_13  and  O_15
REMARK                            x       y       z     vdW  Elec       q    Type
REMARK                         _______ _______ _______ _____ _____    ______ ____
ROOT
ATOM      1  C   UNL     1       3.393   4.805  18.092  0.00  0.00    +0.000 C 
ENDROOT
BRANCH   1   2
ATOM      2  N   UNL     1       4.752   5.119  17.703  0.00  0.00    +0.000 N 
ATOM      3  C   UNL     1       5.784   5.335  18.625  0.00  0.00    +0.000 C 
ATOM      4  O   UNL     1       5.679   5.442  19.840  0.00  0.00    +0.000 OA
ATOM      5  C   UNL     1       7.134   5.311  17.837  0.00  0.00    +0.000 C 
ATOM      6  C   UNL     1       7.873   6.639  17.950  0.00  0.00    +0.000 C 
ATOM      7  C   UNL     1       6.667   4.996  16.444  0.00  0.00    +0.000 A 
ATOM      8  C   UNL     1       7.418   4.735  15.306  0.00  0.00    +0.000 A 
ATOM      9  C   UNL     1       6.744   4.402  14.128  0.00  0.00    +0.000 A 
ATOM     10  C   UNL     1       5.342   4.349  14.098  0.00  0.00    +0.000 A 
ATOM     11  C   UNL     1       4.593   4.608  15.248  0.00  0.00    +0.000 A 
ATOM     12  C   UNL     1       5.271   4.912  16.415  0.00  0.00    +0.000 A 
BRANCH   5  13
ATOM     13  O   UNL     1       7.983   4.267  18.297  0.00  0.00    +0.000 OA
ATOM     14  H   UNL     1       8.479   4.638  19.050  0.00  0.00    +0.000 HD
ENDBRANCH   5  13
ENDBRANCH   1   2
BRANCH   1  18
ATOM     15  C   UNL     1       1.456   7.869  20.472  0.00  0.00    +0.000 A 
ATOM     16  C   UNL     1       1.512   6.541  20.921  0.00  0.00    +0.000 A 
ATOM     17  C   UNL     1       2.148   5.552  20.160  0.00  0.00    +0.000 A 
ATOM     18  C   UNL     1       2.731   5.868  18.926  0.00  0.00    +0.000 A 
ATOM     19  C   UNL     1       2.657   7.188  18.480  0.00  0.00    +0.000 A 
ATOM     20  F   UNL     1       3.163   7.523  17.286  0.00  0.00    +0.000 F 
ATOM     21  C   UNL     1       2.035   8.180  19.237  0.00  0.00    +0.000 A 
BRANCH  15  25
ATOM     22  C   UNL     1      -1.436  11.688  21.810  0.00  0.00    +0.000 C 
ATOM     23  N   UNL     1      -0.504  10.588  21.819  0.00  0.00    +0.000 N 
ATOM     24  C   UNL     1      -0.130   9.813  20.758  0.00  0.00    +0.000 A 
ATOM     25  C   UNL     1       0.791   8.905  21.243  0.00  0.00    +0.000 A 
ATOM     26  C   UNL     1       0.885   9.228  22.620  0.00  0.00    +0.000 A 
ATOM     27  N   UNL     1       0.102  10.250  22.969  0.00  0.00    +0.000 NA
ENDBRANCH  15  25
ENDBRANCH   1  18
TORSDOF 4
ENDMDL
MODEL 3
REMARK VINA RESULT:      -8.3      4.439      8.596
REMARK  Name = 
REMARK  6 active torsions:
REMARK  status: ('A' for Active; 'I' for Inactive)
REMARK    1  A    between atoms: C_1  and  N_2
REMARK    2  A    between atoms: C_4  and  C_5
REMARK    3  A    between atoms: C_8  and  C_9
REMARK    4  A    between atoms: C_9  and  N_10
REMARK    5  A    between atoms: C_13  and  C_14
REMARK    6  A    between atoms: C_13  and  O_15
REMARK                            x       y       z     vdW  Elec       q    Type
REMARK                         _______ _______ _______ _____ _____    ______ ____
ROOT
ATOM      1  C   UNL     1       1.188  10.716  18.833  0.00  0.00    +0.000 C 
ENDROOT
BRANCH   1   2
ATOM      2  N   UNL     1      -0.121  11.160  19.262  0.00  0.00    +0.000 N 
ATOM      3  C   UNL     1      -0.316  12.191  20.190  0.00  0.00    +0.000 C 
ATOM      4  O   UNL     1       0.539  12.749  20.866  0.00  0.00    +0.000 OA
ATOM      5  C   UNL     1      -1.826  12.594  20.139  0.00  0.00    +0.000 C 
ATOM      6  C   UNL     1      -2.511  12.375  21.482  0.00  0.00    +0.000 C 
ATOM      7  C   UNL     1      -2.341  11.700  19.045  0.00  0.00    +0.000 A 
ATOM      8  C   UNL     1      -3.599  11.669  18.460  0.00  0.00    +0.000 A 
ATOM      9  C   UNL     1      -3.818  10.779  17.405  0.00  0.00    +0.000 A 
ATOM     10  C   UNL     1      -2.793   9.929  16.963  0.00  0.00    +0.000 A 
ATOM     11  C   UNL     1      -1.528   9.970  17.555  0.00  0.00    +0.000 A 
ATOM     12  C   UNL     1      -1.315  10.872  18.581  0.00  0.00    +0.000 A 
BRANCH   5  13
ATOM     13  O   UNL     1      -1.987  13.953  19.752  0.00  0.00    +0.000 OA
ATOM     14  H   UNL     1      -1.375  14.093  19.007  0.00  0.00    +0.000 HD
ENDBRANCH   5  13
ENDBRANCH   1   2
BRANCH   1  18
ATOM     15  C   UNL     1       2.119   6.602  19.839  0.00  0.00    +0.000 A 
ATOM     16  C   UNL     1       1.531   7.456  20.785  0.00  0.00    +0.000 A 
ATOM     17  C   UNL     1       1.219   8.782  20.458  0.00  0.00    +0.000 A 
ATOM     18  C   UNL     1       1.498   9.286  19.182  0.00  0.00    +0.000 A 
ATOM     19  C   UNL     1       2.097   8.435  18.253  0.00  0.00    +0.000 A 
ATOM     20  F   UNL     1       2.422   8.890  17.036  0.00  0.00    +0.000 F 
ATOM     21  C   UNL     1       2.401   7.111  18.567  0.00  0.00    +0.000 A 
BRANCH  15  25
ATOM     22  C   UNL     1       4.372   2.171  20.005  0.00  0.00    +0.000 C 
ATOM     23  N   UNL     1       3.477   3.278  20.233  0.00  0.00    +0.000 N 
ATOM     24  C   UNL     1       3.525   4.514  19.652  0.00  0.00    +0.000 A 
ATOM     25  C   UNL     1       2.460   5.229  20.164  0.00  0.00    +0.000 A 
ATOM     26  C   UNL     1       1.842   4.315  21.056  0.00  0.00    +0.000 A 
ATOM     27  N   UNL     1       2.457   3.132  21.096  0.00  0.00    +0.000 NA
ENDBRANCH  15  25
ENDBRANCH   1  18
TORSDOF 4
ENDMDL
MODEL 4
REMARK VINA RESULT:      -8.1      4.430      8.602
REMARK  Name = 
REMARK  6 active torsions:
REMARK  status: ('A' for Active; 'I' for Inactive)
REMARK    1  A    between atoms: C_1  and  N_2
REMARK    2  A    between atoms: C_4  and  C_5
REMARK    3  A    between atoms: C_8  and  C_9
REMARK    4  A    between atoms: C_9  and  N_10
REMARK    5  A    between atoms: C_13  and  C_14
REMARK    6  A    between atoms: C_13  and  O_15
REMARK                            x       y       z     vdW  Elec       q    Type
REMARK                         _______ _______ _______ _____ _____    ______ ____
ROOT
ATOM      1  C   UNL     1       1.107  10.896  18.820  0.00  0.00    +0.000 C 
ENDROOT
BRANCH   1   2
ATOM      2  N   UNL     1      -0.230  11.264  19.234  0.00  0.00    +0.000 N 
ATOM      3  C   UNL     1      -0.494  12.279  20.163  0.00  0.00    +0.000 C 
ATOM      4  O   UNL     1       0.320  12.879  20.852  0.00  0.00    +0.000 OA
ATOM      5  C   UNL     1      -2.023  12.597  20.094  0.00  0.00    +0.000 C 
ATOM      6  C   UNL     1      -2.712  12.335  21.427  0.00  0.00    +0.000 C 
ATOM      7  C   UNL     1      -2.474  11.682  18.990  0.00  0.00    +0.000 A 
ATOM      8  C   UNL     1      -3.720  11.584  18.388  0.00  0.00    +0.000 A 
ATOM      9  C   UNL     1      -3.876  10.689  17.327  0.00  0.00    +0.000 A 
ATOM     10  C   UNL     1      -2.800   9.899  16.895  0.00  0.00    +0.000 A 
ATOM     11  C   UNL     1      -1.547  10.007  17.503  0.00  0.00    +0.000 A 
ATOM     12  C   UNL     1      -1.398  10.914  18.536  0.00  0.00    +0.000 A 
BRANCH   5  13
ATOM     13  O   UNL     1      -2.254  13.947  19.711  0.00  0.00    +0.000 OA
ATOM     14  H   UNL     1      -3.160  14.157  20.003  0.00  0.00    +0.000 HD
ENDBRANCH   5  13
ENDBRANCH   1   2
BRANCH   1  18
ATOM     15  C   UNL     1       2.135   6.779  19.716  0.00  0.00    +0.000 A 
ATOM     16  C   UNL     1       2.353   7.310  18.435  0.00  0.00    +0.000 A 
ATOM     17  C   UNL     1       2.032   8.643  18.147  0.00  0.00    +0.000 A 
ATOM     18  C   UNL     1       1.476   9.471  19.131  0.00  0.00    +0.000 A 
ATOM     19  C   UNL     1       1.250   8.930  20.397  0.00  0.00    +0.000 A 
ATOM     20  F   UNL     1       0.679   9.675  21.353  0.00  0.00    +0.000 F 
ATOM     21  C   UNL     1       1.576   7.608  20.695  0.00  0.00    +0.000 A 
BRANCH  15  25
ATOM     22  C   UNL     1       4.285   2.295  19.811  0.00  0.00    +0.000 C 
ATOM     23  N   UNL     1       3.423   3.422  20.066  0.00  0.00    +0.000 N 
ATOM     24  C   UNL     1       3.485   4.658  19.486  0.00  0.00    +0.000 A 
ATOM     25  C   UNL     1       2.452   5.397  20.029  0.00  0.00    +0.000 A 
ATOM     26  C   UNL     1       1.838   4.496  20.935  0.00  0.00    +0.000 A 
ATOM     27  N   UNL     1       2.425   3.299  20.956  0.00  0.00    +0.000 NA
ENDBRANCH  15  25
ENDBRANCH   1  18
TORSDOF 4
ENDMDL
MODEL 5
REMARK VINA RESULT:      -8.1      2.127      3.001
REMARK  Name = 
REMARK  6 active torsions:
REMARK  status: ('A' for Active; 'I' for Inactive)
REMARK    1  A    between atoms: C_1  and  N_2
REMARK    2  A    between atoms: C_4  and  C_5
REMARK    3  A    between atoms: C_8  and  C_9
REMARK    4  A    between atoms: C_9  and  N_10
REMARK    5  A    between atoms: C_13  and  C_14
REMARK    6  A    between atoms: C_13  and  O_15
REMARK                            x       y       z     vdW  Elec       q    Type
REMARK                         _______ _______ _______ _____ _____    ______ ____
ROOT
ATOM      1  C   UNL     1       3.225   7.259  17.086  0.00  0.00    +0.000 C 
ENDROOT
BRANCH   1   2
ATOM      2  N   UNL     1       4.128   6.184  17.437  0.00  0.00    +0.000 N 
ATOM      3  C   UNL     1       5.471   6.390  17.778  0.00  0.00    +0.000 C 
ATOM      4  O   UNL     1       6.103   7.434  17.690  0.00  0.00    +0.000 OA
ATOM      5  C   UNL     1       6.009   5.062  18.403  0.00  0.00    +0.000 C 
ATOM      6  C   UNL     1       7.163   4.486  17.592  0.00  0.00    +0.000 C 
ATOM      7  C   UNL     1       4.776   4.201  18.395  0.00  0.00    +0.000 A 
ATOM      8  C   UNL     1       4.590   2.934  18.928  0.00  0.00    +0.000 A 
ATOM      9  C   UNL     1       3.317   2.361  18.847  0.00  0.00    +0.000 A 
ATOM     10  C   UNL     1       2.263   3.048  18.228  0.00  0.00    +0.000 A 
ATOM     11  C   UNL     1       2.457   4.326  17.698  0.00  0.00    +0.000 A 
ATOM     12  C   UNL     1       3.714   4.894  17.806  0.00  0.00    +0.000 A 
BRANCH   5  13
ATOM     13  O   UNL     1       6.438   5.258  19.745  0.00  0.00    +0.000 OA
ATOM     14  H   UNL     1       7.387   5.474  19.694  0.00  0.00    +0.000 HD
ENDBRANCH   5  13
ENDBRANCH   1   2
BRANCH   1  18
ATOM     15  C   UNL     1       1.147   9.029  20.455  0.00  0.00    +0.000 A 
ATOM     16  C   UNL     1       1.710   7.747  20.553  0.00  0.00    +0.000 A 
ATOM     17  C   UNL     1       2.391   7.179  19.470  0.00  0.00    +0.000 A 
ATOM     18  C   UNL     1       2.516   7.875  18.261  0.00  0.00    +0.000 A 
ATOM     19  C   UNL     1       1.940   9.143  18.168  0.00  0.00    +0.000 A 
ATOM     20  F   UNL     1       1.997   9.824  17.016  0.00  0.00    +0.000 F 
ATOM     21  C   UNL     1       1.269   9.720  19.245  0.00  0.00    +0.000 A 
BRANCH  15  25
ATOM     22  C   UNL     1      -1.913  11.865  23.164  0.00  0.00    +0.000 C 
ATOM     23  N   UNL     1      -0.941  10.885  22.746  0.00  0.00    +0.000 N 
ATOM     24  C   UNL     1      -0.515  10.635  21.471  0.00  0.00    +0.000 A 
ATOM     25  C   UNL     1       0.428   9.629  21.565  0.00  0.00    +0.000 A 
ATOM     26  C   UNL     1       0.479   9.347  22.953  0.00  0.00    +0.000 A 
ATOM     27  N   UNL     1      -0.350  10.109  23.669  0.00  0.00    +0.000 NA
ENDBRANCH  15  25
ENDBRANCH   1  18
TORSDOF 4
ENDMDL
MODEL 6
REMARK VINA RESULT:      -8.1      2.393      3.124
REMARK  Name = 
REMARK  6 active torsions:
REMARK  status: ('A' for Active; 'I' for Inactive)
REMARK    1  A    between atoms: C_1  and  N_2
REMARK    2  A    between atoms: C_4  and  C_5
REMARK    3  A    between atoms: C_8  and  C_9
REMARK    4  A    between atoms: C_9  and  N_10
REMARK    5  A    between atoms: C_13  and  C_14
REMARK    6  A    between atoms: C_13  and  O_15
REMARK                            x       y       z     vdW  Elec       q    Type
REMARK                         _______ _______ _______ _____ _____    ______ ____
ROOT
ATOM      1  C   UNL     1       2.936   7.136  17.466  0.00  0.00    +0.000 C 
ENDROOT
BRANCH   1   2
ATOM      2  N   UNL     1       3.737   6.029  17.945  0.00  0.00    +0.000 N 
ATOM      3  C   UNL     1       3.234   4.731  18.105  0.00  0.00    +0.000 C 
ATOM      4  O   UNL     1       2.066   4.376  18.020  0.00  0.00    +0.000 OA
ATOM      5  C   UNL     1       4.453   3.774  18.310  0.00  0.00    +0.000 C 
ATOM      6  C   UNL     1       4.396   3.074  19.662  0.00  0.00    +0.000 C 
ATOM      7  C   UNL     1       5.611   4.723  18.169  0.00  0.00    +0.000 A 
ATOM      8  C   UNL     1       6.970   4.447  18.144  0.00  0.00    +0.000 A 
ATOM      9  C   UNL     1       7.858   5.506  17.936  0.00  0.00    +0.000 A 
ATOM     10  C   UNL     1       7.382   6.815  17.773  0.00  0.00    +0.000 A 
ATOM     11  C   UNL     1       6.012   7.084  17.795  0.00  0.00    +0.000 A 
ATOM     12  C   UNL     1       5.141   6.025  17.976  0.00  0.00    +0.000 A 
BRANCH   5  13
ATOM     13  O   UNL     1       4.520   2.793  17.282  0.00  0.00    +0.000 OA
ATOM     14  H   UNL     1       5.247   2.194  17.531  0.00  0.00    +0.000 HD
ENDBRANCH   5  13
ENDBRANCH   1   2
BRANCH   1  18
ATOM     15  C   UNL     1       0.888   9.346  20.584  0.00  0.00    +0.000 A 
ATOM     16  C   UNL     1       1.407   8.067  20.835  0.00  0.00    +0.000 A 
ATOM     17  C   UNL     1       2.079   7.356  19.833  0.00  0.00    +0.000 A 
ATOM     18  C   UNL     1       2.238   7.905  18.554  0.00  0.00    +0.000 A 
ATOM     19  C   UNL     1       1.705   9.171  18.309  0.00  0.00    +0.000 A 
ATOM     20  F   UNL     1       1.795   9.713  17.087  0.00  0.00    +0.000 F 
ATOM     21  C   UNL     1       1.044   9.890  19.304  0.00  0.00    +0.000 A 
BRANCH  15  25
ATOM     22  C   UNL     1      -1.325  12.996  23.138  0.00  0.00    +0.000 C 
ATOM     23  N   UNL     1      -0.807  11.718  22.718  0.00  0.00    +0.000 N 
ATOM     24  C   UNL     1      -0.131  11.438  21.563  0.00  0.00    +0.000 A 
ATOM     25  C   UNL     1       0.179  10.093  21.608  0.00  0.00    +0.000 A 
ATOM     26  C   UNL     1      -0.372   9.664  22.842  0.00  0.00    +0.000 A 
ATOM     27  N   UNL     1      -0.967  10.649  23.516  0.00  0.00    +0.000 NA
ENDBRANCH  15  25
ENDBRANCH   1  18
TORSDOF 4
ENDMDL
MODEL 7
REMARK VINA RESULT:      -7.8      4.472      8.833
REMARK  Name = 
REMARK  6 active torsions:
REMARK  status: ('A' for Active; 'I' for Inactive)
REMARK    1  A    between atoms: C_1  and  N_2
REMARK    2  A    between atoms: C_4  and  C_5
REMARK    3  A    between atoms: C_8  and  C_9
REMARK    4  A    between atoms: C_9  and  N_10
REMARK    5  A    between atoms: C_13  and  C_14
REMARK    6  A    between atoms: C_13  and  O_15
REMARK                            x       y       z     vdW  Elec       q    Type
REMARK                         _______ _______ _______ _____ _____    ______ ____
ROOT
ATOM      1  C   UNL     1       0.976  11.507  18.987  0.00  0.00    +0.000 C 
ENDROOT
BRANCH   1   2
ATOM      2  N   UNL     1      -0.396  11.699  19.404  0.00  0.00    +0.000 N 
ATOM      3  C   UNL     1      -0.783  12.646  20.361  0.00  0.00    +0.000 C 
ATOM      4  O   UNL     1      -0.049  13.320  21.072  0.00  0.00    +0.000 OA
ATOM      5  C   UNL     1      -2.339  12.779  20.293  0.00  0.00    +0.000 C 
ATOM      6  C   UNL     1      -2.993  12.395  21.615  0.00  0.00    +0.000 C 
ATOM      7  C   UNL     1      -2.674  11.848  19.160  0.00  0.00    +0.000 A 
ATOM      8  C   UNL     1      -3.898  11.618  18.549  0.00  0.00    +0.000 A 
ATOM      9  C   UNL     1      -3.942  10.742  17.461  0.00  0.00    +0.000 A 
ATOM     10  C   UNL     1      -2.777  10.102  17.013  0.00  0.00    +0.000 A 
ATOM     11  C   UNL     1      -1.548  10.342  17.630  0.00  0.00    +0.000 A 
ATOM     12  C   UNL     1      -1.511  11.231  18.690  0.00  0.00    +0.000 A 
BRANCH   5  13
ATOM     13  O   UNL     1      -2.731  14.101  19.948  0.00  0.00    +0.000 OA
ATOM     14  H   UNL     1      -3.631  14.026  19.580  0.00  0.00    +0.000 HD
ENDBRANCH   5  13
ENDBRANCH   1   2
BRANCH   1  18
ATOM     15  C   UNL     1       2.225   7.355  18.958  0.00  0.00    +0.000 A 
ATOM     16  C   UNL     1       2.367   8.154  17.814  0.00  0.00    +0.000 A 
ATOM     17  C   UNL     1       1.975   9.499  17.824  0.00  0.00    +0.000 A 
ATOM     18  C   UNL     1       1.422  10.071  18.977  0.00  0.00    +0.000 A 
ATOM     19  C   UNL     1       1.271   9.264  20.106  0.00  0.00    +0.000 A 
ATOM     20  F   UNL     1       0.706   9.760  21.214  0.00  0.00    +0.000 F 
ATOM     21  C   UNL     1       1.668   7.928  20.107  0.00  0.00    +0.000 A 
BRANCH  15  25
ATOM     22  C   UNL     1       2.543   2.501  17.917  0.00  0.00    +0.000 C 
ATOM     23  N   UNL     1       2.751   3.813  18.479  0.00  0.00    +0.000 N 
ATOM     24  C   UNL     1       2.091   4.965  18.154  0.00  0.00    +0.000 A 
ATOM     25  C   UNL     1       2.616   5.956  18.961  0.00  0.00    +0.000 A 
ATOM     26  C   UNL     1       3.595   5.277  19.730  0.00  0.00    +0.000 A 
ATOM     27  N   UNL     1       3.676   3.978  19.439  0.00  0.00    +0.000 NA
ENDBRANCH  15  25
ENDBRANCH   1  18
TORSDOF 4
ENDMDL
MODEL 8
REMARK VINA RESULT:      -7.8      3.644      8.613
REMARK  Name = 
REMARK  6 active torsions:
REMARK  status: ('A' for Active; 'I' for Inactive)
REMARK    1  A    between atoms: C_1  and  N_2
REMARK    2  A    between atoms: C_4  and  C_5
REMARK    3  A    between atoms: C_8  and  C_9
REMARK    4  A    between atoms: C_9  and  N_10
REMARK    5  A    between atoms: C_13  and  C_14
REMARK    6  A    between atoms: C_13  and  O_15
REMARK                            x       y       z     vdW  Elec       q    Type
REMARK                         _______ _______ _______ _____ _____    ______ ____
ROOT
ATOM      1  C   UNL     1       0.418  10.352  18.806  0.00  0.00    +0.000 C 
ENDROOT
BRANCH   1   2
ATOM      2  N   UNL     1       0.871  11.482  19.590  0.00  0.00    +0.000 N 
ATOM      3  C   UNL     1       1.805  12.414  19.123  0.00  0.00    +0.000 C 
ATOM      4  O   UNL     1       2.470  12.345  18.098  0.00  0.00    +0.000 OA
ATOM      5  C   UNL     1       1.781  13.636  20.098  0.00  0.00    +0.000 C 
ATOM      6  C   UNL     1       3.134  13.851  20.764  0.00  0.00    +0.000 C 
ATOM      7  C   UNL     1       0.692  13.239  21.055  0.00  0.00    +0.000 A 
ATOM      8  C   UNL     1       0.127  13.970  22.091  0.00  0.00    +0.000 A 
ATOM      9  C   UNL     1      -0.928  13.399  22.807  0.00  0.00    +0.000 A 
ATOM     10  C   UNL     1      -1.390  12.112  22.493  0.00  0.00    +0.000 A 
ATOM     11  C   UNL     1      -0.819  11.384  21.447  0.00  0.00    +0.000 A 
ATOM     12  C   UNL     1       0.208  11.969  20.728  0.00  0.00    +0.000 A 
BRANCH   5  13
ATOM     13  O   UNL     1       1.402  14.830  19.423  0.00  0.00    +0.000 OA
ATOM     14  H   UNL     1       1.264  14.578  18.491  0.00  0.00    +0.000 HD
ENDBRANCH   5  13
ENDBRANCH   1   2
BRANCH   1  18
ATOM     15  C   UNL     1       2.912   6.819  19.130  0.00  0.00    +0.000 A 
ATOM     16  C   UNL     1       2.905   7.587  17.955  0.00  0.00    +0.000 A 
ATOM     17  C   UNL     1       2.110   8.735  17.853  0.00  0.00    +0.000 A 
ATOM     18  C   UNL     1       1.294   9.134  18.920  0.00  0.00    +0.000 A 
ATOM     19  C   UNL     1       1.295   8.356  20.078  0.00  0.00    +0.000 A 
ATOM     20  F   UNL     1       0.496   8.677  21.104  0.00  0.00    +0.000 F 
ATOM     21  C   UNL     1       2.092   7.218  20.191  0.00  0.00    +0.000 A 
BRANCH  15  25
ATOM     22  C   UNL     1       4.386   2.128  19.881  0.00  0.00    +0.000 C 
ATOM     23  N   UNL     1       4.354   3.537  19.574  0.00  0.00    +0.000 N 
ATOM     24  C   UNL     1       3.265   4.363  19.595  0.00  0.00    +0.000 A 
ATOM     25  C   UNL     1       3.722   5.620  19.249  0.00  0.00    +0.000 A 
ATOM     26  C   UNL     1       5.110   5.424  19.033  0.00  0.00    +0.000 A 
ATOM     27  N   UNL     1       5.493   4.162  19.232  0.00  0.00    +0.000 NA
ENDBRANCH  15  25
ENDBRANCH   1  18
TORSDOF 4
ENDMDL
MODEL 9
REMARK VINA RESULT:      -7.7      4.500      9.102
REMARK  Name = 
REMARK  6 active torsions:
REMARK  status: ('A' for Active; 'I' for Inactive)
REMARK    1  A    between atoms: C_1  and  N_2
REMARK    2  A    between atoms: C_4  and  C_5
REMARK    3  A    between atoms: C_8  and  C_9
REMARK    4  A    between atoms: C_9  and  N_10
REMARK    5  A    between atoms: C_13  and  C_14
REMARK    6  A    between atoms: C_13  and  O_15
REMARK                            x       y       z     vdW  Elec       q    Type
REMARK                         _______ _______ _______ _____ _____    ______ ____
ROOT
ATOM      1  C   UNL     1       0.473  11.786  19.116  0.00  0.00    +0.000 C 
ENDROOT
BRANCH   1   2
ATOM      2  N   UNL     1      -0.897  11.959  19.551  0.00  0.00    +0.000 N 
ATOM      3  C   UNL     1      -1.288  12.917  20.495  0.00  0.00    +0.000 C 
ATOM      4  O   UNL     1      -0.556  13.619  21.181  0.00  0.00    +0.000 OA
ATOM      5  C   UNL     1      -2.847  13.018  20.448  0.00  0.00    +0.000 C 
ATOM      6  C   UNL     1      -3.474  12.648  21.787  0.00  0.00    +0.000 C 
ATOM      7  C   UNL     1      -3.180  12.059  19.339  0.00  0.00    +0.000 A 
ATOM      8  C   UNL     1      -4.409  11.793  18.752  0.00  0.00    +0.000 A 
ATOM      9  C   UNL     1      -4.452  10.895  17.682  0.00  0.00    +0.000 A 
ATOM     10  C   UNL     1      -3.282  10.269  17.228  0.00  0.00    +0.000 A 
ATOM     11  C   UNL     1      -2.048  10.546  17.821  0.00  0.00    +0.000 A 
ATOM     12  C   UNL     1      -2.013  11.455  18.863  0.00  0.00    +0.000 A 
BRANCH   5  13
ATOM     13  O   UNL     1      -3.271  14.326  20.084  0.00  0.00    +0.000 OA
ATOM     14  H   UNL     1      -3.525  14.273  19.144  0.00  0.00    +0.000 HD
ENDBRANCH   5  13
ENDBRANCH   1   2
BRANCH   1  18
ATOM     15  C   UNL     1       1.958   7.741  19.600  0.00  0.00    +0.000 A 
ATOM     16  C   UNL     1       2.054   8.397  18.364  0.00  0.00    +0.000 A 
ATOM     17  C   UNL     1       1.585   9.707  18.208  0.00  0.00    +0.000 A 
ATOM     18  C   UNL     1       1.000  10.388  19.284  0.00  0.00    +0.000 A 
ATOM     19  C   UNL     1       0.895   9.722  20.506  0.00  0.00    +0.000 A 
ATOM     20  F   UNL     1       0.302  10.321  21.547  0.00  0.00    +0.000 F 
ATOM     21  C   UNL     1       1.368   8.422  20.671  0.00  0.00    +0.000 A 
BRANCH  15  25
ATOM     22  C   UNL     1       4.605   3.543  19.278  0.00  0.00    +0.000 C 
ATOM     23  N   UNL     1       3.619   4.533  19.631  0.00  0.00    +0.000 N 
ATOM     24  C   UNL     1       3.543   5.822  19.180  0.00  0.00    +0.000 A 
ATOM     25  C   UNL     1       2.428   6.379  19.777  0.00  0.00    +0.000 A 
ATOM     26  C   UNL     1       1.915   5.325  20.575  0.00  0.00    +0.000 A 
ATOM     27  N   UNL     1       2.635   4.206  20.485  0.00  0.00    +0.000 NA
ENDBRANCH  15  25
ENDBRANCH   1  18
TORSDOF 4
ENDMDL
