MODEL 1
REMARK VINA RESULT:      -8.5      0.000      0.000
REMARK  Name = 
REMARK  7 active torsions:
REMARK  status: ('A' for Active; 'I' for Inactive)
REMARK    1  A    between atoms: C_1  and  N_2
REMARK    2  A    between atoms: C_3  and  C_4
REMARK    3  A    between atoms: C_4  and  O_5
REMARK    4  A    between atoms: C_4  and  C_6
REMARK    5  A    between atoms: C_4  and  C_13
REMARK    6  A    between atoms: C_24  and  S_25
REMARK    7  A    between atoms: S_25  and  N_26
REMARK                            x       y       z     vdW  Elec       q    Type
REMARK                         _______ _______ _______ _____ _____    ______ ____
ROOT
ATOM      1  C   UNL     1       2.638   5.861  18.892  0.00  0.00    +0.000 C 
ENDROOT
BRANCH   1   4
ATOM      2  C   UNL     1       2.044   8.782  17.658  0.00  0.00    +0.000 C 
ATOM      3  N   UNL     1       1.819   8.344  19.015  0.00  0.00    +0.000 N 
ATOM      4  C   UNL     1       2.052   7.106  19.581  0.00  0.00    +0.000 A 
ATOM      5  N   UNL     1       1.627   7.090  20.842  0.00  0.00    +0.000 NA
ATOM      6  C   UNL     1       1.169   8.351  21.108  0.00  0.00    +0.000 A 
ATOM      7  C   UNL     1       0.627   8.873  22.293  0.00  0.00    +0.000 A 
ATOM      8  C   UNL     1       0.251  10.222  22.328  0.00  0.00    +0.000 A 
ATOM      9  C   UNL     1       0.429  11.025  21.198  0.00  0.00    +0.000 A 
ATOM     10  C   UNL     1       0.932  10.517  19.995  0.00  0.00    +0.000 A 
ATOM     11  C   UNL     1       1.296   9.166  19.991  0.00  0.00    +0.000 A 
BRANCH   9  12
ATOM     12  S   UNL     1       0.039  12.751  21.285  0.00  0.00    +0.000 S 
ATOM     13  O   UNL     1       1.244  13.499  21.557  0.00  0.00    +0.000 OA
ATOM     14  O   UNL     1      -0.865  13.093  20.216  0.00  0.00    +0.000 OA
BRANCH  12  15
ATOM     15  N   UNL     1      -0.864  12.794  22.698  0.00  0.00    +0.000 NA
ATOM     16  H   UNL     1      -1.036  13.757  22.982  0.00  0.00    +0.000 HD
ATOM     17  H   UNL     1      -1.702  12.222  22.600  0.00  0.00    +0.000 HD
ENDBRANCH  12  15
ENDBRANCH   9  12
ENDBRANCH   1   4
BRANCH   1  18
ATOM     18  C   UNL     1       4.115   6.076  18.509  0.00  0.00    +0.000 A 
ATOM     19  C   UNL     1       4.521   6.793  17.368  0.00  0.00    +0.000 A 
ATOM     20  C   UNL     1       5.878   6.934  17.058  0.00  0.00    +0.000 A 
ATOM     21  C   UNL     1       6.840   6.368  17.884  0.00  0.00    +0.000 A 
ATOM     22  F   UNL     1       8.138   6.505  17.580  0.00  0.00    +0.000 F 
ATOM     23  C   UNL     1       6.477   5.660  19.017  0.00  0.00    +0.000 A 
ATOM     24  C   UNL     1       5.124   5.514  19.327  0.00  0.00    +0.000 A 
ENDBRANCH   1  18
BRANCH   1  25
ATOM     25  C   UNL     1       2.318   4.559  19.656  0.00  0.00    +0.000 A 
ATOM     26  N   UNL     1       2.294   4.595  21.028  0.00  0.00    +0.000 NA
ATOM     27  C   UNL     1       1.974   3.463  21.699  0.00  0.00    +0.000 A 
ATOM     28  C   UNL     1       1.689   2.258  21.086  0.00  0.00    +0.000 A 
ATOM     29  C   UNL     1       1.759   2.208  19.699  0.00  0.00    +0.000 A 
ATOM     30  C   UNL     1       2.087   3.356  18.981  0.00  0.00    +0.000 A 
ATOM     31  F   UNL     1       2.184   3.254  17.651  0.00  0.00    +0.000 F 
ENDBRANCH   1  25
BRANCH   1  32
ATOM     32  O   UNL     1       1.947   5.817  17.617  0.00  0.00    +0.000 OA
ATOM     33  H   UNL     1       1.128   5.308  17.783  0.00  0.00    +0.000 HD
ENDBRANCH   1  32
TORSDOF 6
ENDMDL
MODEL 2
REMARK VINA RESULT:      -8.4      4.206      7.804
REMARK  Name = 
REMARK  7 active torsions:
REMARK  status: ('A' for Active; 'I' for Inactive)
REMARK    1  A    between atoms: C_1  and  N_2
REMARK    2  A    between atoms: C_3  and  C_4
REMARK    3  A    between atoms: C_4  and  O_5
REMARK    4  A    between atoms: C_4  and  C_6
REMARK    5  A    between atoms: C_4  and  C_13
REMARK    6  A    between atoms: C_24  and  S_25
REMARK    7  A    between atoms: S_25  and  N_26
REMARK                            x       y       z     vdW  Elec       q    Type
REMARK                         _______ _______ _______ _____ _____    ______ ____
ROOT
ATOM      1  C   UNL     1       0.534  10.643  19.523  0.00  0.00    +0.000 C 
ENDROOT
BRANCH   1   4
ATOM      2  C   UNL     1       0.923   7.930  21.226  0.00  0.00    +0.000 C 
ATOM      3  N   UNL     1       1.530   8.261  19.959  0.00  0.00    +0.000 N 
ATOM      4  C   UNL     1       1.386   9.403  19.196  0.00  0.00    +0.000 A 
ATOM      5  N   UNL     1       2.052   9.277  18.051  0.00  0.00    +0.000 NA
ATOM      6  C   UNL     1       2.680   8.063  18.104  0.00  0.00    +0.000 A 
ATOM      7  C   UNL     1       3.520   7.450  17.161  0.00  0.00    +0.000 A 
ATOM      8  C   UNL     1       4.072   6.198  17.461  0.00  0.00    +0.000 A 
ATOM      9  C   UNL     1       3.792   5.587  18.687  0.00  0.00    +0.000 A 
ATOM     10  C   UNL     1       2.928   6.163  19.625  0.00  0.00    +0.000 A 
ATOM     11  C   UNL     1       2.391   7.412  19.296  0.00  0.00    +0.000 A 
BRANCH   9  12
ATOM     12  S   UNL     1       4.572   4.049  19.094  0.00  0.00    +0.000 S 
ATOM     13  O   UNL     1       5.966   4.285  19.388  0.00  0.00    +0.000 OA
ATOM     14  O   UNL     1       3.710   3.290  19.963  0.00  0.00    +0.000 OA
BRANCH  12  15
ATOM     15  N   UNL     1       4.536   3.280  17.604  0.00  0.00    +0.000 NA
ATOM     16  H   UNL     1       5.355   2.685  17.489  0.00  0.00    +0.000 HD
ATOM     17  H   UNL     1       3.643   2.805  17.472  0.00  0.00    +0.000 HD
ENDBRANCH  12  15
ENDBRANCH   9  12
ENDBRANCH   1   4
BRANCH   1  18
ATOM     18  C   UNL     1       1.387  11.926  19.515  0.00  0.00    +0.000 A 
ATOM     19  C   UNL     1       1.700  12.652  20.679  0.00  0.00    +0.000 A 
ATOM     20  C   UNL     1       2.458  13.826  20.606  0.00  0.00    +0.000 A 
ATOM     21  C   UNL     1       2.914  14.282  19.376  0.00  0.00    +0.000 A 
ATOM     22  F   UNL     1       3.638  15.408  19.314  0.00  0.00    +0.000 F 
ATOM     23  C   UNL     1       2.628  13.590  18.211  0.00  0.00    +0.000 A 
ATOM     24  C   UNL     1       1.868  12.421  18.279  0.00  0.00    +0.000 A 
ENDBRANCH   1  18
BRANCH   1  25
ATOM     25  C   UNL     1      -0.773  10.691  18.704  0.00  0.00    +0.000 A 
ATOM     26  N   UNL     1      -0.916   9.827  17.648  0.00  0.00    +0.000 NA
ATOM     27  C   UNL     1      -2.078   9.841  16.953  0.00  0.00    +0.000 A 
ATOM     28  C   UNL     1      -3.131  10.693  17.230  0.00  0.00    +0.000 A 
ATOM     29  C   UNL     1      -2.971  11.599  18.270  0.00  0.00    +0.000 A 
ATOM     30  C   UNL     1      -1.785  11.610  19.002  0.00  0.00    +0.000 A 
ATOM     31  F   UNL     1      -1.656  12.527  19.967  0.00  0.00    +0.000 F 
ENDBRANCH   1  25
BRANCH   1  32
ATOM     32  O   UNL     1       0.185  10.460  20.919  0.00  0.00    +0.000 OA
ATOM     33  H   UNL     1      -0.430  11.191  21.131  0.00  0.00    +0.000 HD
ENDBRANCH   1  32
TORSDOF 6
ENDMDL
MODEL 3
REMARK VINA RESULT:      -8.4      0.665      1.188
REMARK  Name = 
REMARK  7 active torsions:
REMARK  status: ('A' for Active; 'I' for Inactive)
REMARK    1  A    between atoms: C_1  and  N_2
REMARK    2  A    between atoms: C_3  and  C_4
REMARK    3  A    between atoms: C_4  and  O_5
REMARK    4  A    between atoms: C_4  and  C_6
REMARK    5  A    between atoms: C_4  and  C_13
REMARK    6  A    between atoms: C_24  and  S_25
REMARK    7  A    between atoms: S_25  and  N_26
REMARK                            x       y       z     vdW  Elec       q    Type
REMARK                         _______ _______ _______ _____ _____    ______ ____
ROOT
ATOM      1  C   UNL     1       2.665   5.836  18.892  0.00  0.00    +0.000 C 
ENDROOT
BRANCH   1   4
ATOM      2  C   UNL     1       2.073   8.744  17.627  0.00  0.00    +0.000 C 
ATOM      3  N   UNL     1       1.858   8.324  18.991  0.00  0.00    +0.000 N 
ATOM      4  C   UNL     1       2.090   7.092  19.570  0.00  0.00    +0.000 A 
ATOM      5  N   UNL     1       1.676   7.094  20.834  0.00  0.00    +0.000 NA
ATOM      6  C   UNL     1       1.225   8.360  21.089  0.00  0.00    +0.000 A 
ATOM      7  C   UNL     1       0.696   8.900  22.272  0.00  0.00    +0.000 A 
ATOM      8  C   UNL     1       0.326  10.251  22.292  0.00  0.00    +0.000 A 
ATOM      9  C   UNL     1       0.498  11.039  21.151  0.00  0.00    +0.000 A 
ATOM     10  C   UNL     1       0.988  10.513  19.950  0.00  0.00    +0.000 A 
ATOM     11  C   UNL     1       1.346   9.161  19.961  0.00  0.00    +0.000 A 
BRANCH   9  12
ATOM     12  S   UNL     1       0.116  12.767  21.218  0.00  0.00    +0.000 S 
ATOM     13  O   UNL     1      -0.369  13.199  19.929  0.00  0.00    +0.000 OA
ATOM     14  O   UNL     1      -0.577  13.058  22.449  0.00  0.00    +0.000 OA
BRANCH  12  15
ATOM     15  N   UNL     1       1.653  13.418  21.378  0.00  0.00    +0.000 NA
ATOM     16  H   UNL     1       1.706  14.011  22.205  0.00  0.00    +0.000 HD
ATOM     17  H   UNL     1       2.356  12.681  21.337  0.00  0.00    +0.000 HD
ENDBRANCH  12  15
ENDBRANCH   9  12
ENDBRANCH   1   4
BRANCH   1  18
ATOM     18  C   UNL     1       4.156   6.019  18.547  0.00  0.00    +0.000 A 
ATOM     19  C   UNL     1       5.201   5.503  19.337  0.00  0.00    +0.000 A 
ATOM     20  C   UNL     1       6.537   5.723  18.986  0.00  0.00    +0.000 A 
ATOM     21  C   UNL     1       6.843   6.452  17.844  0.00  0.00    +0.000 A 
ATOM     22  F   UNL     1       8.125   6.661  17.515  0.00  0.00    +0.000 F 
ATOM     23  C   UNL     1       5.840   6.971  17.042  0.00  0.00    +0.000 A 
ATOM     24  C   UNL     1       4.506   6.757  17.391  0.00  0.00    +0.000 A 
ENDBRANCH   1  18
BRANCH   1  25
ATOM     25  C   UNL     1       2.297   4.540  19.645  0.00  0.00    +0.000 A 
ATOM     26  N   UNL     1       2.261   4.567  21.016  0.00  0.00    +0.000 NA
ATOM     27  C   UNL     1       1.900   3.442  21.677  0.00  0.00    +0.000 A 
ATOM     28  C   UNL     1       1.582   2.250  21.052  0.00  0.00    +0.000 A 
ATOM     29  C   UNL     1       1.663   2.207  19.666  0.00  0.00    +0.000 A 
ATOM     30  C   UNL     1       2.034   3.349  18.959  0.00  0.00    +0.000 A 
ATOM     31  F   UNL     1       2.140   3.253  17.629  0.00  0.00    +0.000 F 
ENDBRANCH   1  25
BRANCH   1  32
ATOM     32  O   UNL     1       2.005   5.811  17.600  0.00  0.00    +0.000 OA
ATOM     33  H   UNL     1       1.650   6.714  17.472  0.00  0.00    +0.000 HD
ENDBRANCH   1  32
TORSDOF 6
ENDMDL
MODEL 4
REMARK VINA RESULT:      -8.2      1.267      1.466
REMARK  Name = 
REMARK  7 active torsions:
REMARK  status: ('A' for Active; 'I' for Inactive)
REMARK    1  A    between atoms: C_1  and  N_2
REMARK    2  A    between atoms: C_3  and  C_4
REMARK    3  A    between atoms: C_4  and  O_5
REMARK    4  A    between atoms: C_4  and  C_6
REMARK    5  A    between atoms: C_4  and  C_13
REMARK    6  A    between atoms: C_24  and  S_25
REMARK    7  A    between atoms: S_25  and  N_26
REMARK                            x       y       z     vdW  Elec       q    Type
REMARK                         _______ _______ _______ _____ _____    ______ ____
ROOT
ATOM      1  C   UNL     1       2.659   5.239  18.821  0.00  0.00    +0.000 C 
ENDROOT
BRANCH   1   4
ATOM      2  C   UNL     1       2.329   8.122  17.410  0.00  0.00    +0.000 C 
ATOM      3  N   UNL     1       2.068   7.789  18.790  0.00  0.00    +0.000 N 
ATOM      4  C   UNL     1       2.189   6.571  19.431  0.00  0.00    +0.000 A 
ATOM      5  N   UNL     1       1.767   6.670  20.689  0.00  0.00    +0.000 NA
ATOM      6  C   UNL     1       1.425   7.981  20.877  0.00  0.00    +0.000 A 
ATOM      7  C   UNL     1       0.935   8.621  22.026  0.00  0.00    +0.000 A 
ATOM      8  C   UNL     1       0.682   9.998  21.977  0.00  0.00    +0.000 A 
ATOM      9  C   UNL     1       0.930  10.712  20.802  0.00  0.00    +0.000 A 
ATOM     10  C   UNL     1       1.382  10.088  19.633  0.00  0.00    +0.000 A 
ATOM     11  C   UNL     1       1.623   8.712  19.713  0.00  0.00    +0.000 A 
BRANCH   9  12
ATOM     12  S   UNL     1       0.697  12.468  20.782  0.00  0.00    +0.000 S 
ATOM     13  O   UNL     1       1.961  13.119  21.033  0.00  0.00    +0.000 OA
ATOM     14  O   UNL     1      -0.158  12.826  19.678  0.00  0.00    +0.000 OA
BRANCH  12  15
ATOM     15  N   UNL     1      -0.218  12.675  22.172  0.00  0.00    +0.000 NA
ATOM     16  H   UNL     1      -0.319  11.791  22.668  0.00  0.00    +0.000 HD
ATOM     17  H   UNL     1       0.160  13.437  22.735  0.00  0.00    +0.000 HD
ENDBRANCH  12  15
ENDBRANCH   9  12
ENDBRANCH   1   4
BRANCH   1  18
ATOM     18  C   UNL     1       4.001   5.404  18.081  0.00  0.00    +0.000 A 
ATOM     19  C   UNL     1       5.106   6.082  18.628  0.00  0.00    +0.000 A 
ATOM     20  C   UNL     1       6.292   6.222  17.897  0.00  0.00    +0.000 A 
ATOM     21  C   UNL     1       6.387   5.684  16.621  0.00  0.00    +0.000 A 
ATOM     22  F   UNL     1       7.524   5.824  15.926  0.00  0.00    +0.000 F 
ATOM     23  C   UNL     1       5.320   5.007  16.053  0.00  0.00    +0.000 A 
ATOM     24  C   UNL     1       4.135   4.869  16.777  0.00  0.00    +0.000 A 
ENDBRANCH   1  18
BRANCH   1  25
ATOM     25  C   UNL     1       2.578   4.070  19.825  0.00  0.00    +0.000 A 
ATOM     26  N   UNL     1       3.721   3.359  20.095  0.00  0.00    +0.000 NA
ATOM     27  C   UNL     1       3.661   2.359  21.006  0.00  0.00    +0.000 A 
ATOM     28  C   UNL     1       2.506   1.991  21.671  0.00  0.00    +0.000 A 
ATOM     29  C   UNL     1       1.339   2.679  21.365  0.00  0.00    +0.000 A 
ATOM     30  C   UNL     1       1.369   3.712  20.431  0.00  0.00    +0.000 A 
ATOM     31  F   UNL     1       0.215   4.320  20.134  0.00  0.00    +0.000 F 
ENDBRANCH   1  25
BRANCH   1  32
ATOM     32  O   UNL     1       1.701   4.990  17.761  0.00  0.00    +0.000 OA
ATOM     33  H   UNL     1       1.724   4.023  17.610  0.00  0.00    +0.000 HD
ENDBRANCH   1  32
TORSDOF 6
ENDMDL
MODEL 5
REMARK VINA RESULT:      -8.2      4.165      7.766
REMARK  Name = 
REMARK  7 active torsions:
REMARK  status: ('A' for Active; 'I' for Inactive)
REMARK    1  A    between atoms: C_1  and  N_2
REMARK    2  A    between atoms: C_3  and  C_4
REMARK    3  A    between atoms: C_4  and  O_5
REMARK    4  A    between atoms: C_4  and  C_6
REMARK    5  A    between atoms: C_4  and  C_13
REMARK    6  A    between atoms: C_24  and  S_25
REMARK    7  A    between atoms: S_25  and  N_26
REMARK                            x       y       z     vdW  Elec       q    Type
REMARK                         _______ _______ _______ _____ _____    ______ ____
ROOT
ATOM      1  C   UNL     1       0.618  10.771  19.579  0.00  0.00    +0.000 C 
ENDROOT
BRANCH   1   4
ATOM      2  C   UNL     1       0.769   7.954  21.144  0.00  0.00    +0.000 C 
ATOM      3  N   UNL     1       1.451   8.314  19.925  0.00  0.00    +0.000 N 
ATOM      4  C   UNL     1       1.409   9.501  19.220  0.00  0.00    +0.000 A 
ATOM      5  N   UNL     1       2.118   9.395  18.099  0.00  0.00    +0.000 NA
ATOM      6  C   UNL     1       2.670   8.144  18.111  0.00  0.00    +0.000 A 
ATOM      7  C   UNL     1       3.515   7.531  17.172  0.00  0.00    +0.000 A 
ATOM      8  C   UNL     1       3.978   6.233  17.426  0.00  0.00    +0.000 A 
ATOM      9  C   UNL     1       3.608   5.577  18.603  0.00  0.00    +0.000 A 
ATOM     10  C   UNL     1       2.737   6.155  19.535  0.00  0.00    +0.000 A 
ATOM     11  C   UNL     1       2.290   7.450  19.252  0.00  0.00    +0.000 A 
BRANCH   9  12
ATOM     12  S   UNL     1       4.277   3.976  18.957  0.00  0.00    +0.000 S 
ATOM     13  O   UNL     1       3.736   3.499  20.208  0.00  0.00    +0.000 OA
ATOM     14  O   UNL     1       4.279   3.180  17.755  0.00  0.00    +0.000 OA
BRANCH  12  15
ATOM     15  N   UNL     1       5.878   4.370  19.264  0.00  0.00    +0.000 NA
ATOM     16  H   UNL     1       6.467   3.540  19.211  0.00  0.00    +0.000 HD
ATOM     17  H   UNL     1       6.174   5.141  18.666  0.00  0.00    +0.000 HD
ENDBRANCH  12  15
ENDBRANCH   9  12
ENDBRANCH   1   4
BRANCH   1  18
ATOM     18  C   UNL     1       1.499  12.030  19.470  0.00  0.00    +0.000 A 
ATOM     19  C   UNL     1       2.034  12.497  18.254  0.00  0.00    +0.000 A 
ATOM     20  C   UNL     1       2.850  13.633  18.222  0.00  0.00    +0.000 A 
ATOM     21  C   UNL     1       3.134  14.316  19.397  0.00  0.00    +0.000 A 
ATOM     22  F   UNL     1       3.918  15.402  19.358  0.00  0.00    +0.000 F 
ATOM     23  C   UNL     1       2.621  13.888  20.610  0.00  0.00    +0.000 A 
ATOM     24  C   UNL     1       1.811  12.753  20.647  0.00  0.00    +0.000 A 
ENDBRANCH   1  18
BRANCH   1  25
ATOM     25  C   UNL     1      -0.748  10.836  18.863  0.00  0.00    +0.000 A 
ATOM     26  N   UNL     1      -0.969   9.998  17.799  0.00  0.00    +0.000 NA
ATOM     27  C   UNL     1      -2.181  10.025  17.195  0.00  0.00    +0.000 A 
ATOM     28  C   UNL     1      -3.211  10.866  17.573  0.00  0.00    +0.000 A 
ATOM     29  C   UNL     1      -2.974  11.747  18.619  0.00  0.00    +0.000 A 
ATOM     30  C   UNL     1      -1.736  11.744  19.259  0.00  0.00    +0.000 A 
ATOM     31  F   UNL     1      -1.535  12.637  20.234  0.00  0.00    +0.000 F 
ENDBRANCH   1  25
BRANCH   1  32
ATOM     32  O   UNL     1       0.375  10.633  21.002  0.00  0.00    +0.000 OA
ATOM     33  H   UNL     1       1.048  11.195  21.437  0.00  0.00    +0.000 HD
ENDBRANCH   1  32
TORSDOF 6
ENDMDL
MODEL 6
REMARK VINA RESULT:      -8.1      4.351      8.379
REMARK  Name = 
REMARK  7 active torsions:
REMARK  status: ('A' for Active; 'I' for Inactive)
REMARK    1  A    between atoms: C_1  and  N_2
REMARK    2  A    between atoms: C_3  and  C_4
REMARK    3  A    between atoms: C_4  and  O_5
REMARK    4  A    between atoms: C_4  and  C_6
REMARK    5  A    between atoms: C_4  and  C_13
REMARK    6  A    between atoms: C_24  and  S_25
REMARK    7  A    between atoms: S_25  and  N_26
REMARK                            x       y       z     vdW  Elec       q    Type
REMARK                         _______ _______ _______ _____ _____    ______ ____
ROOT
ATOM      1  C   UNL     1      -0.227  12.688  20.728  0.00  0.00    +0.000 C 
ENDROOT
BRANCH   1   4
ATOM      2  C   UNL     1       0.095   9.893  22.308  0.00  0.00    +0.000 C 
ATOM      3  N   UNL     1       0.519  10.189  20.961  0.00  0.00    +0.000 N 
ATOM      4  C   UNL     1       0.395  11.365  20.246  0.00  0.00    +0.000 A 
ATOM      5  N   UNL     1       0.838  11.196  19.004  0.00  0.00    +0.000 NA
ATOM      6  C   UNL     1       1.307   9.913  18.934  0.00  0.00    +0.000 A 
ATOM      7  C   UNL     1       1.893   9.232  17.855  0.00  0.00    +0.000 A 
ATOM      8  C   UNL     1       2.324   7.913  18.042  0.00  0.00    +0.000 A 
ATOM      9  C   UNL     1       2.179   7.301  19.290  0.00  0.00    +0.000 A 
ATOM     10  C   UNL     1       1.564   7.948  20.369  0.00  0.00    +0.000 A 
ATOM     11  C   UNL     1       1.142   9.263  20.150  0.00  0.00    +0.000 A 
BRANCH   9  12
ATOM     12  S   UNL     1       2.815   5.667  19.540  0.00  0.00    +0.000 S 
ATOM     13  O   UNL     1       2.061   4.734  18.737  0.00  0.00    +0.000 OA
ATOM     14  O   UNL     1       4.256   5.708  19.541  0.00  0.00    +0.000 OA
BRANCH  12  15
ATOM     15  N   UNL     1       2.351   5.394  21.129  0.00  0.00    +0.000 NA
ATOM     16  H   UNL     1       2.703   4.495  21.454  0.00  0.00    +0.000 HD
ATOM     17  H   UNL     1       2.607   6.189  21.714  0.00  0.00    +0.000 HD
ENDBRANCH  12  15
ENDBRANCH   9  12
ENDBRANCH   1   4
BRANCH   1  18
ATOM     18  C   UNL     1       0.364  13.893  19.971  0.00  0.00    +0.000 A 
ATOM     19  C   UNL     1      -0.425  14.874  19.343  0.00  0.00    +0.000 A 
ATOM     20  C   UNL     1       0.169  15.933  18.648  0.00  0.00    +0.000 A 
ATOM     21  C   UNL     1       1.553  16.026  18.579  0.00  0.00    +0.000 A 
ATOM     22  F   UNL     1       2.116  17.041  17.910  0.00  0.00    +0.000 F 
ATOM     23  C   UNL     1       2.361  15.081  19.189  0.00  0.00    +0.000 A 
ATOM     24  C   UNL     1       1.771  14.021  19.879  0.00  0.00    +0.000 A 
ENDBRANCH   1  18
BRANCH   1  25
ATOM     25  C   UNL     1      -1.767  12.623  20.802  0.00  0.00    +0.000 A 
ATOM     26  N   UNL     1      -2.370  12.785  22.024  0.00  0.00    +0.000 NA
ATOM     27  C   UNL     1      -3.723  12.768  22.085  0.00  0.00    +0.000 A 
ATOM     28  C   UNL     1      -4.541  12.575  20.988  0.00  0.00    +0.000 A 
ATOM     29  C   UNL     1      -3.932  12.366  19.758  0.00  0.00    +0.000 A 
ATOM     30  C   UNL     1      -2.541  12.376  19.664  0.00  0.00    +0.000 A 
ATOM     31  F   UNL     1      -1.995  12.128  18.469  0.00  0.00    +0.000 F 
ENDBRANCH   1  25
BRANCH   1  32
ATOM     32  O   UNL     1       0.284  12.835  22.078  0.00  0.00    +0.000 OA
ATOM     33  H   UNL     1       1.151  13.279  21.981  0.00  0.00    +0.000 HD
ENDBRANCH   1  32
TORSDOF 6
ENDMDL
MODEL 7
REMARK VINA RESULT:      -8.0      4.520      7.318
REMARK  Name = 
REMARK  7 active torsions:
REMARK  status: ('A' for Active; 'I' for Inactive)
REMARK    1  A    between atoms: C_1  and  N_2
REMARK    2  A    between atoms: C_3  and  C_4
REMARK    3  A    between atoms: C_4  and  O_5
REMARK    4  A    between atoms: C_4  and  C_6
REMARK    5  A    between atoms: C_4  and  C_13
REMARK    6  A    between atoms: C_24  and  S_25
REMARK    7  A    between atoms: S_25  and  N_26
REMARK                            x       y       z     vdW  Elec       q    Type
REMARK                         _______ _______ _______ _____ _____    ______ ____
ROOT
ATOM      1  C   UNL     1       0.554  11.293  20.187  0.00  0.00    +0.000 C 
ENDROOT
BRANCH   1   4
ATOM      2  C   UNL     1      -1.781  13.137  21.436  0.00  0.00    +0.000 C 
ATOM      3  N   UNL     1      -1.885  12.237  20.312  0.00  0.00    +0.000 N 
ATOM      4  C   UNL     1      -0.913  11.438  19.743  0.00  0.00    +0.000 A 
ATOM      5  N   UNL     1      -1.397  10.822  18.667  0.00  0.00    +0.000 NA
ATOM      6  C   UNL     1      -2.713  11.184  18.577  0.00  0.00    +0.000 A 
ATOM      7  C   UNL     1      -3.681  10.805  17.635  0.00  0.00    +0.000 A 
ATOM      8  C   UNL     1      -4.987  11.295  17.773  0.00  0.00    +0.000 A 
ATOM      9  C   UNL     1      -5.308  12.135  18.843  0.00  0.00    +0.000 A 
ATOM     10  C   UNL     1      -4.349  12.556  19.772  0.00  0.00    +0.000 A 
ATOM     11  C   UNL     1      -3.055  12.052  19.606  0.00  0.00    +0.000 A 
BRANCH   9  12
ATOM     12  S   UNL     1      -6.983  12.669  19.061  0.00  0.00    +0.000 S 
ATOM     13  O   UNL     1      -7.035  13.656  20.113  0.00  0.00    +0.000 OA
ATOM     14  O   UNL     1      -7.593  12.873  17.771  0.00  0.00    +0.000 OA
BRANCH  12  15
ATOM     15  N   UNL     1      -7.672  11.277  19.694  0.00  0.00    +0.000 NA
ATOM     16  H   UNL     1      -7.207  11.011  20.560  0.00  0.00    +0.000 HD
ATOM     17  H   UNL     1      -8.683  11.385  19.769  0.00  0.00    +0.000 HD
ENDBRANCH  12  15
ENDBRANCH   9  12
ENDBRANCH   1   4
BRANCH   1  18
ATOM     18  C   UNL     1       1.205  10.041  19.568  0.00  0.00    +0.000 A 
ATOM     19  C   UNL     1       1.681   9.992  18.244  0.00  0.00    +0.000 A 
ATOM     20  C   UNL     1       2.241   8.817  17.729  0.00  0.00    +0.000 A 
ATOM     21  C   UNL     1       2.336   7.686  18.530  0.00  0.00    +0.000 A 
ATOM     22  F   UNL     1       2.871   6.565  18.030  0.00  0.00    +0.000 F 
ATOM     23  C   UNL     1       1.882   7.701  19.838  0.00  0.00    +0.000 A 
ATOM     24  C   UNL     1       1.320   8.869  20.354  0.00  0.00    +0.000 A 
ENDBRANCH   1  18
BRANCH   1  25
ATOM     25  C   UNL     1       1.345  12.611  20.044  0.00  0.00    +0.000 A 
ATOM     26  N   UNL     1       2.153  13.004  21.081  0.00  0.00    +0.000 NA
ATOM     27  C   UNL     1       2.879  14.139  20.942  0.00  0.00    +0.000 A 
ATOM     28  C   UNL     1       2.841  14.944  19.819  0.00  0.00    +0.000 A 
ATOM     29  C   UNL     1       1.990  14.572  18.786  0.00  0.00    +0.000 A 
ATOM     30  C   UNL     1       1.229  13.410  18.902  0.00  0.00    +0.000 A 
ATOM     31  F   UNL     1       0.391  13.111  17.904  0.00  0.00    +0.000 F 
ENDBRANCH   1  25
BRANCH   1  32
ATOM     32  O   UNL     1       0.455  10.977  21.599  0.00  0.00    +0.000 OA
ATOM     33  H   UNL     1       0.104  11.787  22.023  0.00  0.00    +0.000 HD
ENDBRANCH   1  32
TORSDOF 6
ENDMDL
MODEL 8
REMARK VINA RESULT:      -8.0      1.704      2.360
REMARK  Name = 
REMARK  7 active torsions:
REMARK  status: ('A' for Active; 'I' for Inactive)
REMARK    1  A    between atoms: C_1  and  N_2
REMARK    2  A    between atoms: C_3  and  C_4
REMARK    3  A    between atoms: C_4  and  O_5
REMARK    4  A    between atoms: C_4  and  C_6
REMARK    5  A    between atoms: C_4  and  C_13
REMARK    6  A    between atoms: C_24  and  S_25
REMARK    7  A    between atoms: S_25  and  N_26
REMARK                            x       y       z     vdW  Elec       q    Type
REMARK                         _______ _______ _______ _____ _____    ______ ____
ROOT
ATOM      1  C   UNL     1       2.894   4.806  18.210  0.00  0.00    +0.000 C 
ENDROOT
BRANCH   1   4
ATOM      2  C   UNL     1       2.161   6.018  21.109  0.00  0.00    +0.000 C 
ATOM      3  N   UNL     1       2.108   6.700  19.837  0.00  0.00    +0.000 N 
ATOM      4  C   UNL     1       2.419   6.222  18.579  0.00  0.00    +0.000 A 
ATOM      5  N   UNL     1       2.319   7.198  17.680  0.00  0.00    +0.000 NA
ATOM      6  C   UNL     1       1.882   8.302  18.359  0.00  0.00    +0.000 A 
ATOM      7  C   UNL     1       1.601   9.592  17.881  0.00  0.00    +0.000 A 
ATOM      8  C   UNL     1       1.133  10.559  18.780  0.00  0.00    +0.000 A 
ATOM      9  C   UNL     1       0.942  10.227  20.124  0.00  0.00    +0.000 A 
ATOM     10  C   UNL     1       1.252   8.959  20.630  0.00  0.00    +0.000 A 
ATOM     11  C   UNL     1       1.719   8.017  19.708  0.00  0.00    +0.000 A 
BRANCH   9  12
ATOM     12  S   UNL     1       0.259  11.430  21.231  0.00  0.00    +0.000 S 
ATOM     13  O   UNL     1       1.219  12.489  21.435  0.00  0.00    +0.000 OA
ATOM     14  O   UNL     1      -1.115  11.682  20.878  0.00  0.00    +0.000 OA
BRANCH  12  15
ATOM     15  N   UNL     1       0.225  10.553  22.660  0.00  0.00    +0.000 NA
ATOM     16  H   UNL     1       0.060   9.566  22.469  0.00  0.00    +0.000 HD
ATOM     17  H   UNL     1       1.059  10.745  23.214  0.00  0.00    +0.000 HD
ENDBRANCH  12  15
ENDBRANCH   9  12
ENDBRANCH   1   4
BRANCH   1  18
ATOM     18  C   UNL     1       4.253   4.842  17.484  0.00  0.00    +0.000 A 
ATOM     19  C   UNL     1       5.288   5.732  17.827  0.00  0.00    +0.000 A 
ATOM     20  C   UNL     1       6.493   5.735  17.115  0.00  0.00    +0.000 A 
ATOM     21  C   UNL     1       6.677   4.849  16.061  0.00  0.00    +0.000 A 
ATOM     22  F   UNL     1       7.832   4.860  15.382  0.00  0.00    +0.000 F 
ATOM     23  C   UNL     1       5.681   3.958  15.699  0.00  0.00    +0.000 A 
ATOM     24  C   UNL     1       4.477   3.954  16.405  0.00  0.00    +0.000 A 
ENDBRANCH   1  18
BRANCH   1  25
ATOM     25  C   UNL     1       2.782   3.820  19.392  0.00  0.00    +0.000 A 
ATOM     26  N   UNL     1       3.938   3.323  19.941  0.00  0.00    +0.000 NA
ATOM     27  C   UNL     1       3.843   2.489  21.004  0.00  0.00    +0.000 A 
ATOM     28  C   UNL     1       2.644   2.087  21.562  0.00  0.00    +0.000 A 
ATOM     29  C   UNL     1       1.472   2.552  20.979  0.00  0.00    +0.000 A 
ATOM     30  C   UNL     1       1.538   3.410  19.883  0.00  0.00    +0.000 A 
ATOM     31  F   UNL     1       0.387   3.800  19.326  0.00  0.00    +0.000 F 
ENDBRANCH   1  25
BRANCH   1  32
ATOM     32  O   UNL     1       1.958   4.387  17.183  0.00  0.00    +0.000 OA
ATOM     33  H   UNL     1       1.361   3.746  17.621  0.00  0.00    +0.000 HD
ENDBRANCH   1  32
TORSDOF 6
ENDMDL
MODEL 9
REMARK VINA RESULT:      -8.0      4.212      7.657
REMARK  Name = 
REMARK  7 active torsions:
REMARK  status: ('A' for Active; 'I' for Inactive)
REMARK    1  A    between atoms: C_1  and  N_2
REMARK    2  A    between atoms: C_3  and  C_4
REMARK    3  A    between atoms: C_4  and  O_5
REMARK    4  A    between atoms: C_4  and  C_6
REMARK    5  A    between atoms: C_4  and  C_13
REMARK    6  A    between atoms: C_24  and  S_25
REMARK    7  A    between atoms: S_25  and  N_26
REMARK                            x       y       z     vdW  Elec       q    Type
REMARK                         _______ _______ _______ _____ _____    ______ ____
ROOT
ATOM      1  C   UNL     1      -0.132  10.834  19.739  0.00  0.00    +0.000 C 
ENDROOT
BRANCH   1   4
ATOM      2  C   UNL     1       2.144   9.973  17.620  0.00  0.00    +0.000 C 
ATOM      3  N   UNL     1       1.659   9.206  18.742  0.00  0.00    +0.000 N 
ATOM      4  C   UNL     1       0.695   9.538  19.674  0.00  0.00    +0.000 A 
ATOM      5  N   UNL     1       0.604   8.586  20.599  0.00  0.00    +0.000 NA
ATOM      6  C   UNL     1       1.478   7.603  20.226  0.00  0.00    +0.000 A 
ATOM      7  C   UNL     1       1.760   6.375  20.846  0.00  0.00    +0.000 A 
ATOM      8  C   UNL     1       2.688   5.513  20.247  0.00  0.00    +0.000 A 
ATOM      9  C   UNL     1       3.305   5.877  19.047  0.00  0.00    +0.000 A 
ATOM     10  C   UNL     1       3.067   7.111  18.431  0.00  0.00    +0.000 A 
ATOM     11  C   UNL     1       2.138   7.950  19.055  0.00  0.00    +0.000 A 
BRANCH   9  12
ATOM     12  S   UNL     1       4.404   4.737  18.251  0.00  0.00    +0.000 S 
ATOM     13  O   UNL     1       3.866   3.402  18.358  0.00  0.00    +0.000 OA
ATOM     14  O   UNL     1       4.854   5.298  17.002  0.00  0.00    +0.000 OA
BRANCH  12  15
ATOM     15  N   UNL     1       5.717   4.794  19.292  0.00  0.00    +0.000 NA
ATOM     16  H   UNL     1       5.870   3.884  19.724  0.00  0.00    +0.000 HD
ATOM     17  H   UNL     1       6.531   5.182  18.816  0.00  0.00    +0.000 HD
ENDBRANCH  12  15
ENDBRANCH   9  12
ENDBRANCH   1   4
BRANCH   1  18
ATOM     18  C   UNL     1       0.772  12.080  19.669  0.00  0.00    +0.000 A 
ATOM     19  C   UNL     1       0.781  12.968  18.577  0.00  0.00    +0.000 A 
ATOM     20  C   UNL     1       1.643  14.070  18.559  0.00  0.00    +0.000 A 
ATOM     21  C   UNL     1       2.497  14.299  19.630  0.00  0.00    +0.000 A 
ATOM     22  F   UNL     1       3.322  15.355  19.605  0.00  0.00    +0.000 F 
ATOM     23  C   UNL     1       2.512  13.448  20.722  0.00  0.00    +0.000 A 
ATOM     24  C   UNL     1       1.657  12.345  20.742  0.00  0.00    +0.000 A 
ENDBRANCH   1  18
BRANCH   1  25
ATOM     25  C   UNL     1      -1.335  10.814  18.773  0.00  0.00    +0.000 A 
ATOM     26  N   UNL     1      -1.295   9.965  17.695  0.00  0.00    +0.000 NA
ATOM     27  C   UNL     1      -2.367   9.917  16.869  0.00  0.00    +0.000 A 
ATOM     28  C   UNL     1      -3.500  10.691  17.031  0.00  0.00    +0.000 A 
ATOM     29  C   UNL     1      -3.524  11.585  18.095  0.00  0.00    +0.000 A 
ATOM     30  C   UNL     1      -2.435  11.658  18.961  0.00  0.00    +0.000 A 
ATOM     31  F   UNL     1      -2.481  12.561  19.946  0.00  0.00    +0.000 F 
ENDBRANCH   1  25
BRANCH   1  32
ATOM     32  O   UNL     1      -0.644  10.846  21.096  0.00  0.00    +0.000 OA
ATOM     33  H   UNL     1      -1.615  10.757  21.009  0.00  0.00    +0.000 HD
ENDBRANCH   1  32
TORSDOF 6
ENDMDL
