MODEL 1
REMARK VINA RESULT:      -7.1      0.000      0.000
REMARK  Name = 
REMARK  11 active torsions:
REMARK  status: ('A' for Active; 'I' for Inactive)
REMARK    1  A    between atoms: C_1  and  C_2
REMARK    2  A    between atoms: C_2  and  O_3
REMARK    3  A    between atoms: O_3  and  C_4
REMARK    4  A    between atoms: C_7  and  C_8
REMARK    5  A    between atoms: C_8  and  C_9
REMARK    6  A    between atoms: C_12  and  C_13
REMARK    7  A    between atoms: C_13  and  S_14
REMARK    8  A    between atoms: S_14  and  C_15
REMARK    9  A    between atoms: C_18  and  C_19
REMARK   10  A    between atoms: C_23  and  C_24
REMARK   11  A    between atoms: N_25  and  N_26
REMARK                            x       y       z     vdW  Elec       q    Type
REMARK                         _______ _______ _______ _____ _____    ______ ____
ROOT
ATOM      1  S   UNL     1       2.156   7.629  19.699  0.00  0.00    +0.000 S 
ENDROOT
BRANCH   1   2
ATOM      2  C   UNL     1       1.380   9.097  19.236  0.00  0.00    +0.000 A 
ATOM      3  N   UNL     1       1.567   9.766  18.122  0.00  0.00    +0.000 NA
ATOM      4  N   UNL     1       0.551  10.691  18.032  0.00  0.00    +0.000 NA
ATOM      5  C   UNL     1      -0.188  10.601  19.124  0.00  0.00    +0.000 A 
ATOM      6  N   UNL     1       0.325   9.619  19.938  0.00  0.00    +0.000 N 
BRANCH   5   7
ATOM      7  C   UNL     1      -1.436  11.363  19.359  0.00  0.00    +0.000 A 
ATOM      8  C   UNL     1      -1.725  12.294  20.389  0.00  0.00    +0.000 A 
ATOM      9  C   UNL     1      -3.024  12.686  20.187  0.00  0.00    +0.000 A 
ATOM     10  O   UNL     1      -3.560  12.040  19.120  0.00  0.00    +0.000 OA
ATOM     11  C   UNL     1      -2.587  11.223  18.618  0.00  0.00    +0.000 A 
ATOM     12  C   UNL     1      -2.986  10.326  17.510  0.00  0.00    +0.000 C 
ENDBRANCH   5   7
BRANCH   6  13
ATOM     13  N   UNL     1      -0.295   9.049  21.116  0.00  0.00    +0.000 N 
ATOM     14  H   UNL     1      -1.217   8.682  20.880  0.00  0.00    +0.000 HD
ATOM     15  H   UNL     1       0.238   8.230  21.418  0.00  0.00    +0.000 HD
ENDBRANCH   6  13
ENDBRANCH   1   2
BRANCH   1  16
ATOM     16  C   UNL     1       3.016   7.262  18.137  0.00  0.00    +0.000 C 
BRANCH  16  22
ATOM     17  C   UNL     1       4.166   5.192  17.119  0.00  0.00    +0.000 A 
ATOM     18  C   UNL     1       4.139   3.805  16.917  0.00  0.00    +0.000 A 
ATOM     19  C   UNL     1       3.190   2.986  17.548  0.00  0.00    +0.000 A 
ATOM     20  C   UNL     1       2.241   3.547  18.399  0.00  0.00    +0.000 A 
ATOM     21  C   UNL     1       2.255   4.938  18.585  0.00  0.00    +0.000 A 
ATOM     22  C   UNL     1       3.190   5.780  17.933  0.00  0.00    +0.000 A 
BRANCH  20  23
ATOM     23  C   UNL     1       1.188   2.759  19.112  0.00  0.00    +0.000 C 
ATOM     24  C   UNL     1       1.187   2.638  20.614  0.00  0.00    +0.000 C 
ATOM     25  O   UNL     1       0.302   2.210  18.453  0.00  0.00    +0.000 OA
ENDBRANCH  20  23
BRANCH  17  26
ATOM     26  O   UNL     1       5.134   5.825  16.386  0.00  0.00    +0.000 OA
BRANCH  26  28
ATOM     27  C   UNL     1       7.092   6.886  17.303  0.00  0.00    +0.000 C 
ATOM     28  C   UNL     1       6.494   5.602  16.758  0.00  0.00    +0.000 C 
ENDBRANCH  26  28
ENDBRANCH  17  26
ENDBRANCH  16  22
ENDBRANCH   1  16
TORSDOF 8
ENDMDL
MODEL 2
REMARK VINA RESULT:      -7.1      1.443      3.902
REMARK  Name = 
REMARK  11 active torsions:
REMARK  status: ('A' for Active; 'I' for Inactive)
REMARK    1  A    between atoms: C_1  and  C_2
REMARK    2  A    between atoms: C_2  and  O_3
REMARK    3  A    between atoms: O_3  and  C_4
REMARK    4  A    between atoms: C_7  and  C_8
REMARK    5  A    between atoms: C_8  and  C_9
REMARK    6  A    between atoms: C_12  and  C_13
REMARK    7  A    between atoms: C_13  and  S_14
REMARK    8  A    between atoms: S_14  and  C_15
REMARK    9  A    between atoms: C_18  and  C_19
REMARK   10  A    between atoms: C_23  and  C_24
REMARK   11  A    between atoms: N_25  and  N_26
REMARK                            x       y       z     vdW  Elec       q    Type
REMARK                         _______ _______ _______ _____ _____    ______ ____
ROOT
ATOM      1  S   UNL     1       2.546   6.817  19.785  0.00  0.00    +0.000 S 
ENDROOT
BRANCH   1   2
ATOM      2  C   UNL     1       2.050   8.313  19.085  0.00  0.00    +0.000 A 
ATOM      3  N   UNL     1       2.322   8.741  17.874  0.00  0.00    +0.000 NA
ATOM      4  N   UNL     1       1.500   9.818  17.632  0.00  0.00    +0.000 NA
ATOM      5  C   UNL     1       0.798  10.055  18.727  0.00  0.00    +0.000 A 
ATOM      6  N   UNL     1       1.141   9.139  19.692  0.00  0.00    +0.000 N 
BRANCH   5   7
ATOM      7  C   UNL     1      -0.271  11.074  18.834  0.00  0.00    +0.000 A 
ATOM      8  C   UNL     1      -1.676  10.895  18.777  0.00  0.00    +0.000 A 
ATOM      9  C   UNL     1      -2.220  12.150  18.885  0.00  0.00    +0.000 A 
ATOM     10  O   UNL     1      -1.244  13.090  18.978  0.00  0.00    +0.000 OA
ATOM     11  C   UNL     1      -0.049  12.429  18.939  0.00  0.00    +0.000 A 
ATOM     12  C   UNL     1       1.169  13.270  18.907  0.00  0.00    +0.000 C 
ENDBRANCH   5   7
BRANCH   6  13
ATOM     13  N   UNL     1       0.465   8.902  20.951  0.00  0.00    +0.000 N 
ATOM     14  H   UNL     1      -0.503   9.216  20.889  0.00  0.00    +0.000 HD
ATOM     15  H   UNL     1       0.399   7.895  21.117  0.00  0.00    +0.000 HD
ENDBRANCH   6  13
ENDBRANCH   1   2
BRANCH   1  16
ATOM     16  C   UNL     1       2.168   5.715  18.387  0.00  0.00    +0.000 C 
BRANCH  16  22
ATOM     17  C   UNL     1       3.532   3.956  17.085  0.00  0.00    +0.000 A 
ATOM     18  C   UNL     1       4.789   3.535  16.633  0.00  0.00    +0.000 A 
ATOM     19  C   UNL     1       5.931   4.338  16.774  0.00  0.00    +0.000 A 
ATOM     20  C   UNL     1       5.833   5.589  17.378  0.00  0.00    +0.000 A 
ATOM     21  C   UNL     1       4.578   6.003  17.848  0.00  0.00    +0.000 A 
ATOM     22  C   UNL     1       3.422   5.192  17.738  0.00  0.00    +0.000 A 
BRANCH  20  23
ATOM     23  C   UNL     1       6.992   6.515  17.578  0.00  0.00    +0.000 C 
ATOM     24  C   UNL     1       7.916   6.365  18.758  0.00  0.00    +0.000 C 
ATOM     25  O   UNL     1       7.194   7.408  16.752  0.00  0.00    +0.000 OA
ENDBRANCH  20  23
BRANCH  17  26
ATOM     26  O   UNL     1       2.550   3.021  16.899  0.00  0.00    +0.000 OA
BRANCH  26  28
ATOM     27  C   UNL     1       1.073   2.328  18.671  0.00  0.00    +0.000 C 
ATOM     28  C   UNL     1       2.365   2.046  17.925  0.00  0.00    +0.000 C 
ENDBRANCH  26  28
ENDBRANCH  17  26
ENDBRANCH  16  22
ENDBRANCH   1  16
TORSDOF 8
ENDMDL
MODEL 3
REMARK VINA RESULT:      -7.0      1.363      3.865
REMARK  Name = 
REMARK  11 active torsions:
REMARK  status: ('A' for Active; 'I' for Inactive)
REMARK    1  A    between atoms: C_1  and  C_2
REMARK    2  A    between atoms: C_2  and  O_3
REMARK    3  A    between atoms: O_3  and  C_4
REMARK    4  A    between atoms: C_7  and  C_8
REMARK    5  A    between atoms: C_8  and  C_9
REMARK    6  A    between atoms: C_12  and  C_13
REMARK    7  A    between atoms: C_13  and  S_14
REMARK    8  A    between atoms: S_14  and  C_15
REMARK    9  A    between atoms: C_18  and  C_19
REMARK   10  A    between atoms: C_23  and  C_24
REMARK   11  A    between atoms: N_25  and  N_26
REMARK                            x       y       z     vdW  Elec       q    Type
REMARK                         _______ _______ _______ _____ _____    ______ ____
ROOT
ATOM      1  S   UNL     1       2.293   8.334  18.396  0.00  0.00    +0.000 S 
ENDROOT
BRANCH   1   2
ATOM      2  C   UNL     1       1.201   9.053  19.520  0.00  0.00    +0.000 A 
ATOM      3  N   UNL     1       0.953   8.644  20.743  0.00  0.00    +0.000 NA
ATOM      4  N   UNL     1       0.264   9.655  21.375  0.00  0.00    +0.000 NA
ATOM      5  C   UNL     1       0.057  10.623  20.499  0.00  0.00    +0.000 A 
ATOM      6  N   UNL     1       0.609  10.267  19.291  0.00  0.00    +0.000 N 
BRANCH   5   7
ATOM      7  C   UNL     1      -0.567  11.927  20.820  0.00  0.00    +0.000 A 
ATOM      8  C   UNL     1      -0.221  12.847  21.842  0.00  0.00    +0.000 A 
ATOM      9  C   UNL     1      -1.125  13.874  21.745  0.00  0.00    +0.000 A 
ATOM     10  O   UNL     1      -2.019  13.635  20.751  0.00  0.00    +0.000 OA
ATOM     11  C   UNL     1      -1.679  12.437  20.190  0.00  0.00    +0.000 A 
ATOM     12  C   UNL     1      -2.595  11.913  19.151  0.00  0.00    +0.000 C 
ENDBRANCH   5   7
BRANCH   6  13
ATOM     13  N   UNL     1       0.800  11.116  18.133  0.00  0.00    +0.000 N 
ATOM     14  H   UNL     1       1.791  11.158  17.894  0.00  0.00    +0.000 HD
ATOM     15  H   UNL     1       0.357  10.686  17.319  0.00  0.00    +0.000 HD
ENDBRANCH   6  13
ENDBRANCH   1   2
BRANCH   1  16
ATOM     16  C   UNL     1       2.350   6.655  19.095  0.00  0.00    +0.000 C 
BRANCH  16  22
ATOM     17  C   UNL     1       2.648   4.537  17.655  0.00  0.00    +0.000 A 
ATOM     18  C   UNL     1       3.528   3.690  16.968  0.00  0.00    +0.000 A 
ATOM     19  C   UNL     1       4.881   4.018  16.792  0.00  0.00    +0.000 A 
ATOM     20  C   UNL     1       5.382   5.210  17.308  0.00  0.00    +0.000 A 
ATOM     21  C   UNL     1       4.506   6.049  18.014  0.00  0.00    +0.000 A 
ATOM     22  C   UNL     1       3.145   5.718  18.223  0.00  0.00    +0.000 A 
BRANCH  20  23
ATOM     23  C   UNL     1       6.808   5.645  17.176  0.00  0.00    +0.000 C 
ATOM     24  C   UNL     1       7.675   5.855  18.390  0.00  0.00    +0.000 C 
ATOM     25  O   UNL     1       7.277   5.823  16.050  0.00  0.00    +0.000 OA
ENDBRANCH  20  23
BRANCH  17  26
ATOM     26  O   UNL     1       1.381   4.027  17.762  0.00  0.00    +0.000 OA
BRANCH  26  28
ATOM     27  C   UNL     1       0.932   3.284  20.008  0.00  0.00    +0.000 C 
ATOM     28  C   UNL     1       1.203   2.868  18.574  0.00  0.00    +0.000 C 
ENDBRANCH  26  28
ENDBRANCH  17  26
ENDBRANCH  16  22
ENDBRANCH   1  16
TORSDOF 8
ENDMDL
MODEL 4
REMARK VINA RESULT:      -7.0      2.237      4.278
REMARK  Name = 
REMARK  11 active torsions:
REMARK  status: ('A' for Active; 'I' for Inactive)
REMARK    1  A    between atoms: C_1  and  C_2
REMARK    2  A    between atoms: C_2  and  O_3
REMARK    3  A    between atoms: O_3  and  C_4
REMARK    4  A    between atoms: C_7  and  C_8
REMARK    5  A    between atoms: C_8  and  C_9
REMARK    6  A    between atoms: C_12  and  C_13
REMARK    7  A    between atoms: C_13  and  S_14
REMARK    8  A    between atoms: S_14  and  C_15
REMARK    9  A    between atoms: C_18  and  C_19
REMARK   10  A    between atoms: C_23  and  C_24
REMARK   11  A    between atoms: N_25  and  N_26
REMARK                            x       y       z     vdW  Elec       q    Type
REMARK                         _______ _______ _______ _____ _____    ______ ____
ROOT
ATOM      1  S   UNL     1       1.757   8.255  19.356  0.00  0.00    +0.000 S 
ENDROOT
BRANCH   1   2
ATOM      2  C   UNL     1       1.075   8.979  20.765  0.00  0.00    +0.000 A 
ATOM      3  N   UNL     1       1.495   8.839  22.000  0.00  0.00    +0.000 NA
ATOM      4  N   UNL     1       0.865   9.804  22.753  0.00  0.00    +0.000 NA
ATOM      5  C   UNL     1       0.031  10.462  21.966  0.00  0.00    +0.000 A 
ATOM      6  N   UNL     1       0.107   9.946  20.694  0.00  0.00    +0.000 N 
BRANCH   5   7
ATOM      7  C   UNL     1      -0.761  11.642  22.381  0.00  0.00    +0.000 A 
ATOM      8  C   UNL     1      -2.000  11.680  23.069  0.00  0.00    +0.000 A 
ATOM      9  C   UNL     1      -2.330  13.008  23.176  0.00  0.00    +0.000 A 
ATOM     10  O   UNL     1      -1.391  13.785  22.579  0.00  0.00    +0.000 OA
ATOM     11  C   UNL     1      -0.433  12.945  22.085  0.00  0.00    +0.000 A 
ATOM     12  C   UNL     1       0.642  13.571  21.282  0.00  0.00    +0.000 C 
ENDBRANCH   5   7
BRANCH   6  13
ATOM     13  N   UNL     1      -0.468  10.506  19.488  0.00  0.00    +0.000 N 
ATOM     14  H   UNL     1      -0.995  11.350  19.715  0.00  0.00    +0.000 HD
ATOM     15  H   UNL     1       0.282  10.828  18.873  0.00  0.00    +0.000 HD
ENDBRANCH   6  13
ENDBRANCH   1   2
BRANCH   1  16
ATOM     16  C   UNL     1       2.188   6.631  20.056  0.00  0.00    +0.000 C 
BRANCH  16  22
ATOM     17  C   UNL     1       2.021   4.403  18.769  0.00  0.00    +0.000 A 
ATOM     18  C   UNL     1       2.589   3.543  17.820  0.00  0.00    +0.000 A 
ATOM     19  C   UNL     1       3.696   3.924  17.047  0.00  0.00    +0.000 A 
ATOM     20  C   UNL     1       4.262   5.186  17.214  0.00  0.00    +0.000 A 
ATOM     21  C   UNL     1       3.707   6.040  18.179  0.00  0.00    +0.000 A 
ATOM     22  C   UNL     1       2.606   5.658  18.985  0.00  0.00    +0.000 A 
BRANCH  20  23
ATOM     23  C   UNL     1       5.445   5.681  16.442  0.00  0.00    +0.000 C 
ATOM     24  C   UNL     1       5.587   5.403  14.969  0.00  0.00    +0.000 C 
ATOM     25  O   UNL     1       6.310   6.336  17.028  0.00  0.00    +0.000 OA
ENDBRANCH  20  23
BRANCH  17  26
ATOM     26  O   UNL     1       0.978   3.840  19.452  0.00  0.00    +0.000 OA
BRANCH  26  28
ATOM     27  C   UNL     1       1.904   3.200  21.582  0.00  0.00    +0.000 C 
ATOM     28  C   UNL     1       1.266   2.721  20.290  0.00  0.00    +0.000 C 
ENDBRANCH  26  28
ENDBRANCH  17  26
ENDBRANCH  16  22
ENDBRANCH   1  16
TORSDOF 8
ENDMDL
MODEL 5
REMARK VINA RESULT:      -7.0      1.883      4.203
REMARK  Name = 
REMARK  11 active torsions:
REMARK  status: ('A' for Active; 'I' for Inactive)
REMARK    1  A    between atoms: C_1  and  C_2
REMARK    2  A    between atoms: C_2  and  O_3
REMARK    3  A    between atoms: O_3  and  C_4
REMARK    4  A    between atoms: C_7  and  C_8
REMARK    5  A    between atoms: C_8  and  C_9
REMARK    6  A    between atoms: C_12  and  C_13
REMARK    7  A    between atoms: C_13  and  S_14
REMARK    8  A    between atoms: S_14  and  C_15
REMARK    9  A    between atoms: C_18  and  C_19
REMARK   10  A    between atoms: C_23  and  C_24
REMARK   11  A    between atoms: N_25  and  N_26
REMARK                            x       y       z     vdW  Elec       q    Type
REMARK                         _______ _______ _______ _____ _____    ______ ____
ROOT
ATOM      1  S   UNL     1       2.486   8.201  18.025  0.00  0.00    +0.000 S 
ENDROOT
BRANCH   1   2
ATOM      2  C   UNL     1       1.572   8.852  19.334  0.00  0.00    +0.000 A 
ATOM      3  N   UNL     1       1.554   8.416  20.572  0.00  0.00    +0.000 NA
ATOM      4  N   UNL     1       0.939   9.385  21.333  0.00  0.00    +0.000 NA
ATOM      5  C   UNL     1       0.544  10.354  20.526  0.00  0.00    +0.000 A 
ATOM      6  N   UNL     1       0.896  10.040  19.235  0.00  0.00    +0.000 N 
BRANCH   5   7
ATOM      7  C   UNL     1      -0.073  11.622  20.977  0.00  0.00    +0.000 A 
ATOM      8  C   UNL     1      -1.420  11.873  21.339  0.00  0.00    +0.000 A 
ATOM      9  C   UNL     1      -1.486  13.210  21.640  0.00  0.00    +0.000 A 
ATOM     10  O   UNL     1      -0.277  13.802  21.462  0.00  0.00    +0.000 OA
ATOM     11  C   UNL     1       0.587  12.828  21.047  0.00  0.00    +0.000 A 
ATOM     12  C   UNL     1       1.949  13.271  20.676  0.00  0.00    +0.000 C 
ENDBRANCH   5   7
BRANCH   6  13
ATOM     13  N   UNL     1       0.849  10.913  18.080  0.00  0.00    +0.000 N 
ATOM     14  H   UNL     1      -0.093  10.918  17.687  0.00  0.00    +0.000 HD
ATOM     15  H   UNL     1       1.010  11.878  18.376  0.00  0.00    +0.000 HD
ENDBRANCH   6  13
ENDBRANCH   1   2
BRANCH   1  16
ATOM     16  C   UNL     1       2.205   6.431  18.340  0.00  0.00    +0.000 C 
BRANCH  16  22
ATOM     17  C   UNL     1       3.154   4.269  17.305  0.00  0.00    +0.000 A 
ATOM     18  C   UNL     1       4.290   3.547  16.912  0.00  0.00    +0.000 A 
ATOM     19  C   UNL     1       5.569   4.123  16.921  0.00  0.00    +0.000 A 
ATOM     20  C   UNL     1       5.737   5.443  17.331  0.00  0.00    +0.000 A 
ATOM     21  C   UNL     1       4.604   6.159  17.744  0.00  0.00    +0.000 A 
ATOM     22  C   UNL     1       3.310   5.583  17.766  0.00  0.00    +0.000 A 
BRANCH  20  23
ATOM     23  C   UNL     1       7.059   6.142  17.380  0.00  0.00    +0.000 C 
ATOM     24  C   UNL     1       7.790   6.340  18.683  0.00  0.00    +0.000 C 
ATOM     25  O   UNL     1       7.559   6.552  16.330  0.00  0.00    +0.000 OA
ENDBRANCH  20  23
BRANCH  17  26
ATOM     26  O   UNL     1       2.004   3.527  17.270  0.00  0.00    +0.000 OA
BRANCH  26  28
ATOM     27  C   UNL     1       1.094   2.974  19.430  0.00  0.00    +0.000 C 
ATOM     28  C   UNL     1       1.869   2.475  18.225  0.00  0.00    +0.000 C 
ENDBRANCH  26  28
ENDBRANCH  17  26
ENDBRANCH  16  22
ENDBRANCH   1  16
TORSDOF 8
ENDMDL
MODEL 6
REMARK VINA RESULT:      -7.0      2.247      4.459
REMARK  Name = 
REMARK  11 active torsions:
REMARK  status: ('A' for Active; 'I' for Inactive)
REMARK    1  A    between atoms: C_1  and  C_2
REMARK    2  A    between atoms: C_2  and  O_3
REMARK    3  A    between atoms: O_3  and  C_4
REMARK    4  A    between atoms: C_7  and  C_8
REMARK    5  A    between atoms: C_8  and  C_9
REMARK    6  A    between atoms: C_12  and  C_13
REMARK    7  A    between atoms: C_13  and  S_14
REMARK    8  A    between atoms: S_14  and  C_15
REMARK    9  A    between atoms: C_18  and  C_19
REMARK   10  A    between atoms: C_23  and  C_24
REMARK   11  A    between atoms: N_25  and  N_26
REMARK                            x       y       z     vdW  Elec       q    Type
REMARK                         _______ _______ _______ _____ _____    ______ ____
ROOT
ATOM      1  S   UNL     1       1.940   8.674  17.751  0.00  0.00    +0.000 S 
ENDROOT
BRANCH   1   2
ATOM      2  C   UNL     1       1.300   9.765  18.922  0.00  0.00    +0.000 A 
ATOM      3  N   UNL     1       0.737   9.448  20.065  0.00  0.00    +0.000 NA
ATOM      4  N   UNL     1       0.645  10.605  20.805  0.00  0.00    +0.000 NA
ATOM      5  C   UNL     1       1.096  11.604  20.066  0.00  0.00    +0.000 A 
ATOM      6  N   UNL     1       1.493  11.119  18.843  0.00  0.00    +0.000 N 
BRANCH   5   7
ATOM      7  C   UNL     1       1.252  12.998  20.543  0.00  0.00    +0.000 A 
ATOM      8  C   UNL     1       2.432  13.667  20.954  0.00  0.00    +0.000 A 
ATOM      9  C   UNL     1       2.036  14.923  21.341  0.00  0.00    +0.000 A 
ATOM     10  O   UNL     1       0.691  15.061  21.220  0.00  0.00    +0.000 OA
ATOM     11  C   UNL     1       0.210  13.876  20.738  0.00  0.00    +0.000 A 
ATOM     12  C   UNL     1      -1.262  13.755  20.637  0.00  0.00    +0.000 C 
ENDBRANCH   5   7
BRANCH   6  13
ATOM     13  N   UNL     1       2.241  11.827  17.824  0.00  0.00    +0.000 N 
ATOM     14  H   UNL     1       1.801  11.689  16.913  0.00  0.00    +0.000 HD
ATOM     15  H   UNL     1       2.177  12.833  17.992  0.00  0.00    +0.000 HD
ENDBRANCH   6  13
ENDBRANCH   1   2
BRANCH   1  16
ATOM     16  C   UNL     1       2.503   7.357  18.873  0.00  0.00    +0.000 C 
BRANCH  16  22
ATOM     17  C   UNL     1       2.734   5.017  17.815  0.00  0.00    +0.000 A 
ATOM     18  C   UNL     1       3.579   4.061  17.235  0.00  0.00    +0.000 A 
ATOM     19  C   UNL     1       4.915   4.352  16.920  0.00  0.00    +0.000 A 
ATOM     20  C   UNL     1       5.435   5.616  17.186  0.00  0.00    +0.000 A 
ATOM     21  C   UNL     1       4.595   6.567  17.785  0.00  0.00    +0.000 A 
ATOM     22  C   UNL     1       3.252   6.279  18.133  0.00  0.00    +0.000 A 
BRANCH  20  23
ATOM     23  C   UNL     1       6.845   6.020  16.892  0.00  0.00    +0.000 C 
ATOM     24  C   UNL     1       7.445   7.261  17.499  0.00  0.00    +0.000 C 
ATOM     25  O   UNL     1       7.527   5.313  16.145  0.00  0.00    +0.000 OA
ENDBRANCH  20  23
BRANCH  17  26
ATOM     26  O   UNL     1       1.482   4.535  18.088  0.00  0.00    +0.000 OA
BRANCH  26  28
ATOM     27  C   UNL     1       1.021   3.958  20.380  0.00  0.00    +0.000 C 
ATOM     28  C   UNL     1       1.380   3.442  18.998  0.00  0.00    +0.000 C 
ENDBRANCH  26  28
ENDBRANCH  17  26
ENDBRANCH  16  22
ENDBRANCH   1  16
TORSDOF 8
ENDMDL
MODEL 7
REMARK VINA RESULT:      -7.0      1.167      3.501
REMARK  Name = 
REMARK  11 active torsions:
REMARK  status: ('A' for Active; 'I' for Inactive)
REMARK    1  A    between atoms: C_1  and  C_2
REMARK    2  A    between atoms: C_2  and  O_3
REMARK    3  A    between atoms: O_3  and  C_4
REMARK    4  A    between atoms: C_7  and  C_8
REMARK    5  A    between atoms: C_8  and  C_9
REMARK    6  A    between atoms: C_12  and  C_13
REMARK    7  A    between atoms: C_13  and  S_14
REMARK    8  A    between atoms: S_14  and  C_15
REMARK    9  A    between atoms: C_18  and  C_19
REMARK   10  A    between atoms: C_23  and  C_24
REMARK   11  A    between atoms: N_25  and  N_26
REMARK                            x       y       z     vdW  Elec       q    Type
REMARK                         _______ _______ _______ _____ _____    ______ ____
ROOT
ATOM      1  S   UNL     1       2.098   7.520  19.680  0.00  0.00    +0.000 S 
ENDROOT
BRANCH   1   2
ATOM      2  C   UNL     1       1.465   9.111  19.472  0.00  0.00    +0.000 A 
ATOM      3  N   UNL     1       1.733   9.939  18.489  0.00  0.00    +0.000 NA
ATOM      4  N   UNL     1       0.805  10.955  18.554  0.00  0.00    +0.000 NA
ATOM      5  C   UNL     1       0.040  10.748  19.612  0.00  0.00    +0.000 A 
ATOM      6  N   UNL     1       0.448   9.600  20.248  0.00  0.00    +0.000 N 
BRANCH   5   7
ATOM      7  C   UNL     1      -1.138  11.571  19.969  0.00  0.00    +0.000 A 
ATOM      8  C   UNL     1      -1.379  12.306  21.157  0.00  0.00    +0.000 A 
ATOM      9  C   UNL     1      -2.627  12.858  21.012  0.00  0.00    +0.000 A 
ATOM     10  O   UNL     1      -3.179  12.490  19.827  0.00  0.00    +0.000 OA
ATOM     11  C   UNL     1      -2.267  11.694  19.192  0.00  0.00    +0.000 A 
ATOM     12  C   UNL     1      -2.706  11.075  17.921  0.00  0.00    +0.000 C 
ENDBRANCH   5   7
BRANCH   6  13
ATOM     13  N   UNL     1      -0.243   8.897  21.309  0.00  0.00    +0.000 N 
ATOM     14  H   UNL     1      -0.347   7.912  21.062  0.00  0.00    +0.000 HD
ATOM     15  H   UNL     1       0.340   8.892  22.149  0.00  0.00    +0.000 HD
ENDBRANCH   6  13
ENDBRANCH   1   2
BRANCH   1  16
ATOM     16  C   UNL     1       2.668   7.221  17.977  0.00  0.00    +0.000 C 
BRANCH  16  22
ATOM     17  C   UNL     1       2.890   4.654  17.872  0.00  0.00    +0.000 A 
ATOM     18  C   UNL     1       3.740   3.541  17.895  0.00  0.00    +0.000 A 
ATOM     19  C   UNL     1       5.136   3.677  17.867  0.00  0.00    +0.000 A 
ATOM     20  C   UNL     1       5.711   4.944  17.819  0.00  0.00    +0.000 A 
ATOM     21  C   UNL     1       4.862   6.060  17.817  0.00  0.00    +0.000 A 
ATOM     22  C   UNL     1       3.451   5.938  17.871  0.00  0.00    +0.000 A 
BRANCH  20  23
ATOM     23  C   UNL     1       7.187   5.192  17.792  0.00  0.00    +0.000 C 
ATOM     24  C   UNL     1       7.803   6.322  18.575  0.00  0.00    +0.000 C 
ATOM     25  O   UNL     1       7.907   4.448  17.122  0.00  0.00    +0.000 OA
ENDBRANCH  20  23
BRANCH  17  26
ATOM     26  O   UNL     1       1.564   4.323  17.948  0.00  0.00    +0.000 OA
BRANCH  26  28
ATOM     27  C   UNL     1       0.871   3.728  20.177  0.00  0.00    +0.000 C 
ATOM     28  C   UNL     1       1.206   3.224  18.785  0.00  0.00    +0.000 C 
ENDBRANCH  26  28
ENDBRANCH  17  26
ENDBRANCH  16  22
ENDBRANCH   1  16
TORSDOF 8
ENDMDL
MODEL 8
REMARK VINA RESULT:      -6.9      2.250      4.187
REMARK  Name = 
REMARK  11 active torsions:
REMARK  status: ('A' for Active; 'I' for Inactive)
REMARK    1  A    between atoms: C_1  and  C_2
REMARK    2  A    between atoms: C_2  and  O_3
REMARK    3  A    between atoms: O_3  and  C_4
REMARK    4  A    between atoms: C_7  and  C_8
REMARK    5  A    between atoms: C_8  and  C_9
REMARK    6  A    between atoms: C_12  and  C_13
REMARK    7  A    between atoms: C_13  and  S_14
REMARK    8  A    between atoms: S_14  and  C_15
REMARK    9  A    between atoms: C_18  and  C_19
REMARK   10  A    between atoms: C_23  and  C_24
REMARK   11  A    between atoms: N_25  and  N_26
REMARK                            x       y       z     vdW  Elec       q    Type
REMARK                         _______ _______ _______ _____ _____    ______ ____
ROOT
ATOM      1  S   UNL     1       2.501   8.024  17.920  0.00  0.00    +0.000 S 
ENDROOT
BRANCH   1   2
ATOM      2  C   UNL     1       1.692   8.663  19.302  0.00  0.00    +0.000 A 
ATOM      3  N   UNL     1       1.667   8.142  20.506  0.00  0.00    +0.000 NA
ATOM      4  N   UNL     1       1.170   9.107  21.354  0.00  0.00    +0.000 NA
ATOM      5  C   UNL     1       0.848  10.165  20.629  0.00  0.00    +0.000 A 
ATOM      6  N   UNL     1       1.132   9.913  19.309  0.00  0.00    +0.000 N 
BRANCH   5   7
ATOM      7  C   UNL     1       0.370  11.450  21.188  0.00  0.00    +0.000 A 
ATOM      8  C   UNL     1       0.753  12.768  20.833  0.00  0.00    +0.000 A 
ATOM      9  C   UNL     1       0.055  13.601  21.670  0.00  0.00    +0.000 A 
ATOM     10  O   UNL     1      -0.711  12.884  22.532  0.00  0.00    +0.000 OA
ATOM     11  C   UNL     1      -0.510  11.564  22.240  0.00  0.00    +0.000 A 
ATOM     12  C   UNL     1      -1.160  10.585  23.140  0.00  0.00    +0.000 C 
ENDBRANCH   5   7
BRANCH   6  13
ATOM     13  N   UNL     1       1.137  10.867  18.219  0.00  0.00    +0.000 N 
ATOM     14  H   UNL     1       2.010  10.790  17.695  0.00  0.00    +0.000 HD
ATOM     15  H   UNL     1       0.410  10.618  17.545  0.00  0.00    +0.000 HD
ENDBRANCH   6  13
ENDBRANCH   1   2
BRANCH   1  16
ATOM     16  C   UNL     1       1.872   6.318  17.990  0.00  0.00    +0.000 C 
BRANCH  16  22
ATOM     17  C   UNL     1       2.842   3.930  17.899  0.00  0.00    +0.000 A 
ATOM     18  C   UNL     1       3.949   3.097  18.110  0.00  0.00    +0.000 A 
ATOM     19  C   UNL     1       5.213   3.615  18.428  0.00  0.00    +0.000 A 
ATOM     20  C   UNL     1       5.394   4.991  18.543  0.00  0.00    +0.000 A 
ATOM     21  C   UNL     1       4.283   5.825  18.352  0.00  0.00    +0.000 A 
ATOM     22  C   UNL     1       2.994   5.314  18.057  0.00  0.00    +0.000 A 
BRANCH  20  23
ATOM     23  C   UNL     1       6.700   5.637  18.882  0.00  0.00    +0.000 C 
ATOM     24  C   UNL     1       7.373   6.586  17.924  0.00  0.00    +0.000 C 
ATOM     25  O   UNL     1       7.225   5.391  19.971  0.00  0.00    +0.000 OA
ENDBRANCH  20  23
BRANCH  17  26
ATOM     26  O   UNL     1       1.688   3.241  17.643  0.00  0.00    +0.000 OA
BRANCH  26  28
ATOM     27  C   UNL     1       0.848   3.164  19.899  0.00  0.00    +0.000 C 
ATOM     28  C   UNL     1       1.205   2.364  18.659  0.00  0.00    +0.000 C 
ENDBRANCH  26  28
ENDBRANCH  17  26
ENDBRANCH  16  22
ENDBRANCH   1  16
TORSDOF 8
ENDMDL
MODEL 9
REMARK VINA RESULT:      -6.9      2.314      4.305
REMARK  Name = 
REMARK  11 active torsions:
REMARK  status: ('A' for Active; 'I' for Inactive)
REMARK    1  A    between atoms: C_1  and  C_2
REMARK    2  A    between atoms: C_2  and  O_3
REMARK    3  A    between atoms: O_3  and  C_4
REMARK    4  A    between atoms: C_7  and  C_8
REMARK    5  A    between atoms: C_8  and  C_9
REMARK    6  A    between atoms: C_12  and  C_13
REMARK    7  A    between atoms: C_13  and  S_14
REMARK    8  A    between atoms: S_14  and  C_15
REMARK    9  A    between atoms: C_18  and  C_19
REMARK   10  A    between atoms: C_23  and  C_24
REMARK   11  A    between atoms: N_25  and  N_26
REMARK                            x       y       z     vdW  Elec       q    Type
REMARK                         _______ _______ _______ _____ _____    ______ ____
ROOT
ATOM      1  S   UNL     1       2.041   8.243  17.558  0.00  0.00    +0.000 S 
ENDROOT
BRANCH   1   2
ATOM      2  C   UNL     1       1.473   8.679  19.126  0.00  0.00    +0.000 A 
ATOM      3  N   UNL     1       1.797   8.111  20.264  0.00  0.00    +0.000 NA
ATOM      4  N   UNL     1       1.361   8.944  21.270  0.00  0.00    +0.000 NA
ATOM      5  C   UNL     1       0.727   9.963  20.716  0.00  0.00    +0.000 A 
ATOM      6  N   UNL     1       0.744   9.817  19.350  0.00  0.00    +0.000 N 
BRANCH   5   7
ATOM      7  C   UNL     1       0.195  11.126  21.462  0.00  0.00    +0.000 A 
ATOM      8  C   UNL     1      -0.956  11.200  22.285  0.00  0.00    +0.000 A 
ATOM      9  C   UNL     1      -1.034  12.503  22.708  0.00  0.00    +0.000 A 
ATOM     10  O   UNL     1      -0.023  13.240  22.179  0.00  0.00    +0.000 OA
ATOM     11  C   UNL     1       0.726  12.395  21.409  0.00  0.00    +0.000 A 
ATOM     12  C   UNL     1       1.826  13.012  20.634  0.00  0.00    +0.000 C 
ENDBRANCH   5   7
BRANCH   6  13
ATOM     13  N   UNL     1       0.360  10.804  18.361  0.00  0.00    +0.000 N 
ATOM     14  H   UNL     1      -0.561  11.182  18.588  0.00  0.00    +0.000 HD
ATOM     15  H   UNL     1       0.989  11.608  18.421  0.00  0.00    +0.000 HD
ENDBRANCH   6  13
ENDBRANCH   1   2
BRANCH   1  16
ATOM     16  C   UNL     1       3.708   7.670  18.013  0.00  0.00    +0.000 C 
BRANCH  16  22
ATOM     17  C   UNL     1       3.359   5.116  18.076  0.00  0.00    +0.000 A 
ATOM     18  C   UNL     1       3.776   3.856  17.627  0.00  0.00    +0.000 A 
ATOM     19  C   UNL     1       4.744   3.714  16.622  0.00  0.00    +0.000 A 
ATOM     20  C   UNL     1       5.319   4.843  16.043  0.00  0.00    +0.000 A 
ATOM     21  C   UNL     1       4.916   6.105  16.506  0.00  0.00    +0.000 A 
ATOM     22  C   UNL     1       3.960   6.262  17.539  0.00  0.00    +0.000 A 
BRANCH  20  23
ATOM     23  C   UNL     1       6.360   4.795  14.969  0.00  0.00    +0.000 C 
ATOM     24  C   UNL     1       6.177   3.939  13.743  0.00  0.00    +0.000 C 
ATOM     25  O   UNL     1       7.380   5.477  15.093  0.00  0.00    +0.000 OA
ENDBRANCH  20  23
BRANCH  17  26
ATOM     26  O   UNL     1       2.441   5.051  19.090  0.00  0.00    +0.000 OA
BRANCH  26  28
ATOM     27  C   UNL     1       0.913   3.411  19.970  0.00  0.00    +0.000 C 
ATOM     28  C   UNL     1       2.364   3.835  19.832  0.00  0.00    +0.000 C 
ENDBRANCH  26  28
ENDBRANCH  17  26
ENDBRANCH  16  22
ENDBRANCH   1  16
TORSDOF 8
ENDMDL
