MODEL 1
REMARK VINA RESULT:      -9.7      0.000      0.000
REMARK  Name = 
REMARK  6 active torsions:
REMARK  status: ('A' for Active; 'I' for Inactive)
REMARK    1  A    between atoms: C_1  and  C_2
REMARK    2  A    between atoms: N_4  and  C_5
REMARK    3  A    between atoms: C_10  and  C_11
REMARK    4  A    between atoms: C_13  and  N_14
REMARK    5  A    between atoms: C_15  and  C_17
REMARK    6  A    between atoms: C_29  and  C_30
REMARK                            x       y       z     vdW  Elec       q    Type
REMARK                         _______ _______ _______ _____ _____    ______ ____
ROOT
ATOM      1  C   UNL     1      -0.286  11.591  18.899  0.00  0.00    +0.000 A 
ATOM      2  C   UNL     1       0.002  10.279  18.424  0.00  0.00    +0.000 A 
ATOM      3  C   UNL     1       1.283   9.854  18.031  0.00  0.00    +0.000 A 
ATOM      4  C   UNL     1       2.293  10.803  17.959  0.00  0.00    +0.000 A 
ATOM      5  C   UNL     1       2.043  12.120  18.343  0.00  0.00    +0.000 A 
ATOM      6  C   UNL     1       0.788  12.519  18.855  0.00  0.00    +0.000 A 
ATOM      7  C   UNL     1       0.691  13.954  19.316  0.00  0.00    +0.000 C 
ENDROOT
BRANCH   1  13
ATOM      8  C   UNL     1      -3.742  12.647  22.456  0.00  0.00    +0.000 A 
ATOM      9  C   UNL     1      -2.786  12.558  23.466  0.00  0.00    +0.000 A 
ATOM     10  C   UNL     1      -1.451  12.424  23.141  0.00  0.00    +0.000 A 
ATOM     11  C   UNL     1      -1.075  12.329  21.806  0.00  0.00    +0.000 A 
ATOM     12  C   UNL     1      -2.015  12.229  20.757  0.00  0.00    +0.000 A 
ATOM     13  C   UNL     1      -1.683  11.917  19.389  0.00  0.00    +0.000 A 
ATOM     14  C   UNL     1      -2.760  11.849  18.490  0.00  0.00    +0.000 A 
ATOM     15  C   UNL     1      -4.043  12.140  18.913  0.00  0.00    +0.000 A 
ATOM     16  N   UNL     1      -4.369  12.430  20.181  0.00  0.00    +0.000 NA
ATOM     17  C   UNL     1      -3.391  12.439  21.106  0.00  0.00    +0.000 A 
BRANCH   8  21
ATOM     18  C   UNL     1      -7.209  13.048  23.939  0.00  0.00    +0.000 C 
ATOM     19  C   UNL     1      -5.776  12.594  23.915  0.00  0.00    +0.000 C 
ATOM     20  O   UNL     1      -5.317  11.980  24.875  0.00  0.00    +0.000 OA
ATOM     21  N   UNL     1      -5.106  12.937  22.753  0.00  0.00    +0.000 N 
ATOM     22  H   UNL     1      -5.533  13.593  22.103  0.00  0.00    +0.000 HD
ENDBRANCH   8  21
ENDBRANCH   1  13
BRANCH   3  23
ATOM     23  N   UNL     1       1.642   8.504  17.774  0.00  0.00    +0.000 N 
ATOM     24  C   UNL     1       2.156   7.613  18.699  0.00  0.00    +0.000 C 
ATOM     25  O   UNL     1       2.142   7.739  19.922  0.00  0.00    +0.000 OA
ATOM     26  H   UNL     1       1.731   8.251  16.798  0.00  0.00    +0.000 HD
BRANCH  24  27
ATOM     27  C   UNL     1       2.939   6.478  18.136  0.00  0.00    +0.000 A 
ATOM     28  C   UNL     1       2.577   5.131  18.199  0.00  0.00    +0.000 A 
ATOM     29  C   UNL     1       3.408   4.163  17.599  0.00  0.00    +0.000 A 
ATOM     30  C   UNL     1       4.553   4.556  16.888  0.00  0.00    +0.000 A 
ATOM     31  C   UNL     1       4.841   5.908  16.761  0.00  0.00    +0.000 A 
ATOM     32  C   UNL     1       4.088   6.853  17.437  0.00  0.00    +0.000 A 
ATOM     33  O   UNL     1       5.781   6.395  15.909  0.00  0.00    +0.000 OA
ATOM     34  C   UNL     1       6.873   5.505  15.769  0.00  0.00    +0.000 C 
ATOM     35  C   UNL     1       6.507   4.028  15.666  0.00  0.00    +0.000 C 
ATOM     36  O   UNL     1       5.317   3.579  16.329  0.00  0.00    +0.000 OA
ENDBRANCH  24  27
ENDBRANCH   3  23
TORSDOF 4
ENDMDL
MODEL 2
REMARK VINA RESULT:      -9.4      0.945      1.946
REMARK  Name = 
REMARK  6 active torsions:
REMARK  status: ('A' for Active; 'I' for Inactive)
REMARK    1  A    between atoms: C_1  and  C_2
REMARK    2  A    between atoms: N_4  and  C_5
REMARK    3  A    between atoms: C_10  and  C_11
REMARK    4  A    between atoms: C_13  and  N_14
REMARK    5  A    between atoms: C_15  and  C_17
REMARK    6  A    between atoms: C_29  and  C_30
REMARK                            x       y       z     vdW  Elec       q    Type
REMARK                         _______ _______ _______ _____ _____    ______ ____
ROOT
ATOM      1  C   UNL     1       0.264  11.711  19.801  0.00  0.00    +0.000 A 
ATOM      2  C   UNL     1       0.394  10.395  19.270  0.00  0.00    +0.000 A 
ATOM      3  C   UNL     1       1.420  10.003  18.393  0.00  0.00    +0.000 A 
ATOM      4  C   UNL     1       2.266  10.985  17.897  0.00  0.00    +0.000 A 
ATOM      5  C   UNL     1       2.134  12.304  18.329  0.00  0.00    +0.000 A 
ATOM      6  C   UNL     1       1.182  12.675  19.305  0.00  0.00    +0.000 A 
ATOM      7  C   UNL     1       1.216  14.120  19.743  0.00  0.00    +0.000 C 
ENDROOT
BRANCH   1  13
ATOM      8  C   UNL     1      -4.482  12.797  21.216  0.00  0.00    +0.000 A 
ATOM      9  C   UNL     1      -4.914  12.814  19.892  0.00  0.00    +0.000 A 
ATOM     10  C   UNL     1      -4.062  12.410  18.884  0.00  0.00    +0.000 A 
ATOM     11  C   UNL     1      -2.760  12.035  19.194  0.00  0.00    +0.000 A 
ATOM     12  C   UNL     1      -2.218  12.174  20.491  0.00  0.00    +0.000 A 
ATOM     13  C   UNL     1      -0.823  12.003  20.816  0.00  0.00    +0.000 A 
ATOM     14  C   UNL     1      -0.472  12.197  22.162  0.00  0.00    +0.000 A 
ATOM     15  C   UNL     1      -1.446  12.465  23.106  0.00  0.00    +0.000 A 
ATOM     16  N   UNL     1      -2.745  12.630  22.819  0.00  0.00    +0.000 NA
ATOM     17  C   UNL     1      -3.135  12.529  21.535  0.00  0.00    +0.000 A 
BRANCH   8  21
ATOM     18  C   UNL     1      -7.288  12.891  23.765  0.00  0.00    +0.000 C 
ATOM     19  C   UNL     1      -6.559  12.384  22.552  0.00  0.00    +0.000 C 
ATOM     20  O   UNL     1      -7.031  11.452  21.905  0.00  0.00    +0.000 OA
ATOM     21  N   UNL     1      -5.381  13.062  22.290  0.00  0.00    +0.000 N 
ATOM     22  H   UNL     1      -5.004  13.699  22.988  0.00  0.00    +0.000 HD
ENDBRANCH   8  21
ENDBRANCH   1  13
BRANCH   3  23
ATOM     23  N   UNL     1       1.704   8.659  18.032  0.00  0.00    +0.000 N 
ATOM     24  C   UNL     1       2.148   7.668  18.890  0.00  0.00    +0.000 C 
ATOM     25  O   UNL     1       2.117   7.696  20.119  0.00  0.00    +0.000 OA
ATOM     26  H   UNL     1       1.798   8.481  17.041  0.00  0.00    +0.000 HD
BRANCH  24  27
ATOM     27  C   UNL     1       2.874   6.537  18.249  0.00  0.00    +0.000 A 
ATOM     28  C   UNL     1       2.426   5.216  18.184  0.00  0.00    +0.000 A 
ATOM     29  C   UNL     1       3.212   4.252  17.521  0.00  0.00    +0.000 A 
ATOM     30  C   UNL     1       4.400   4.628  16.876  0.00  0.00    +0.000 A 
ATOM     31  C   UNL     1       4.777   5.964  16.876  0.00  0.00    +0.000 A 
ATOM     32  C   UNL     1       4.065   6.895  17.614  0.00  0.00    +0.000 A 
ATOM     33  O   UNL     1       5.771   6.460  16.093  0.00  0.00    +0.000 OA
ATOM     34  C   UNL     1       6.808   5.516  15.902  0.00  0.00    +0.000 C 
ATOM     35  C   UNL     1       6.352   4.080  15.661  0.00  0.00    +0.000 C 
ATOM     36  O   UNL     1       5.117   3.655  16.253  0.00  0.00    +0.000 OA
ENDBRANCH  24  27
ENDBRANCH   3  23
TORSDOF 4
ENDMDL
MODEL 3
REMARK VINA RESULT:      -9.2      2.056      2.410
REMARK  Name = 
REMARK  6 active torsions:
REMARK  status: ('A' for Active; 'I' for Inactive)
REMARK    1  A    between atoms: C_1  and  C_2
REMARK    2  A    between atoms: N_4  and  C_5
REMARK    3  A    between atoms: C_10  and  C_11
REMARK    4  A    between atoms: C_13  and  N_14
REMARK    5  A    between atoms: C_15  and  C_17
REMARK    6  A    between atoms: C_29  and  C_30
REMARK                            x       y       z     vdW  Elec       q    Type
REMARK                         _______ _______ _______ _____ _____    ______ ____
ROOT
ATOM      1  C   UNL     1      -0.847  11.966  19.417  0.00  0.00    +0.000 A 
ATOM      2  C   UNL     1      -0.304  10.651  19.489  0.00  0.00    +0.000 A 
ATOM      3  C   UNL     1       1.030  10.338  19.178  0.00  0.00    +0.000 A 
ATOM      4  C   UNL     1       1.824  11.335  18.627  0.00  0.00    +0.000 A 
ATOM      5  C   UNL     1       1.316  12.623  18.468  0.00  0.00    +0.000 A 
ATOM      6  C   UNL     1       0.014  12.968  18.895  0.00  0.00    +0.000 A 
ATOM      7  C   UNL     1      -0.367  14.421  18.743  0.00  0.00    +0.000 C 
ENDROOT
BRANCH   1  13
ATOM      8  C   UNL     1      -4.439  12.940  22.861  0.00  0.00    +0.000 A 
ATOM      9  C   UNL     1      -3.499  12.976  23.889  0.00  0.00    +0.000 A 
ATOM     10  C   UNL     1      -2.152  12.926  23.592  0.00  0.00    +0.000 A 
ATOM     11  C   UNL     1      -1.744  12.791  22.269  0.00  0.00    +0.000 A 
ATOM     12  C   UNL     1      -2.655  12.567  21.213  0.00  0.00    +0.000 A 
ATOM     13  C   UNL     1      -2.274  12.210  19.868  0.00  0.00    +0.000 A 
ATOM     14  C   UNL     1      -3.325  12.014  18.958  0.00  0.00    +0.000 A 
ATOM     15  C   UNL     1      -4.635  12.229  19.346  0.00  0.00    +0.000 A 
ATOM     16  N   UNL     1      -5.005  12.558  20.592  0.00  0.00    +0.000 NA
ATOM     17  C   UNL     1      -4.049  12.689  21.530  0.00  0.00    +0.000 A 
BRANCH   8  21
ATOM     18  C   UNL     1      -7.915  14.239  23.643  0.00  0.00    +0.000 C 
ATOM     19  C   UNL     1      -6.431  14.347  23.429  0.00  0.00    +0.000 C 
ATOM     20  O   UNL     1      -5.879  15.439  23.536  0.00  0.00    +0.000 OA
ATOM     21  N   UNL     1      -5.827  13.140  23.122  0.00  0.00    +0.000 N 
ATOM     22  H   UNL     1      -6.404  12.335  22.890  0.00  0.00    +0.000 HD
ENDBRANCH   8  21
ENDBRANCH   1  13
BRANCH   3  23
ATOM     23  N   UNL     1       1.653   9.092  19.455  0.00  0.00    +0.000 N 
ATOM     24  C   UNL     1       2.112   8.189  18.511  0.00  0.00    +0.000 C 
ATOM     25  O   UNL     1       2.304   8.413  17.318  0.00  0.00    +0.000 OA
ATOM     26  H   UNL     1       1.550   8.750  20.402  0.00  0.00    +0.000 HD
BRANCH  24  27
ATOM     27  C   UNL     1       2.226   6.778  18.971  0.00  0.00    +0.000 A 
ATOM     28  C   UNL     1       2.217   6.353  20.301  0.00  0.00    +0.000 A 
ATOM     29  C   UNL     1       2.310   4.976  20.588  0.00  0.00    +0.000 A 
ATOM     30  C   UNL     1       2.344   4.036  19.546  0.00  0.00    +0.000 A 
ATOM     31  C   UNL     1       2.259   4.478  18.233  0.00  0.00    +0.000 A 
ATOM     32  C   UNL     1       2.274   5.833  17.945  0.00  0.00    +0.000 A 
ATOM     33  O   UNL     1       2.051   3.648  17.178  0.00  0.00    +0.000 OA
ATOM     34  C   UNL     1       2.659   2.385  17.376  0.00  0.00    +0.000 C 
ATOM     35  C   UNL     1       2.527   1.807  18.782  0.00  0.00    +0.000 C 
ATOM     36  O   UNL     1       2.434   2.721  19.882  0.00  0.00    +0.000 OA
ENDBRANCH  24  27
ENDBRANCH   3  23
TORSDOF 4
ENDMDL
MODEL 4
REMARK VINA RESULT:      -9.1      3.300      5.198
REMARK  Name = 
REMARK  6 active torsions:
REMARK  status: ('A' for Active; 'I' for Inactive)
REMARK    1  A    between atoms: C_1  and  C_2
REMARK    2  A    between atoms: N_4  and  C_5
REMARK    3  A    between atoms: C_10  and  C_11
REMARK    4  A    between atoms: C_13  and  N_14
REMARK    5  A    between atoms: C_15  and  C_17
REMARK    6  A    between atoms: C_29  and  C_30
REMARK                            x       y       z     vdW  Elec       q    Type
REMARK                         _______ _______ _______ _____ _____    ______ ____
ROOT
ATOM      1  C   UNL     1      -0.029  11.361  21.249  0.00  0.00    +0.000 A 
ATOM      2  C   UNL     1       0.841  10.258  21.015  0.00  0.00    +0.000 A 
ATOM      3  C   UNL     1       0.904   9.123  21.843  0.00  0.00    +0.000 A 
ATOM      4  C   UNL     1       0.191   9.142  23.033  0.00  0.00    +0.000 A 
ATOM      5  C   UNL     1      -0.620  10.232  23.344  0.00  0.00    +0.000 A 
ATOM      6  C   UNL     1      -0.780  11.318  22.454  0.00  0.00    +0.000 A 
ATOM      7  C   UNL     1      -1.760  12.383  22.884  0.00  0.00    +0.000 C 
ENDROOT
BRANCH   1  13
ATOM      8  C   UNL     1       0.637  16.150  19.722  0.00  0.00    +0.000 A 
ATOM      9  C   UNL     1       1.136  16.519  20.970  0.00  0.00    +0.000 A 
ATOM     10  C   UNL     1       1.389  15.554  21.924  0.00  0.00    +0.000 A 
ATOM     11  C   UNL     1       1.097  14.223  21.648  0.00  0.00    +0.000 A 
ATOM     12  C   UNL     1       0.424  13.820  20.474  0.00  0.00    +0.000 A 
ATOM     13  C   UNL     1      -0.088  12.492  20.241  0.00  0.00    +0.000 A 
ATOM     14  C   UNL     1      -0.742  12.286  19.015  0.00  0.00    +0.000 A 
ATOM     15  C   UNL     1      -0.811  13.302  18.080  0.00  0.00    +0.000 A 
ATOM     16  N   UNL     1      -0.342  14.542  18.283  0.00  0.00    +0.000 NA
ATOM     17  C   UNL     1       0.231  14.824  19.467  0.00  0.00    +0.000 A 
BRANCH   8  21
ATOM     18  C   UNL     1       1.083  18.566  16.833  0.00  0.00    +0.000 C 
ATOM     19  C   UNL     1       1.535  17.574  17.869  0.00  0.00    +0.000 C 
ATOM     20  O   UNL     1       2.722  17.266  17.936  0.00  0.00    +0.000 OA
ATOM     21  N   UNL     1       0.509  17.101  18.667  0.00  0.00    +0.000 N 
ATOM     22  H   UNL     1      -0.457  17.293  18.410  0.00  0.00    +0.000 HD
ENDBRANCH   8  21
ENDBRANCH   1  13
BRANCH   3  23
ATOM     23  N   UNL     1       1.588   7.922  21.514  0.00  0.00    +0.000 N 
ATOM     24  C   UNL     1       1.926   7.507  20.238  0.00  0.00    +0.000 C 
ATOM     25  O   UNL     1       1.939   8.200  19.223  0.00  0.00    +0.000 OA
ATOM     26  H   UNL     1       1.630   7.226  22.247  0.00  0.00    +0.000 HD
BRANCH  24  27
ATOM     27  C   UNL     1       2.136   6.042  20.071  0.00  0.00    +0.000 A 
ATOM     28  C   UNL     1       1.659   5.050  20.929  0.00  0.00    +0.000 A 
ATOM     29  C   UNL     1       1.916   3.696  20.632  0.00  0.00    +0.000 A 
ATOM     30  C   UNL     1       2.588   3.346  19.450  0.00  0.00    +0.000 A 
ATOM     31  C   UNL     1       2.971   4.346  18.567  0.00  0.00    +0.000 A 
ATOM     32  C   UNL     1       2.815   5.680  18.906  0.00  0.00    +0.000 A 
ATOM     33  O   UNL     1       3.411   4.101  17.305  0.00  0.00    +0.000 OA
ATOM     34  C   UNL     1       4.135   2.886  17.229  0.00  0.00    +0.000 C 
ATOM     35  C   UNL     1       3.551   1.724  18.026  0.00  0.00    +0.000 C 
ATOM     36  O   UNL     1       2.809   2.024  19.215  0.00  0.00    +0.000 OA
ENDBRANCH  24  27
ENDBRANCH   3  23
TORSDOF 4
ENDMDL
MODEL 5
REMARK VINA RESULT:      -9.0      1.605      2.316
REMARK  Name = 
REMARK  6 active torsions:
REMARK  status: ('A' for Active; 'I' for Inactive)
REMARK    1  A    between atoms: C_1  and  C_2
REMARK    2  A    between atoms: N_4  and  C_5
REMARK    3  A    between atoms: C_10  and  C_11
REMARK    4  A    between atoms: C_13  and  N_14
REMARK    5  A    between atoms: C_15  and  C_17
REMARK    6  A    between atoms: C_29  and  C_30
REMARK                            x       y       z     vdW  Elec       q    Type
REMARK                         _______ _______ _______ _____ _____    ______ ____
ROOT
ATOM      1  C   UNL     1      -0.811  11.960  19.302  0.00  0.00    +0.000 A 
ATOM      2  C   UNL     1      -0.479  10.597  19.052  0.00  0.00    +0.000 A 
ATOM      3  C   UNL     1       0.797  10.165  18.650  0.00  0.00    +0.000 A 
ATOM      4  C   UNL     1       1.744  11.129  18.335  0.00  0.00    +0.000 A 
ATOM      5  C   UNL     1       1.444  12.481  18.493  0.00  0.00    +0.000 A 
ATOM      6  C   UNL     1       0.204  12.912  19.015  0.00  0.00    +0.000 A 
ATOM      7  C   UNL     1       0.054  14.400  19.216  0.00  0.00    +0.000 C 
ENDROOT
BRANCH   1  13
ATOM      8  C   UNL     1      -4.105  13.394  22.881  0.00  0.00    +0.000 A 
ATOM      9  C   UNL     1      -3.092  13.477  23.834  0.00  0.00    +0.000 A 
ATOM     10  C   UNL     1      -1.773  13.340  23.452  0.00  0.00    +0.000 A 
ATOM     11  C   UNL     1      -1.467  13.071  22.122  0.00  0.00    +0.000 A 
ATOM     12  C   UNL     1      -2.459  12.797  21.155  0.00  0.00    +0.000 A 
ATOM     13  C   UNL     1      -2.191  12.308  19.826  0.00  0.00    +0.000 A 
ATOM     14  C   UNL     1      -3.312  12.081  19.010  0.00  0.00    +0.000 A 
ATOM     15  C   UNL     1      -4.581  12.389  19.465  0.00  0.00    +0.000 A 
ATOM     16  N   UNL     1      -4.846  12.842  20.699  0.00  0.00    +0.000 NA
ATOM     17  C   UNL     1      -3.821  13.011  21.554  0.00  0.00    +0.000 A 
BRANCH   8  21
ATOM     18  C   UNL     1      -7.677  13.449  24.152  0.00  0.00    +0.000 C 
ATOM     19  C   UNL     1      -6.304  12.869  23.956  0.00  0.00    +0.000 C 
ATOM     20  O   UNL     1      -6.035  11.770  24.436  0.00  0.00    +0.000 OA
ATOM     21  N   UNL     1      -5.460  13.680  23.217  0.00  0.00    +0.000 N 
ATOM     22  H   UNL     1      -5.734  14.639  23.019  0.00  0.00    +0.000 HD
ENDBRANCH   8  21
ENDBRANCH   1  13
BRANCH   3  23
ATOM     23  N   UNL     1       1.215   8.808  18.614  0.00  0.00    +0.000 N 
ATOM     24  C   UNL     1       1.581   8.045  19.709  0.00  0.00    +0.000 C 
ATOM     25  O   UNL     1       1.359   8.307  20.890  0.00  0.00    +0.000 OA
ATOM     26  H   UNL     1       1.471   8.451  17.703  0.00  0.00    +0.000 HD
BRANCH  24  27
ATOM     27  C   UNL     1       2.464   6.882  19.419  0.00  0.00    +0.000 A 
ATOM     28  C   UNL     1       3.541   6.882  18.530  0.00  0.00    +0.000 A 
ATOM     29  C   UNL     1       4.307   5.709  18.372  0.00  0.00    +0.000 A 
ATOM     30  C   UNL     1       4.032   4.573  19.150  0.00  0.00    +0.000 A 
ATOM     31  C   UNL     1       3.014   4.629  20.093  0.00  0.00    +0.000 A 
ATOM     32  C   UNL     1       2.193   5.741  20.176  0.00  0.00    +0.000 A 
ATOM     33  O   UNL     1       2.824   3.677  21.043  0.00  0.00    +0.000 OA
ATOM     34  C   UNL     1       3.173   2.388  20.572  0.00  0.00    +0.000 C 
ATOM     35  C   UNL     1       4.443   2.319  19.730  0.00  0.00    +0.000 C 
ATOM     36  O   UNL     1       4.804   3.471  18.955  0.00  0.00    +0.000 OA
ENDBRANCH  24  27
ENDBRANCH   3  23
TORSDOF 4
ENDMDL
MODEL 6
REMARK VINA RESULT:      -8.8      1.537      2.756
REMARK  Name = 
REMARK  6 active torsions:
REMARK  status: ('A' for Active; 'I' for Inactive)
REMARK    1  A    between atoms: C_1  and  C_2
REMARK    2  A    between atoms: N_4  and  C_5
REMARK    3  A    between atoms: C_10  and  C_11
REMARK    4  A    between atoms: C_13  and  N_14
REMARK    5  A    between atoms: C_15  and  C_17
REMARK    6  A    between atoms: C_29  and  C_30
REMARK                            x       y       z     vdW  Elec       q    Type
REMARK                         _______ _______ _______ _____ _____    ______ ____
ROOT
ATOM      1  C   UNL     1      -0.027  12.145  20.157  0.00  0.00    +0.000 A 
ATOM      2  C   UNL     1       0.071  10.802  19.693  0.00  0.00    +0.000 A 
ATOM      3  C   UNL     1       1.087  10.342  18.838  0.00  0.00    +0.000 A 
ATOM      4  C   UNL     1       1.956  11.278  18.294  0.00  0.00    +0.000 A 
ATOM      5  C   UNL     1       1.856  12.619  18.660  0.00  0.00    +0.000 A 
ATOM      6  C   UNL     1       0.914  13.061  19.615  0.00  0.00    +0.000 A 
ATOM      7  C   UNL     1       0.982  14.525  19.980  0.00  0.00    +0.000 C 
ENDROOT
BRANCH   1  13
ATOM      8  C   UNL     1      -4.798  13.144  21.555  0.00  0.00    +0.000 A 
ATOM      9  C   UNL     1      -5.260  12.949  20.255  0.00  0.00    +0.000 A 
ATOM     10  C   UNL     1      -4.408  12.457  19.287  0.00  0.00    +0.000 A 
ATOM     11  C   UNL     1      -3.078  12.205  19.606  0.00  0.00    +0.000 A 
ATOM     12  C   UNL     1      -2.517  12.557  20.853  0.00  0.00    +0.000 A 
ATOM     13  C   UNL     1      -1.107  12.514  21.155  0.00  0.00    +0.000 A 
ATOM     14  C   UNL     1      -0.738  12.915  22.449  0.00  0.00    +0.000 A 
ATOM     15  C   UNL     1      -1.705  13.258  23.377  0.00  0.00    +0.000 A 
ATOM     16  N   UNL     1      -3.018  13.305  23.110  0.00  0.00    +0.000 NA
ATOM     17  C   UNL     1      -3.430  13.002  21.866  0.00  0.00    +0.000 A 
BRANCH   8  21
ATOM     18  C   UNL     1      -7.493  13.391  24.211  0.00  0.00    +0.000 C 
ATOM     19  C   UNL     1      -6.741  12.743  23.082  0.00  0.00    +0.000 C 
ATOM     20  O   UNL     1      -7.091  11.638  22.674  0.00  0.00    +0.000 OA
ATOM     21  N   UNL     1      -5.687  13.505  22.609  0.00  0.00    +0.000 N 
ATOM     22  H   UNL     1      -5.383  14.322  23.134  0.00  0.00    +0.000 HD
ENDBRANCH   8  21
ENDBRANCH   1  13
BRANCH   3  23
ATOM     23  N   UNL     1       1.338   8.975  18.545  0.00  0.00    +0.000 N 
ATOM     24  C   UNL     1       1.829   8.035  19.434  0.00  0.00    +0.000 C 
ATOM     25  O   UNL     1       1.877   8.140  20.658  0.00  0.00    +0.000 OA
ATOM     26  H   UNL     1       1.367   8.734  17.563  0.00  0.00    +0.000 HD
BRANCH  24  27
ATOM     27  C   UNL     1       2.505   6.858  18.820  0.00  0.00    +0.000 A 
ATOM     28  C   UNL     1       3.517   6.912  17.860  0.00  0.00    +0.000 A 
ATOM     29  C   UNL     1       4.083   5.712  17.383  0.00  0.00    +0.000 A 
ATOM     30  C   UNL     1       3.679   4.478  17.917  0.00  0.00    +0.000 A 
ATOM     31  C   UNL     1       2.736   4.457  18.936  0.00  0.00    +0.000 A 
ATOM     32  C   UNL     1       2.103   5.623  19.332  0.00  0.00    +0.000 A 
ATOM     33  O   UNL     1       2.455   3.348  19.670  0.00  0.00    +0.000 OA
ATOM     34  C   UNL     1       2.574   2.166  18.900  0.00  0.00    +0.000 C 
ATOM     35  C   UNL     1       3.768   2.116  17.954  0.00  0.00    +0.000 C 
ATOM     36  O   UNL     1       4.259   3.353  17.419  0.00  0.00    +0.000 OA
ENDBRANCH  24  27
ENDBRANCH   3  23
TORSDOF 4
ENDMDL
MODEL 7
REMARK VINA RESULT:      -8.8      1.674      2.003
REMARK  Name = 
REMARK  6 active torsions:
REMARK  status: ('A' for Active; 'I' for Inactive)
REMARK    1  A    between atoms: C_1  and  C_2
REMARK    2  A    between atoms: N_4  and  C_5
REMARK    3  A    between atoms: C_10  and  C_11
REMARK    4  A    between atoms: C_13  and  N_14
REMARK    5  A    between atoms: C_15  and  C_17
REMARK    6  A    between atoms: C_29  and  C_30
REMARK                            x       y       z     vdW  Elec       q    Type
REMARK                         _______ _______ _______ _____ _____    ______ ____
ROOT
ATOM      1  C   UNL     1      -0.407  11.527  19.207  0.00  0.00    +0.000 A 
ATOM      2  C   UNL     1      -0.063  10.144  19.189  0.00  0.00    +0.000 A 
ATOM      3  C   UNL     1       1.213   9.661  18.850  0.00  0.00    +0.000 A 
ATOM      4  C   UNL     1       2.145  10.565  18.361  0.00  0.00    +0.000 A 
ATOM      5  C   UNL     1       1.832  11.921  18.289  0.00  0.00    +0.000 A 
ATOM      6  C   UNL     1       0.594  12.424  18.746  0.00  0.00    +0.000 A 
ATOM      7  C   UNL     1       0.430  13.924  18.692  0.00  0.00    +0.000 C 
ENDROOT
BRANCH   1  13
ATOM      8  C   UNL     1      -3.734  13.186  22.655  0.00  0.00    +0.000 A 
ATOM      9  C   UNL     1      -2.746  13.245  23.636  0.00  0.00    +0.000 A 
ATOM     10  C   UNL     1      -1.424  13.041  23.296  0.00  0.00    +0.000 A 
ATOM     11  C   UNL     1      -1.093  12.730  21.982  0.00  0.00    +0.000 A 
ATOM     12  C   UNL     1      -2.068  12.478  20.992  0.00  0.00    +0.000 A 
ATOM     13  C   UNL     1      -1.784  11.947  19.682  0.00  0.00    +0.000 A 
ATOM     14  C   UNL     1      -2.890  11.752  18.839  0.00  0.00    +0.000 A 
ATOM     15  C   UNL     1      -4.157  12.125  19.250  0.00  0.00    +0.000 A 
ATOM     16  N   UNL     1      -4.437  12.618  20.465  0.00  0.00    +0.000 NA
ATOM     17  C   UNL     1      -3.430  12.760  21.346  0.00  0.00    +0.000 A 
BRANCH   8  21
ATOM     18  C   UNL     1      -7.280  13.525  23.954  0.00  0.00    +0.000 C 
ATOM     19  C   UNL     1      -5.908  12.917  23.867  0.00  0.00    +0.000 C 
ATOM     20  O   UNL     1      -5.622  11.958  24.580  0.00  0.00    +0.000 OA
ATOM     21  N   UNL     1      -5.084  13.539  22.945  0.00  0.00    +0.000 N 
ATOM     22  H   UNL     1      -5.368  14.427  22.539  0.00  0.00    +0.000 HD
ENDBRANCH   8  21
ENDBRANCH   1  13
BRANCH   3  23
ATOM     23  N   UNL     1       1.645   8.321  19.041  0.00  0.00    +0.000 N 
ATOM     24  C   UNL     1       2.567   7.649  18.257  0.00  0.00    +0.000 C 
ATOM     25  O   UNL     1       3.349   8.153  17.453  0.00  0.00    +0.000 OA
ATOM     26  H   UNL     1       1.074   7.759  19.657  0.00  0.00    +0.000 HD
BRANCH  24  27
ATOM     27  C   UNL     1       2.478   6.163  18.288  0.00  0.00    +0.000 A 
ATOM     28  C   UNL     1       1.491   5.396  17.667  0.00  0.00    +0.000 A 
ATOM     29  C   UNL     1       1.546   3.990  17.762  0.00  0.00    +0.000 A 
ATOM     30  C   UNL     1       2.619   3.366  18.418  0.00  0.00    +0.000 A 
ATOM     31  C   UNL     1       3.635   4.149  18.949  0.00  0.00    +0.000 A 
ATOM     32  C   UNL     1       3.531   5.530  18.949  0.00  0.00    +0.000 A 
ATOM     33  O   UNL     1       4.815   3.640  19.390  0.00  0.00    +0.000 OA
ATOM     34  C   UNL     1       4.652   2.354  19.959  0.00  0.00    +0.000 C 
ATOM     35  C   UNL     1       3.704   1.422  19.212  0.00  0.00    +0.000 C 
ATOM     36  O   UNL     1       2.619   2.008  18.479  0.00  0.00    +0.000 OA
ENDBRANCH  24  27
ENDBRANCH   3  23
TORSDOF 4
ENDMDL
MODEL 8
REMARK VINA RESULT:      -8.7      1.646      2.106
REMARK  Name = 
REMARK  6 active torsions:
REMARK  status: ('A' for Active; 'I' for Inactive)
REMARK    1  A    between atoms: C_1  and  C_2
REMARK    2  A    between atoms: N_4  and  C_5
REMARK    3  A    between atoms: C_10  and  C_11
REMARK    4  A    between atoms: C_13  and  N_14
REMARK    5  A    between atoms: C_15  and  C_17
REMARK    6  A    between atoms: C_29  and  C_30
REMARK                            x       y       z     vdW  Elec       q    Type
REMARK                         _______ _______ _______ _____ _____    ______ ____
ROOT
ATOM      1  C   UNL     1      -0.663  12.241  19.309  0.00  0.00    +0.000 A 
ATOM      2  C   UNL     1      -0.078  10.945  19.402  0.00  0.00    +0.000 A 
ATOM      3  C   UNL     1       1.272  10.675  19.115  0.00  0.00    +0.000 A 
ATOM      4  C   UNL     1       2.041  11.693  18.569  0.00  0.00    +0.000 A 
ATOM      5  C   UNL     1       1.493  12.962  18.389  0.00  0.00    +0.000 A 
ATOM      6  C   UNL     1       0.173  13.267  18.792  0.00  0.00    +0.000 A 
ATOM      7  C   UNL     1      -0.253  14.705  18.620  0.00  0.00    +0.000 C 
ENDROOT
BRANCH   1  13
ATOM      8  C   UNL     1      -4.321  13.430  22.613  0.00  0.00    +0.000 A 
ATOM      9  C   UNL     1      -3.386  13.682  23.616  0.00  0.00    +0.000 A 
ATOM     10  C   UNL     1      -2.039  13.691  23.316  0.00  0.00    +0.000 A 
ATOM     11  C   UNL     1      -1.622  13.398  22.022  0.00  0.00    +0.000 A 
ATOM     12  C   UNL     1      -2.512  12.958  21.018  0.00  0.00    +0.000 A 
ATOM     13  C   UNL     1      -2.104  12.441  19.734  0.00  0.00    +0.000 A 
ATOM     14  C   UNL     1      -3.137  12.039  18.872  0.00  0.00    +0.000 A 
ATOM     15  C   UNL     1      -4.459  12.210  19.237  0.00  0.00    +0.000 A 
ATOM     16  N   UNL     1      -4.854  12.687  20.427  0.00  0.00    +0.000 NA
ATOM     17  C   UNL     1      -3.911  13.021  21.327  0.00  0.00    +0.000 A 
BRANCH   8  21
ATOM     18  C   UNL     1      -7.917  13.200  23.795  0.00  0.00    +0.000 C 
ATOM     19  C   UNL     1      -6.463  12.819  23.756  0.00  0.00    +0.000 C 
ATOM     20  O   UNL     1      -6.051  11.920  24.486  0.00  0.00    +0.000 OA
ATOM     21  N   UNL     1      -5.719  13.562  22.857  0.00  0.00    +0.000 N 
ATOM     22  H   UNL     1      -6.128  14.393  22.434  0.00  0.00    +0.000 HD
ENDBRANCH   8  21
ENDBRANCH   1  13
BRANCH   3  23
ATOM     23  N   UNL     1       1.931   9.453  19.414  0.00  0.00    +0.000 N 
ATOM     24  C   UNL     1       2.191   8.433  18.514  0.00  0.00    +0.000 C 
ATOM     25  O   UNL     1       2.146   8.510  17.288  0.00  0.00    +0.000 OA
ATOM     26  H   UNL     1       2.014   9.227  20.396  0.00  0.00    +0.000 HD
BRANCH  24  27
ATOM     27  C   UNL     1       2.386   7.082  19.110  0.00  0.00    +0.000 A 
ATOM     28  C   UNL     1       1.705   6.577  20.218  0.00  0.00    +0.000 A 
ATOM     29  C   UNL     1       1.977   5.266  20.659  0.00  0.00    +0.000 A 
ATOM     30  C   UNL     1       2.877   4.453  19.951  0.00  0.00    +0.000 A 
ATOM     31  C   UNL     1       3.473   4.947  18.799  0.00  0.00    +0.000 A 
ATOM     32  C   UNL     1       3.289   6.268  18.423  0.00  0.00    +0.000 A 
ATOM     33  O   UNL     1       4.167   4.172  17.925  0.00  0.00    +0.000 OA
ATOM     34  C   UNL     1       4.851   3.123  18.585  0.00  0.00    +0.000 C 
ATOM     35  C   UNL     1       4.073   2.430  19.699  0.00  0.00    +0.000 C 
ATOM     36  O   UNL     1       3.101   3.198  20.423  0.00  0.00    +0.000 OA
ENDBRANCH  24  27
ENDBRANCH   3  23
TORSDOF 4
ENDMDL
MODEL 9
REMARK VINA RESULT:      -8.7      1.364      2.330
REMARK  Name = 
REMARK  6 active torsions:
REMARK  status: ('A' for Active; 'I' for Inactive)
REMARK    1  A    between atoms: C_1  and  C_2
REMARK    2  A    between atoms: N_4  and  C_5
REMARK    3  A    between atoms: C_10  and  C_11
REMARK    4  A    between atoms: C_13  and  N_14
REMARK    5  A    between atoms: C_15  and  C_17
REMARK    6  A    between atoms: C_29  and  C_30
REMARK                            x       y       z     vdW  Elec       q    Type
REMARK                         _______ _______ _______ _____ _____    ______ ____
ROOT
ATOM      1  C   UNL     1      -0.435  12.252  20.391  0.00  0.00    +0.000 A 
ATOM      2  C   UNL     1      -0.269  10.873  20.072  0.00  0.00    +0.000 A 
ATOM      3  C   UNL     1       0.764  10.378  19.256  0.00  0.00    +0.000 A 
ATOM      4  C   UNL     1       1.576  11.295  18.603  0.00  0.00    +0.000 A 
ATOM      5  C   UNL     1       1.406  12.660  18.824  0.00  0.00    +0.000 A 
ATOM      6  C   UNL     1       0.449  13.153  19.739  0.00  0.00    +0.000 A 
ATOM      7  C   UNL     1       0.441  14.648  19.944  0.00  0.00    +0.000 C 
ENDROOT
BRANCH   1  13
ATOM      8  C   UNL     1      -5.207  13.389  21.674  0.00  0.00    +0.000 A 
ATOM      9  C   UNL     1      -5.650  13.174  20.370  0.00  0.00    +0.000 A 
ATOM     10  C   UNL     1      -4.791  12.640  19.430  0.00  0.00    +0.000 A 
ATOM     11  C   UNL     1      -3.474  12.367  19.780  0.00  0.00    +0.000 A 
ATOM     12  C   UNL     1      -2.927  12.735  21.029  0.00  0.00    +0.000 A 
ATOM     13  C   UNL     1      -1.525  12.668  21.359  0.00  0.00    +0.000 A 
ATOM     14  C   UNL     1      -1.171  13.091  22.650  0.00  0.00    +0.000 A 
ATOM     15  C   UNL     1      -2.146  13.477  23.551  0.00  0.00    +0.000 A 
ATOM     16  N   UNL     1      -3.453  13.547  23.259  0.00  0.00    +0.000 NA
ATOM     17  C   UNL     1      -3.849  13.224  22.014  0.00  0.00    +0.000 A 
BRANCH   8  21
ATOM     18  C   UNL     1      -7.774  13.689  24.449  0.00  0.00    +0.000 C 
ATOM     19  C   UNL     1      -6.949  12.965  23.422  0.00  0.00    +0.000 C 
ATOM     20  O   UNL     1      -7.069  11.749  23.294  0.00  0.00    +0.000 OA
ATOM     21  N   UNL     1      -6.108  13.795  22.702  0.00  0.00    +0.000 N 
ATOM     22  H   UNL     1      -5.965  14.754  23.010  0.00  0.00    +0.000 HD
ENDBRANCH   8  21
ENDBRANCH   1  13
BRANCH   3  23
ATOM     23  N   UNL     1       1.087   9.003  19.108  0.00  0.00    +0.000 N 
ATOM     24  C   UNL     1       1.573   8.175  20.104  0.00  0.00    +0.000 C 
ATOM     25  O   UNL     1       1.557   8.397  21.313  0.00  0.00    +0.000 OA
ATOM     26  H   UNL     1       1.173   8.672  18.156  0.00  0.00    +0.000 HD
BRANCH  24  27
ATOM     27  C   UNL     1       2.327   6.979  19.637  0.00  0.00    +0.000 A 
ATOM     28  C   UNL     1       2.238   5.698  20.185  0.00  0.00    +0.000 A 
ATOM     29  C   UNL     1       2.997   4.651  19.623  0.00  0.00    +0.000 A 
ATOM     30  C   UNL     1       3.784   4.881  18.482  0.00  0.00    +0.000 A 
ATOM     31  C   UNL     1       3.783   6.141  17.902  0.00  0.00    +0.000 A 
ATOM     32  C   UNL     1       3.123   7.195  18.512  0.00  0.00    +0.000 A 
ATOM     33  O   UNL     1       4.318   6.401  16.680  0.00  0.00    +0.000 OA
ATOM     34  C   UNL     1       5.449   5.591  16.420  0.00  0.00    +0.000 C 
ATOM     35  C   UNL     1       5.328   4.135  16.856  0.00  0.00    +0.000 C 
ATOM     36  O   UNL     1       4.495   3.834  17.983  0.00  0.00    +0.000 OA
ENDBRANCH  24  27
ENDBRANCH   3  23
TORSDOF 4
ENDMDL
