MODEL 1
REMARK VINA RESULT:      -7.6      0.000      0.000
REMARK  Name = 
REMARK  6 active torsions:
REMARK  status: ('A' for Active; 'I' for Inactive)
REMARK    1  A    between atoms: C_1  and  C_2
REMARK    2  A    between atoms: C_6  and  C_7
REMARK    3  A    between atoms: C_7  and  N_8
REMARK    4  A    between atoms: N_8  and  S_9
REMARK    5  A    between atoms: S_9  and  C_12
REMARK    6  A    between atoms: C_20  and  C_22
REMARK                            x       y       z     vdW  Elec       q    Type
REMARK                         _______ _______ _______ _____ _____    ______ ____
ROOT
ATOM      1  C   UNL     1       4.298   5.970  18.392  0.00  0.00    +0.000 A 
ATOM      2  C   UNL     1       3.458   6.099  19.481  0.00  0.00    +0.000 A 
ATOM      3  C   UNL     1       2.592   7.224  19.380  0.00  0.00    +0.000 A 
ATOM      4  C   UNL     1       2.788   7.888  18.183  0.00  0.00    +0.000 A 
ATOM      5  S   UNL     1       4.014   7.199  17.234  0.00  0.00    +0.000 S 
ATOM      6  C   UNL     1       2.014   9.102  17.766  0.00  0.00    +0.000 C 
ATOM      7  C   UNL     1       0.737   9.168  18.621  0.00  0.00    +0.000 C 
ATOM      8  N   UNL     1       1.059   8.980  20.049  0.00  0.00    +0.000 N 
ATOM      9  C   UNL     1       1.042   9.962  21.041  0.00  0.00    +0.000 C 
ATOM     10  O   UNL     1       1.363   9.684  22.206  0.00  0.00    +0.000 OA
ATOM     11  C   UNL     1       1.563   7.642  20.395  0.00  0.00    +0.000 C 
ENDROOT
BRANCH   9  12
ATOM     12  C   UNL     1       0.585  11.394  20.645  0.00  0.00    +0.000 C 
ATOM     13  C   UNL     1      -0.173  12.259  21.698  0.00  0.00    +0.000 C 
ATOM     14  C   UNL     1       0.627  13.480  21.220  0.00  0.00    +0.000 C 
ATOM     15  C   UNL     1       1.651  12.517  20.602  0.00  0.00    +0.000 C 
ENDBRANCH   9  12
BRANCH   1  16
ATOM     16  S   UNL     1       5.571   4.780  18.033  0.00  0.00    +0.000 S 
ATOM     17  O   UNL     1       5.944   4.139  19.269  0.00  0.00    +0.000 OA
ATOM     18  O   UNL     1       6.531   5.489  17.212  0.00  0.00    +0.000 OA
BRANCH  16  19
ATOM     19  N   UNL     1       4.846   3.587  17.087  0.00  0.00    +0.000 NA
ATOM     20  H   UNL     1       4.155   4.011  16.466  0.00  0.00    +0.000 HD
BRANCH  19  21
ATOM     21  C   UNL     1       4.349   2.413  17.811  0.00  0.00    +0.000 C 
BRANCH  21  27
ATOM     22  C   UNL     1       1.609   2.509  22.051  0.00  0.00    +0.000 C 
ATOM     23  C   UNL     1       1.717   2.745  20.572  0.00  0.00    +0.000 A 
ATOM     24  C   UNL     1       0.616   3.182  19.834  0.00  0.00    +0.000 A 
ATOM     25  C   UNL     1       0.722   3.382  18.455  0.00  0.00    +0.000 A 
ATOM     26  C   UNL     1       1.931   3.139  17.806  0.00  0.00    +0.000 A 
ATOM     27  C   UNL     1       3.051   2.701  18.525  0.00  0.00    +0.000 A 
ATOM     28  C   UNL     1       2.934   2.509  19.912  0.00  0.00    +0.000 A 
ENDBRANCH  21  27
ENDBRANCH  19  21
ENDBRANCH  16  19
ENDBRANCH   1  16
TORSDOF 5
ENDMDL
MODEL 2
REMARK VINA RESULT:      -7.5      3.012      4.490
REMARK  Name = 
REMARK  6 active torsions:
REMARK  status: ('A' for Active; 'I' for Inactive)
REMARK    1  A    between atoms: C_1  and  C_2
REMARK    2  A    between atoms: C_6  and  C_7
REMARK    3  A    between atoms: C_7  and  N_8
REMARK    4  A    between atoms: N_8  and  S_9
REMARK    5  A    between atoms: S_9  and  C_12
REMARK    6  A    between atoms: C_20  and  C_22
REMARK                            x       y       z     vdW  Elec       q    Type
REMARK                         _______ _______ _______ _____ _____    ______ ____
ROOT
ATOM      1  C   UNL     1       3.829   5.786  18.651  0.00  0.00    +0.000 A 
ATOM      2  C   UNL     1       2.974   6.073  19.698  0.00  0.00    +0.000 A 
ATOM      3  C   UNL     1       2.279   7.303  19.522  0.00  0.00    +0.000 A 
ATOM      4  C   UNL     1       2.611   7.886  18.313  0.00  0.00    +0.000 A 
ATOM      5  S   UNL     1       3.763   6.997  17.442  0.00  0.00    +0.000 S 
ATOM      6  C   UNL     1       2.032   9.179  17.824  0.00  0.00    +0.000 C 
ATOM      7  C   UNL     1       0.746   9.455  18.621  0.00  0.00    +0.000 C 
ATOM      8  N   UNL     1       0.985   9.280  20.066  0.00  0.00    +0.000 N 
ATOM      9  C   UNL     1       1.068  10.293  21.023  0.00  0.00    +0.000 C 
ATOM     10  O   UNL     1       1.303  10.018  22.210  0.00  0.00    +0.000 OA
ATOM     11  C   UNL     1       1.282   7.900  20.478  0.00  0.00    +0.000 C 
ENDROOT
BRANCH   9  12
ATOM     12  C   UNL     1       0.832  11.758  20.561  0.00  0.00    +0.000 C 
ATOM     13  C   UNL     1       0.112  12.745  21.530  0.00  0.00    +0.000 C 
ATOM     14  C   UNL     1       1.098  13.839  21.092  0.00  0.00    +0.000 C 
ATOM     15  C   UNL     1       2.035  12.735  20.581  0.00  0.00    +0.000 C 
ENDBRANCH   9  12
BRANCH   1  16
ATOM     16  S   UNL     1       4.934   4.418  18.387  0.00  0.00    +0.000 S 
ATOM     17  O   UNL     1       4.228   3.205  18.711  0.00  0.00    +0.000 OA
ATOM     18  O   UNL     1       6.166   4.795  19.050  0.00  0.00    +0.000 OA
BRANCH  16  19
ATOM     19  N   UNL     1       5.224   4.362  16.727  0.00  0.00    +0.000 NA
ATOM     20  H   UNL     1       4.913   3.465  16.351  0.00  0.00    +0.000 HD
BRANCH  19  21
ATOM     21  C   UNL     1       6.576   4.745  16.302  0.00  0.00    +0.000 C 
BRANCH  21  27
ATOM     22  C   UNL     1       5.292   2.636  11.898  0.00  0.00    +0.000 C 
ATOM     23  C   UNL     1       6.138   3.604  12.674  0.00  0.00    +0.000 A 
ATOM     24  C   UNL     1       7.124   4.361  12.040  0.00  0.00    +0.000 A 
ATOM     25  C   UNL     1       7.918   5.247  12.774  0.00  0.00    +0.000 A 
ATOM     26  C   UNL     1       7.734   5.373  14.149  0.00  0.00    +0.000 A 
ATOM     27  C   UNL     1       6.750   4.625  14.808  0.00  0.00    +0.000 A 
ATOM     28  C   UNL     1       5.954   3.742  14.059  0.00  0.00    +0.000 A 
ENDBRANCH  21  27
ENDBRANCH  19  21
ENDBRANCH  16  19
ENDBRANCH   1  16
TORSDOF 5
ENDMDL
MODEL 3
REMARK VINA RESULT:      -7.5      2.691      4.291
REMARK  Name = 
REMARK  6 active torsions:
REMARK  status: ('A' for Active; 'I' for Inactive)
REMARK    1  A    between atoms: C_1  and  C_2
REMARK    2  A    between atoms: C_6  and  C_7
REMARK    3  A    between atoms: C_7  and  N_8
REMARK    4  A    between atoms: N_8  and  S_9
REMARK    5  A    between atoms: S_9  and  C_12
REMARK    6  A    between atoms: C_20  and  C_22
REMARK                            x       y       z     vdW  Elec       q    Type
REMARK                         _______ _______ _______ _____ _____    ______ ____
ROOT
ATOM      1  C   UNL     1       2.258   4.452  18.942  0.00  0.00    +0.000 A 
ATOM      2  C   UNL     1       2.440   5.642  18.263  0.00  0.00    +0.000 A 
ATOM      3  C   UNL     1       2.039   6.777  19.023  0.00  0.00    +0.000 A 
ATOM      4  C   UNL     1       1.601   6.398  20.278  0.00  0.00    +0.000 A 
ATOM      5  S   UNL     1       1.629   4.718  20.512  0.00  0.00    +0.000 S 
ATOM      6  C   UNL     1       1.131   7.364  21.323  0.00  0.00    +0.000 C 
ATOM      7  C   UNL     1       1.651   8.762  20.948  0.00  0.00    +0.000 C 
ATOM      8  N   UNL     1       1.373   9.053  19.528  0.00  0.00    +0.000 N 
ATOM      9  C   UNL     1       0.418   9.944  19.035  0.00  0.00    +0.000 C 
ATOM     10  O   UNL     1       0.258  10.080  17.812  0.00  0.00    +0.000 OA
ATOM     11  C   UNL     1       2.107   8.211  18.572  0.00  0.00    +0.000 C 
ENDROOT
BRANCH   9  12
ATOM     12  C   UNL     1      -0.411  10.770  20.058  0.00  0.00    +0.000 C 
ATOM     13  C   UNL     1       0.169  12.121  20.579  0.00  0.00    +0.000 C 
ATOM     14  C   UNL     1      -1.241  12.721  20.488  0.00  0.00    +0.000 C 
ATOM     15  C   UNL     1      -1.623  11.580  19.534  0.00  0.00    +0.000 C 
ENDBRANCH   9  12
BRANCH   1  16
ATOM     16  S   UNL     1       2.561   2.769  18.451  0.00  0.00    +0.000 S 
ATOM     17  O   UNL     1       2.246   2.649  17.050  0.00  0.00    +0.000 OA
ATOM     18  O   UNL     1       1.911   1.959  19.460  0.00  0.00    +0.000 OA
BRANCH  16  19
ATOM     19  N   UNL     1       4.227   2.536  18.579  0.00  0.00    +0.000 NA
ATOM     20  H   UNL     1       4.421   1.575  18.865  0.00  0.00    +0.000 HD
BRANCH  19  21
ATOM     21  C   UNL     1       4.953   3.543  19.360  0.00  0.00    +0.000 C 
BRANCH  21  27
ATOM     22  C   UNL     1       6.506   4.957  14.768  0.00  0.00    +0.000 C 
ATOM     23  C   UNL     1       6.517   5.152  16.257  0.00  0.00    +0.000 A 
ATOM     24  C   UNL     1       7.302   6.145  16.844  0.00  0.00    +0.000 A 
ATOM     25  C   UNL     1       7.319   6.307  18.232  0.00  0.00    +0.000 A 
ATOM     26  C   UNL     1       6.554   5.469  19.041  0.00  0.00    +0.000 A 
ATOM     27  C   UNL     1       5.757   4.466  18.475  0.00  0.00    +0.000 A 
ATOM     28  C   UNL     1       5.744   4.316  17.079  0.00  0.00    +0.000 A 
ENDBRANCH  21  27
ENDBRANCH  19  21
ENDBRANCH  16  19
ENDBRANCH   1  16
TORSDOF 5
ENDMDL
MODEL 4
REMARK VINA RESULT:      -7.4      2.692      4.250
REMARK  Name = 
REMARK  6 active torsions:
REMARK  status: ('A' for Active; 'I' for Inactive)
REMARK    1  A    between atoms: C_1  and  C_2
REMARK    2  A    between atoms: C_6  and  C_7
REMARK    3  A    between atoms: C_7  and  N_8
REMARK    4  A    between atoms: N_8  and  S_9
REMARK    5  A    between atoms: S_9  and  C_12
REMARK    6  A    between atoms: C_20  and  C_22
REMARK                            x       y       z     vdW  Elec       q    Type
REMARK                         _______ _______ _______ _____ _____    ______ ____
ROOT
ATOM      1  C   UNL     1       2.284   4.503  18.979  0.00  0.00    +0.000 A 
ATOM      2  C   UNL     1       2.435   5.678  18.266  0.00  0.00    +0.000 A 
ATOM      3  C   UNL     1       2.025   6.826  19.001  0.00  0.00    +0.000 A 
ATOM      4  C   UNL     1       1.610   6.473  20.272  0.00  0.00    +0.000 A 
ATOM      5  S   UNL     1       1.672   4.800  20.550  0.00  0.00    +0.000 S 
ATOM      6  C   UNL     1       1.138   7.457  21.299  0.00  0.00    +0.000 C 
ATOM      7  C   UNL     1       1.626   8.854  20.879  0.00  0.00    +0.000 C 
ATOM      8  N   UNL     1       1.324   9.102  19.456  0.00  0.00    +0.000 N 
ATOM      9  C   UNL     1       0.346   9.962  18.953  0.00  0.00    +0.000 C 
ATOM     10  O   UNL     1       0.167  10.063  17.729  0.00  0.00    +0.000 OA
ATOM     11  C   UNL     1       2.060   8.248  18.512  0.00  0.00    +0.000 C 
ENDROOT
BRANCH   9  12
ATOM     12  C   UNL     1      -0.483  10.801  19.966  0.00  0.00    +0.000 C 
ATOM     13  C   UNL     1       0.075  12.179  20.436  0.00  0.00    +0.000 C 
ATOM     14  C   UNL     1      -1.350  12.745  20.352  0.00  0.00    +0.000 C 
ATOM     15  C   UNL     1      -1.723  11.567  19.440  0.00  0.00    +0.000 C 
ENDBRANCH   9  12
BRANCH   1  16
ATOM     16  S   UNL     1       2.611   2.813  18.528  0.00  0.00    +0.000 S 
ATOM     17  O   UNL     1       2.250   2.643  17.144  0.00  0.00    +0.000 OA
ATOM     18  O   UNL     1       2.018   2.020  19.585  0.00  0.00    +0.000 OA
BRANCH  16  19
ATOM     19  N   UNL     1       4.285   2.624  18.603  0.00  0.00    +0.000 NA
ATOM     20  H   UNL     1       4.513   1.711  19.001  0.00  0.00    +0.000 HD
BRANCH  19  21
ATOM     21  C   UNL     1       5.027   3.735  19.209  0.00  0.00    +0.000 C 
BRANCH  21  27
ATOM     22  C   UNL     1       7.930   7.680  17.984  0.00  0.00    +0.000 C 
ATOM     23  C   UNL     1       7.186   6.442  17.575  0.00  0.00    +0.000 A 
ATOM     24  C   UNL     1       7.142   6.042  16.238  0.00  0.00    +0.000 A 
ATOM     25  C   UNL     1       6.432   4.898  15.865  0.00  0.00    +0.000 A 
ATOM     26  C   UNL     1       5.756   4.152  16.828  0.00  0.00    +0.000 A 
ATOM     27  C   UNL     1       5.786   4.532  18.176  0.00  0.00    +0.000 A 
ATOM     28  C   UNL     1       6.507   5.681  18.540  0.00  0.00    +0.000 A 
ENDBRANCH  21  27
ENDBRANCH  19  21
ENDBRANCH  16  19
ENDBRANCH   1  16
TORSDOF 5
ENDMDL
MODEL 5
REMARK VINA RESULT:      -7.3      3.466      4.985
REMARK  Name = 
REMARK  6 active torsions:
REMARK  status: ('A' for Active; 'I' for Inactive)
REMARK    1  A    between atoms: C_1  and  C_2
REMARK    2  A    between atoms: C_6  and  C_7
REMARK    3  A    between atoms: C_7  and  N_8
REMARK    4  A    between atoms: N_8  and  S_9
REMARK    5  A    between atoms: S_9  and  C_12
REMARK    6  A    between atoms: C_20  and  C_22
REMARK                            x       y       z     vdW  Elec       q    Type
REMARK                         _______ _______ _______ _____ _____    ______ ____
ROOT
ATOM      1  C   UNL     1       3.481   5.455  18.527  0.00  0.00    +0.000 A 
ATOM      2  C   UNL     1       3.296   6.654  17.866  0.00  0.00    +0.000 A 
ATOM      3  C   UNL     1       2.516   7.581  18.614  0.00  0.00    +0.000 A 
ATOM      4  C   UNL     1       2.170   7.053  19.844  0.00  0.00    +0.000 A 
ATOM      5  S   UNL     1       2.731   5.467  20.066  0.00  0.00    +0.000 S 
ATOM      6  C   UNL     1       1.367   7.790  20.872  0.00  0.00    +0.000 C 
ATOM      7  C   UNL     1       1.421   9.289  20.532  0.00  0.00    +0.000 C 
ATOM      8  N   UNL     1       1.125   9.506  19.102  0.00  0.00    +0.000 N 
ATOM      9  C   UNL     1      -0.044  10.051  18.570  0.00  0.00    +0.000 C 
ATOM     10  O   UNL     1      -0.186  10.156  17.342  0.00  0.00    +0.000 OA
ATOM     11  C   UNL     1       2.134   8.970  18.177  0.00  0.00    +0.000 C 
ENDROOT
BRANCH   9  12
ATOM     12  C   UNL     1      -1.140  10.541  19.558  0.00  0.00    +0.000 C 
ATOM     13  C   UNL     1      -0.879  11.835  20.389  0.00  0.00    +0.000 C 
ATOM     14  C   UNL     1      -2.342  12.238  20.156  0.00  0.00    +0.000 C 
ATOM     15  C   UNL     1      -2.384  11.259  18.974  0.00  0.00    +0.000 C 
ENDBRANCH   9  12
BRANCH   1  16
ATOM     16  S   UNL     1       4.335   3.972  18.039  0.00  0.00    +0.000 S 
ATOM     17  O   UNL     1       3.395   2.881  18.083  0.00  0.00    +0.000 OA
ATOM     18  O   UNL     1       5.558   3.969  18.816  0.00  0.00    +0.000 OA
BRANCH  16  19
ATOM     19  N   UNL     1       4.741   4.178  16.416  0.00  0.00    +0.000 NA
ATOM     20  H   UNL     1       4.373   3.400  15.866  0.00  0.00    +0.000 HD
BRANCH  19  21
ATOM     21  C   UNL     1       6.151   4.480  16.144  0.00  0.00    +0.000 C 
BRANCH  21  27
ATOM     22  C   UNL     1       5.361   2.474  11.579  0.00  0.00    +0.000 C 
ATOM     23  C   UNL     1       6.092   3.447  12.458  0.00  0.00    +0.000 A 
ATOM     24  C   UNL     1       7.097   4.264  11.940  0.00  0.00    +0.000 A 
ATOM     25  C   UNL     1       7.784   5.155  12.770  0.00  0.00    +0.000 A 
ATOM     26  C   UNL     1       7.471   5.227  14.126  0.00  0.00    +0.000 A 
ATOM     27  C   UNL     1       6.464   4.418  14.669  0.00  0.00    +0.000 A 
ATOM     28  C   UNL     1       5.777   3.530  13.824  0.00  0.00    +0.000 A 
ENDBRANCH  21  27
ENDBRANCH  19  21
ENDBRANCH  16  19
ENDBRANCH   1  16
TORSDOF 5
ENDMDL
MODEL 6
REMARK VINA RESULT:      -7.2      3.618      8.554
REMARK  Name = 
REMARK  6 active torsions:
REMARK  status: ('A' for Active; 'I' for Inactive)
REMARK    1  A    between atoms: C_1  and  C_2
REMARK    2  A    between atoms: C_6  and  C_7
REMARK    3  A    between atoms: C_7  and  N_8
REMARK    4  A    between atoms: N_8  and  S_9
REMARK    5  A    between atoms: S_9  and  C_12
REMARK    6  A    between atoms: C_20  and  C_22
REMARK                            x       y       z     vdW  Elec       q    Type
REMARK                         _______ _______ _______ _____ _____    ______ ____
ROOT
ATOM      1  C   UNL     1       0.528  10.276  20.975  0.00  0.00    +0.000 A 
ATOM      2  C   UNL     1       0.911   9.109  21.608  0.00  0.00    +0.000 A 
ATOM      3  C   UNL     1       1.468   8.153  20.712  0.00  0.00    +0.000 A 
ATOM      4  C   UNL     1       1.522   8.658  19.426  0.00  0.00    +0.000 A 
ATOM      5  S   UNL     1       0.873  10.220  19.299  0.00  0.00    +0.000 S 
ATOM      6  C   UNL     1       2.077   7.903  18.257  0.00  0.00    +0.000 C 
ATOM      7  C   UNL     1       2.950   6.759  18.800  0.00  0.00    +0.000 C 
ATOM      8  N   UNL     1       2.234   6.018  19.856  0.00  0.00    +0.000 N 
ATOM      9  C   UNL     1       1.692   4.736  19.748  0.00  0.00    +0.000 C 
ATOM     10  O   UNL     1       1.084   4.228  20.703  0.00  0.00    +0.000 OA
ATOM     11  C   UNL     1       1.979   6.787  21.083  0.00  0.00    +0.000 C 
ENDROOT
BRANCH   9  12
ATOM     12  C   UNL     1       1.899   3.963  18.415  0.00  0.00    +0.000 C 
ATOM     13  C   UNL     1       3.316   3.404  18.082  0.00  0.00    +0.000 C 
ATOM     14  C   UNL     1       2.648   2.133  17.537  0.00  0.00    +0.000 C 
ATOM     15  C   UNL     1       1.386   2.503  18.329  0.00  0.00    +0.000 C 
ENDBRANCH   9  12
BRANCH   1  16
ATOM     16  S   UNL     1      -0.236  11.752  21.610  0.00  0.00    +0.000 S 
ATOM     17  O   UNL     1       0.524  12.884  21.144  0.00  0.00    +0.000 OA
ATOM     18  O   UNL     1      -0.447  11.491  23.019  0.00  0.00    +0.000 OA
BRANCH  16  19
ATOM     19  N   UNL     1      -1.744  11.859  20.861  0.00  0.00    +0.000 NA
ATOM     20  H   UNL     1      -2.171  10.933  20.809  0.00  0.00    +0.000 HD
BRANCH  19  21
ATOM     21  C   UNL     1      -1.776  12.597  19.594  0.00  0.00    +0.000 C 
BRANCH  21  27
ATOM     22  C   UNL     1      -2.825  10.424  15.159  0.00  0.00    +0.000 C 
ATOM     23  C   UNL     1      -3.291  10.964  16.480  0.00  0.00    +0.000 A 
ATOM     24  C   UNL     1      -4.647  10.977  16.810  0.00  0.00    +0.000 A 
ATOM     25  C   UNL     1      -5.072  11.498  18.036  0.00  0.00    +0.000 A 
ATOM     26  C   UNL     1      -4.141  12.014  18.935  0.00  0.00    +0.000 A 
ATOM     27  C   UNL     1      -2.775  12.010  18.627  0.00  0.00    +0.000 A 
ATOM     28  C   UNL     1      -2.359  11.479  17.395  0.00  0.00    +0.000 A 
ENDBRANCH  21  27
ENDBRANCH  19  21
ENDBRANCH  16  19
ENDBRANCH   1  16
TORSDOF 5
ENDMDL
MODEL 7
REMARK VINA RESULT:      -7.0      3.035      4.500
REMARK  Name = 
REMARK  6 active torsions:
REMARK  status: ('A' for Active; 'I' for Inactive)
REMARK    1  A    between atoms: C_1  and  C_2
REMARK    2  A    between atoms: C_6  and  C_7
REMARK    3  A    between atoms: C_7  and  N_8
REMARK    4  A    between atoms: N_8  and  S_9
REMARK    5  A    between atoms: S_9  and  C_12
REMARK    6  A    between atoms: C_20  and  C_22
REMARK                            x       y       z     vdW  Elec       q    Type
REMARK                         _______ _______ _______ _____ _____    ______ ____
ROOT
ATOM      1  C   UNL     1       3.991   5.887  18.660  0.00  0.00    +0.000 A 
ATOM      2  C   UNL     1       3.133   6.144  19.713  0.00  0.00    +0.000 A 
ATOM      3  C   UNL     1       2.374   7.333  19.528  0.00  0.00    +0.000 A 
ATOM      4  C   UNL     1       2.663   7.916  18.308  0.00  0.00    +0.000 A 
ATOM      5  S   UNL     1       3.852   7.076  17.437  0.00  0.00    +0.000 S 
ATOM      6  C   UNL     1       2.013   9.170  17.808  0.00  0.00    +0.000 C 
ATOM      7  C   UNL     1       0.722   9.391  18.614  0.00  0.00    +0.000 C 
ATOM      8  N   UNL     1       0.984   9.248  20.059  0.00  0.00    +0.000 N 
ATOM      9  C   UNL     1       1.024  10.277  21.002  0.00  0.00    +0.000 C 
ATOM     10  O   UNL     1       1.285  10.031  22.190  0.00  0.00    +0.000 OA
ATOM     11  C   UNL     1       1.356   7.891  20.486  0.00  0.00    +0.000 C 
ENDROOT
BRANCH   9  12
ATOM     12  C   UNL     1       0.708  11.722  20.523  0.00  0.00    +0.000 C 
ATOM     13  C   UNL     1      -0.182  12.634  21.421  0.00  0.00    +0.000 C 
ATOM     14  C   UNL     1       0.744  13.812  21.082  0.00  0.00    +0.000 C 
ATOM     15  C   UNL     1       1.815  12.797  20.659  0.00  0.00    +0.000 C 
ENDBRANCH   9  12
BRANCH   1  16
ATOM     16  S   UNL     1       5.164   4.574  18.403  0.00  0.00    +0.000 S 
ATOM     17  O   UNL     1       4.444   3.325  18.415  0.00  0.00    +0.000 OA
ATOM     18  O   UNL     1       6.247   4.849  19.325  0.00  0.00    +0.000 OA
BRANCH  16  19
ATOM     19  N   UNL     1       5.745   4.765  16.832  0.00  0.00    +0.000 NA
ATOM     20  H   UNL     1       5.549   5.712  16.503  0.00  0.00    +0.000 HD
BRANCH  19  21
ATOM     21  C   UNL     1       5.365   3.717  15.879  0.00  0.00    +0.000 C 
BRANCH  21  27
ATOM     22  C   UNL     1       8.794   5.994  12.956  0.00  0.00    +0.000 C 
ATOM     23  C   UNL     1       7.646   5.038  13.103  0.00  0.00    +0.000 A 
ATOM     24  C   UNL     1       7.114   4.382  11.991  0.00  0.00    +0.000 A 
ATOM     25  C   UNL     1       6.034   3.507  12.135  0.00  0.00    +0.000 A 
ATOM     26  C   UNL     1       5.476   3.290  13.394  0.00  0.00    +0.000 A 
ATOM     27  C   UNL     1       5.993   3.935  14.524  0.00  0.00    +0.000 A 
ATOM     28  C   UNL     1       7.082   4.808  14.368  0.00  0.00    +0.000 A 
ENDBRANCH  21  27
ENDBRANCH  19  21
ENDBRANCH  16  19
ENDBRANCH   1  16
TORSDOF 5
ENDMDL
MODEL 8
REMARK VINA RESULT:      -7.0      2.557      4.114
REMARK  Name = 
REMARK  6 active torsions:
REMARK  status: ('A' for Active; 'I' for Inactive)
REMARK    1  A    between atoms: C_1  and  C_2
REMARK    2  A    between atoms: C_6  and  C_7
REMARK    3  A    between atoms: C_7  and  N_8
REMARK    4  A    between atoms: N_8  and  S_9
REMARK    5  A    between atoms: S_9  and  C_12
REMARK    6  A    between atoms: C_20  and  C_22
REMARK                            x       y       z     vdW  Elec       q    Type
REMARK                         _______ _______ _______ _____ _____    ______ ____
ROOT
ATOM      1  C   UNL     1       2.143   6.302  19.873  0.00  0.00    +0.000 A 
ATOM      2  C   UNL     1       1.413   7.212  20.614  0.00  0.00    +0.000 A 
ATOM      3  C   UNL     1       1.280   8.472  19.966  0.00  0.00    +0.000 A 
ATOM      4  C   UNL     1       1.890   8.452  18.725  0.00  0.00    +0.000 A 
ATOM      5  S   UNL     1       2.641   6.971  18.378  0.00  0.00    +0.000 S 
ATOM      6  C   UNL     1       1.907   9.620  17.786  0.00  0.00    +0.000 C 
ATOM      7  C   UNL     1       0.794  10.591  18.213  0.00  0.00    +0.000 C 
ATOM      8  N   UNL     1       0.855  10.840  19.667  0.00  0.00    +0.000 N 
ATOM      9  C   UNL     1       1.279  12.015  20.290  0.00  0.00    +0.000 C 
ATOM     10  O   UNL     1       1.312  12.093  21.528  0.00  0.00    +0.000 OA
ATOM     11  C   UNL     1       0.549   9.672  20.505  0.00  0.00    +0.000 C 
ENDROOT
BRANCH   9  12
ATOM     12  C   UNL     1       1.677  13.219  19.391  0.00  0.00    +0.000 C 
ATOM     13  C   UNL     1       1.073  14.622  19.703  0.00  0.00    +0.000 C 
ATOM     14  C   UNL     1       2.443  15.242  19.392  0.00  0.00    +0.000 C 
ATOM     15  C   UNL     1       3.073  13.858  19.599  0.00  0.00    +0.000 C 
ENDBRANCH   9  12
BRANCH   1  16
ATOM     16  S   UNL     1       2.622   4.625  20.226  0.00  0.00    +0.000 S 
ATOM     17  O   UNL     1       1.907   3.758  19.324  0.00  0.00    +0.000 OA
ATOM     18  O   UNL     1       2.517   4.498  21.665  0.00  0.00    +0.000 OA
BRANCH  16  19
ATOM     19  N   UNL     1       4.250   4.504  19.802  0.00  0.00    +0.000 NA
ATOM     20  H   UNL     1       4.647   5.437  19.683  0.00  0.00    +0.000 HD
BRANCH  19  21
ATOM     21  C   UNL     1       4.555   3.586  18.699  0.00  0.00    +0.000 C 
BRANCH  21  27
ATOM     22  C   UNL     1       6.049   3.944  13.889  0.00  0.00    +0.000 C 
ATOM     23  C   UNL     1       6.128   4.423  15.310  0.00  0.00    +0.000 A 
ATOM     24  C   UNL     1       7.010   5.441  15.675  0.00  0.00    +0.000 A 
ATOM     25  C   UNL     1       7.089   5.868  17.003  0.00  0.00    +0.000 A 
ATOM     26  C   UNL     1       6.290   5.271  17.976  0.00  0.00    +0.000 A 
ATOM     27  C   UNL     1       5.396   4.247  17.635  0.00  0.00    +0.000 A 
ATOM     28  C   UNL     1       5.321   3.831  16.295  0.00  0.00    +0.000 A 
ENDBRANCH  21  27
ENDBRANCH  19  21
ENDBRANCH  16  19
ENDBRANCH   1  16
TORSDOF 5
ENDMDL
MODEL 9
REMARK VINA RESULT:      -7.0      3.662      8.562
REMARK  Name = 
REMARK  6 active torsions:
REMARK  status: ('A' for Active; 'I' for Inactive)
REMARK    1  A    between atoms: C_1  and  C_2
REMARK    2  A    between atoms: C_6  and  C_7
REMARK    3  A    between atoms: C_7  and  N_8
REMARK    4  A    between atoms: N_8  and  S_9
REMARK    5  A    between atoms: S_9  and  C_12
REMARK    6  A    between atoms: C_20  and  C_22
REMARK                            x       y       z     vdW  Elec       q    Type
REMARK                         _______ _______ _______ _____ _____    ______ ____
ROOT
ATOM      1  C   UNL     1       1.049   9.530  20.128  0.00  0.00    +0.000 A 
ATOM      2  C   UNL     1       1.533   9.401  18.840  0.00  0.00    +0.000 A 
ATOM      3  C   UNL     1       2.192   8.159  18.620  0.00  0.00    +0.000 A 
ATOM      4  C   UNL     1       2.145   7.370  19.755  0.00  0.00    +0.000 A 
ATOM      5  S   UNL     1       1.370   8.130  21.059  0.00  0.00    +0.000 S 
ATOM      6  C   UNL     1       2.731   5.994  19.839  0.00  0.00    +0.000 C 
ATOM      7  C   UNL     1       2.938   5.477  18.405  0.00  0.00    +0.000 C 
ATOM      8  N   UNL     1       3.617   6.495  17.581  0.00  0.00    +0.000 N 
ATOM      9  C   UNL     1       4.938   6.455  17.134  0.00  0.00    +0.000 C 
ATOM     10  O   UNL     1       5.405   7.391  16.467  0.00  0.00    +0.000 OA
ATOM     11  C   UNL     1       2.829   7.711  17.333  0.00  0.00    +0.000 C 
ENDROOT
BRANCH   9  12
ATOM     12  C   UNL     1       5.788   5.198  17.472  0.00  0.00    +0.000 C 
ATOM     13  C   UNL     1       6.964   4.808  16.525  0.00  0.00    +0.000 C 
ATOM     14  C   UNL     1       7.800   4.456  17.764  0.00  0.00    +0.000 C 
ATOM     15  C   UNL     1       6.838   5.307  18.606  0.00  0.00    +0.000 C 
ENDBRANCH   9  12
BRANCH   1  16
ATOM     16  S   UNL     1       0.189  10.869  20.924  0.00  0.00    +0.000 S 
ATOM     17  O   UNL     1       1.172  11.774  21.462  0.00  0.00    +0.000 OA
ATOM     18  O   UNL     1      -0.812  10.233  21.756  0.00  0.00    +0.000 OA
BRANCH  16  19
ATOM     19  N   UNL     1      -0.603  11.712  19.697  0.00  0.00    +0.000 NA
ATOM     20  H   UNL     1      -0.057  12.533  19.432  0.00  0.00    +0.000 HD
BRANCH  19  21
ATOM     21  C   UNL     1      -2.023  11.998  19.934  0.00  0.00    +0.000 C 
BRANCH  21  27
ATOM     22  C   UNL     1      -6.526  11.847  17.656  0.00  0.00    +0.000 C 
ATOM     23  C   UNL     1      -5.044  11.609  17.615  0.00  0.00    +0.000 A 
ATOM     24  C   UNL     1      -4.438  11.056  16.485  0.00  0.00    +0.000 A 
ATOM     25  C   UNL     1      -3.061  10.823  16.463  0.00  0.00    +0.000 A 
ATOM     26  C   UNL     1      -2.283  11.134  17.577  0.00  0.00    +0.000 A 
ATOM     27  C   UNL     1      -2.867  11.690  18.722  0.00  0.00    +0.000 A 
ATOM     28  C   UNL     1      -4.252  11.926  18.730  0.00  0.00    +0.000 A 
ENDBRANCH  21  27
ENDBRANCH  19  21
ENDBRANCH  16  19
ENDBRANCH   1  16
TORSDOF 5
ENDMDL
