MODEL 1
REMARK VINA RESULT:      -7.3      0.000      0.000
REMARK  Name = 
REMARK  7 active torsions:
REMARK  status: ('A' for Active; 'I' for Inactive)
REMARK    1  A    between atoms: C_1  and  O_2
REMARK    2  A    between atoms: O_2  and  C_3
REMARK    3  A    between atoms: C_6  and  C_7
REMARK    4  A    between atoms: C_8  and  C_9
REMARK    5  A    between atoms: C_9  and  C_11
REMARK    6  A    between atoms: C_12  and  O_13
REMARK    7  A    between atoms: O_13  and  C_14
REMARK                            x       y       z     vdW  Elec       q    Type
REMARK                         _______ _______ _______ _____ _____    ______ ____
ROOT
ATOM      1  C   UNL     1       3.174   4.157  17.337  0.00  0.00    +0.000 C 
ATOM      2  O   UNL     1       2.671   3.195  16.769  0.00  0.00    +0.000 OA
ENDROOT
BRANCH   1   3
ATOM      3  C   UNL     1       4.643   4.208  17.578  0.00  0.00    +0.000 A 
ATOM      4  C   UNL     1       5.194   4.114  18.875  0.00  0.00    +0.000 A 
ATOM      5  C   UNL     1       6.577   4.315  19.072  0.00  0.00    +0.000 A 
ATOM      6  C   UNL     1       7.434   4.584  18.009  0.00  0.00    +0.000 A 
ATOM      7  C   UNL     1       6.887   4.675  16.744  0.00  0.00    +0.000 A 
ATOM      8  O   UNL     1       7.720   4.970  15.664  0.00  0.00    +0.000 OA
ATOM      9  C   UNL     1       6.921   5.062  14.535  0.00  0.00    +0.000 A 
ATOM     10  O   UNL     1       7.375   5.264  13.418  0.00  0.00    +0.000 OA
ATOM     11  S   UNL     1       5.197   4.847  14.810  0.00  0.00    +0.000 S 
ATOM     12  C   UNL     1       5.516   4.511  16.518  0.00  0.00    +0.000 A 
BRANCH   4  13
ATOM     13  O   UNL     1       4.539   3.937  20.067  0.00  0.00    +0.000 OA
ATOM     14  C   UNL     1       4.049   2.639  20.374  0.00  0.00    +0.000 C 
ENDBRANCH   4  13
ENDBRANCH   1   3
BRANCH   1  16
ATOM     15  C   UNL     1       2.952   6.316  18.443  0.00  0.00    +0.000 C 
ATOM     16  C   UNL     1       2.338   5.280  17.851  0.00  0.00    +0.000 C 
BRANCH  15  20
ATOM     17  C   UNL     1       0.864   9.932  19.365  0.00  0.00    +0.000 A 
ATOM     18  C   UNL     1       1.347   9.714  18.070  0.00  0.00    +0.000 A 
ATOM     19  C   UNL     1       2.035   8.537  17.753  0.00  0.00    +0.000 A 
ATOM     20  C   UNL     1       2.260   7.573  18.735  0.00  0.00    +0.000 A 
ATOM     21  C   UNL     1       1.805   7.807  20.039  0.00  0.00    +0.000 A 
ATOM     22  C   UNL     1       1.111   8.981  20.353  0.00  0.00    +0.000 A 
BRANCH  17  24
ATOM     23  C   UNL     1      -0.511  11.240  20.775  0.00  0.00    +0.000 C 
ATOM     24  O   UNL     1       0.206  11.118  19.554  0.00  0.00    +0.000 OA
ENDBRANCH  17  24
ENDBRANCH  15  20
ENDBRANCH   1  16
TORSDOF 5
ENDMDL
MODEL 2
REMARK VINA RESULT:      -7.3      2.617      4.810
REMARK  Name = 
REMARK  7 active torsions:
REMARK  status: ('A' for Active; 'I' for Inactive)
REMARK    1  A    between atoms: C_1  and  O_2
REMARK    2  A    between atoms: O_2  and  C_3
REMARK    3  A    between atoms: C_6  and  C_7
REMARK    4  A    between atoms: C_8  and  C_9
REMARK    5  A    between atoms: C_9  and  C_11
REMARK    6  A    between atoms: C_12  and  O_13
REMARK    7  A    between atoms: O_13  and  C_14
REMARK                            x       y       z     vdW  Elec       q    Type
REMARK                         _______ _______ _______ _____ _____    ______ ____
ROOT
ATOM      1  C   UNL     1       2.489   6.990  18.684  0.00  0.00    +0.000 C 
ATOM      2  O   UNL     1       2.057   7.165  17.550  0.00  0.00    +0.000 OA
ENDROOT
BRANCH   1   3
ATOM      3  C   UNL     1       3.399   5.848  18.977  0.00  0.00    +0.000 A 
ATOM      4  C   UNL     1       4.646   5.699  18.331  0.00  0.00    +0.000 A 
ATOM      5  C   UNL     1       5.409   4.527  18.529  0.00  0.00    +0.000 A 
ATOM      6  C   UNL     1       4.975   3.508  19.373  0.00  0.00    +0.000 A 
ATOM      7  C   UNL     1       3.754   3.663  20.000  0.00  0.00    +0.000 A 
ATOM      8  O   UNL     1       3.283   2.644  20.830  0.00  0.00    +0.000 OA
ATOM      9  C   UNL     1       2.027   3.020  21.279  0.00  0.00    +0.000 A 
ATOM     10  O   UNL     1       1.379   2.348  22.067  0.00  0.00    +0.000 OA
ATOM     11  S   UNL     1       1.427   4.549  20.651  0.00  0.00    +0.000 S 
ATOM     12  C   UNL     1       2.960   4.797  19.802  0.00  0.00    +0.000 A 
BRANCH   4  13
ATOM     13  O   UNL     1       5.231   6.525  17.408  0.00  0.00    +0.000 OA
ATOM     14  C   UNL     1       5.239   6.109  16.048  0.00  0.00    +0.000 C 
ENDBRANCH   4  13
ENDBRANCH   1   3
BRANCH   1  16
ATOM     15  C   UNL     1       1.293   8.927  19.552  0.00  0.00    +0.000 C 
ATOM     16  C   UNL     1       2.084   7.875  19.814  0.00  0.00    +0.000 C 
BRANCH  15  20
ATOM     17  C   UNL     1      -0.723  11.068  22.656  0.00  0.00    +0.000 A 
ATOM     18  C   UNL     1      -0.163  11.762  21.577  0.00  0.00    +0.000 A 
ATOM     19  C   UNL     1       0.503  11.076  20.555  0.00  0.00    +0.000 A 
ATOM     20  C   UNL     1       0.628   9.688  20.611  0.00  0.00    +0.000 A 
ATOM     21  C   UNL     1       0.095   8.998  21.707  0.00  0.00    +0.000 A 
ATOM     22  C   UNL     1      -0.576   9.684  22.726  0.00  0.00    +0.000 A 
BRANCH  17  24
ATOM     23  C   UNL     1      -2.730  12.098  23.365  0.00  0.00    +0.000 C 
ATOM     24  O   UNL     1      -1.350  11.846  23.593  0.00  0.00    +0.000 OA
ENDBRANCH  17  24
ENDBRANCH  15  20
ENDBRANCH   1  16
TORSDOF 5
ENDMDL
MODEL 3
REMARK VINA RESULT:      -7.2      2.244      4.015
REMARK  Name = 
REMARK  7 active torsions:
REMARK  status: ('A' for Active; 'I' for Inactive)
REMARK    1  A    between atoms: C_1  and  O_2
REMARK    2  A    between atoms: O_2  and  C_3
REMARK    3  A    between atoms: C_6  and  C_7
REMARK    4  A    between atoms: C_8  and  C_9
REMARK    5  A    between atoms: C_9  and  C_11
REMARK    6  A    between atoms: C_12  and  O_13
REMARK    7  A    between atoms: O_13  and  C_14
REMARK                            x       y       z     vdW  Elec       q    Type
REMARK                         _______ _______ _______ _____ _____    ______ ____
ROOT
ATOM      1  C   UNL     1       3.725   6.596  17.708  0.00  0.00    +0.000 C 
ATOM      2  O   UNL     1       4.373   6.885  16.709  0.00  0.00    +0.000 OA
ENDROOT
BRANCH   1   3
ATOM      3  C   UNL     1       4.014   5.342  18.459  0.00  0.00    +0.000 A 
ATOM      4  C   UNL     1       5.289   5.072  19.005  0.00  0.00    +0.000 A 
ATOM      5  C   UNL     1       5.560   3.811  19.578  0.00  0.00    +0.000 A 
ATOM      6  C   UNL     1       4.588   2.817  19.647  0.00  0.00    +0.000 A 
ATOM      7  C   UNL     1       3.345   3.089  19.110  0.00  0.00    +0.000 A 
ATOM      8  O   UNL     1       2.361   2.100  19.141  0.00  0.00    +0.000 OA
ATOM      9  C   UNL     1       1.244   2.603  18.494  0.00  0.00    +0.000 A 
ATOM     10  O   UNL     1       0.196   1.981  18.402  0.00  0.00    +0.000 OA
ATOM     11  S   UNL     1       1.424   4.218  17.820  0.00  0.00    +0.000 S 
ATOM     12  C   UNL     1       3.052   4.317  18.508  0.00  0.00    +0.000 A 
BRANCH   4  13
ATOM     13  O   UNL     1       6.409   5.862  18.981  0.00  0.00    +0.000 OA
ATOM     14  C   UNL     1       7.477   5.481  18.123  0.00  0.00    +0.000 C 
ENDBRANCH   4  13
ENDBRANCH   1   3
BRANCH   1  16
ATOM     15  C   UNL     1       2.329   7.494  19.492  0.00  0.00    +0.000 C 
ATOM     16  C   UNL     1       2.598   7.452  18.177  0.00  0.00    +0.000 C 
BRANCH  15  20
ATOM     17  C   UNL     1      -0.232  10.494  21.140  0.00  0.00    +0.000 A 
ATOM     18  C   UNL     1       0.175   9.412  21.928  0.00  0.00    +0.000 A 
ATOM     19  C   UNL     1       1.011   8.420  21.403  0.00  0.00    +0.000 A 
ATOM     20  C   UNL     1       1.435   8.494  20.076  0.00  0.00    +0.000 A 
ATOM     21  C   UNL     1       1.000   9.560  19.278  0.00  0.00    +0.000 A 
ATOM     22  C   UNL     1       0.169  10.555  19.807  0.00  0.00    +0.000 A 
BRANCH  17  24
ATOM     23  C   UNL     1      -1.352  11.126  23.124  0.00  0.00    +0.000 C 
ATOM     24  O   UNL     1      -1.048  11.401  21.763  0.00  0.00    +0.000 OA
ENDBRANCH  17  24
ENDBRANCH  15  20
ENDBRANCH   1  16
TORSDOF 5
ENDMDL
MODEL 4
REMARK VINA RESULT:      -7.2      0.432      1.074
REMARK  Name = 
REMARK  7 active torsions:
REMARK  status: ('A' for Active; 'I' for Inactive)
REMARK    1  A    between atoms: C_1  and  O_2
REMARK    2  A    between atoms: O_2  and  C_3
REMARK    3  A    between atoms: C_6  and  C_7
REMARK    4  A    between atoms: C_8  and  C_9
REMARK    5  A    between atoms: C_9  and  C_11
REMARK    6  A    between atoms: C_12  and  O_13
REMARK    7  A    between atoms: O_13  and  C_14
REMARK                            x       y       z     vdW  Elec       q    Type
REMARK                         _______ _______ _______ _____ _____    ______ ____
ROOT
ATOM      1  C   UNL     1       3.228   4.266  17.309  0.00  0.00    +0.000 C 
ATOM      2  O   UNL     1       2.691   3.392  16.639  0.00  0.00    +0.000 OA
ENDROOT
BRANCH   1   3
ATOM      3  C   UNL     1       4.704   4.265  17.508  0.00  0.00    +0.000 A 
ATOM      4  C   UNL     1       5.288   4.156  18.790  0.00  0.00    +0.000 A 
ATOM      5  C   UNL     1       6.683   4.308  18.946  0.00  0.00    +0.000 A 
ATOM      6  C   UNL     1       7.518   4.542  17.858  0.00  0.00    +0.000 A 
ATOM      7  C   UNL     1       6.939   4.648  16.609  0.00  0.00    +0.000 A 
ATOM      8  O   UNL     1       7.750   4.910  15.504  0.00  0.00    +0.000 OA
ATOM      9  C   UNL     1       6.924   5.025  14.398  0.00  0.00    +0.000 A 
ATOM     10  O   UNL     1       7.353   5.207  13.268  0.00  0.00    +0.000 OA
ATOM     11  S   UNL     1       5.202   4.874  14.722  0.00  0.00    +0.000 S 
ATOM     12  C   UNL     1       5.557   4.533  16.422  0.00  0.00    +0.000 A 
BRANCH   4  13
ATOM     13  O   UNL     1       4.662   4.008  20.000  0.00  0.00    +0.000 OA
ATOM     14  C   UNL     1       4.082   2.746  20.302  0.00  0.00    +0.000 C 
ENDBRANCH   4  13
ENDBRANCH   1   3
BRANCH   1  16
ATOM     15  C   UNL     1       3.023   6.496  18.269  0.00  0.00    +0.000 C 
ATOM     16  C   UNL     1       2.428   5.327  17.988  0.00  0.00    +0.000 C 
BRANCH  15  20
ATOM     17  C   UNL     1       0.878  10.015  19.409  0.00  0.00    +0.000 A 
ATOM     18  C   UNL     1       1.083   8.989  20.338  0.00  0.00    +0.000 A 
ATOM     19  C   UNL     1       1.781   7.829  19.980  0.00  0.00    +0.000 A 
ATOM     20  C   UNL     1       2.266   7.679  18.681  0.00  0.00    +0.000 A 
ATOM     21  C   UNL     1       2.031   8.692  17.743  0.00  0.00    +0.000 A 
ATOM     22  C   UNL     1       1.340   9.855  18.104  0.00  0.00    +0.000 A 
BRANCH  17  24
ATOM     23  C   UNL     1       0.912  12.318  19.941  0.00  0.00    +0.000 C 
ATOM     24  O   UNL     1       0.184  11.099  19.876  0.00  0.00    +0.000 OA
ENDBRANCH  17  24
ENDBRANCH  15  20
ENDBRANCH   1  16
TORSDOF 5
ENDMDL
MODEL 5
REMARK VINA RESULT:      -7.1      2.289      4.611
REMARK  Name = 
REMARK  7 active torsions:
REMARK  status: ('A' for Active; 'I' for Inactive)
REMARK    1  A    between atoms: C_1  and  O_2
REMARK    2  A    between atoms: O_2  and  C_3
REMARK    3  A    between atoms: C_6  and  C_7
REMARK    4  A    between atoms: C_8  and  C_9
REMARK    5  A    between atoms: C_9  and  C_11
REMARK    6  A    between atoms: C_12  and  O_13
REMARK    7  A    between atoms: O_13  and  C_14
REMARK                            x       y       z     vdW  Elec       q    Type
REMARK                         _______ _______ _______ _____ _____    ______ ____
ROOT
ATOM      1  C   UNL     1       4.789   5.432  18.924  0.00  0.00    +0.000 C 
ATOM      2  O   UNL     1       5.980   5.315  19.184  0.00  0.00    +0.000 OA
ENDROOT
BRANCH   1   3
ATOM      3  C   UNL     1       3.977   4.240  18.549  0.00  0.00    +0.000 A 
ATOM      4  C   UNL     1       3.907   3.769  17.220  0.00  0.00    +0.000 A 
ATOM      5  C   UNL     1       3.011   2.730  16.885  0.00  0.00    +0.000 A 
ATOM      6  C   UNL     1       2.201   2.129  17.843  0.00  0.00    +0.000 A 
ATOM      7  C   UNL     1       2.275   2.596  19.140  0.00  0.00    +0.000 A 
ATOM      8  O   UNL     1       1.453   2.029  20.115  0.00  0.00    +0.000 OA
ATOM      9  C   UNL     1       1.680   2.712  21.300  0.00  0.00    +0.000 A 
ATOM     10  O   UNL     1       1.137   2.409  22.352  0.00  0.00    +0.000 OA
ATOM     11  S   UNL     1       2.825   4.043  21.198  0.00  0.00    +0.000 S 
ATOM     12  C   UNL     1       3.129   3.644  19.500  0.00  0.00    +0.000 A 
BRANCH   4  13
ATOM     13  O   UNL     1       4.546   4.256  16.109  0.00  0.00    +0.000 OA
ATOM     14  C   UNL     1       5.857   3.782  15.832  0.00  0.00    +0.000 C 
ENDBRANCH   4  13
ENDBRANCH   1   3
BRANCH   1  16
ATOM     15  C   UNL     1       2.815   6.828  18.617  0.00  0.00    +0.000 C 
ATOM     16  C   UNL     1       4.121   6.766  18.920  0.00  0.00    +0.000 C 
BRANCH  15  20
ATOM     17  C   UNL     1       0.417  10.290  19.357  0.00  0.00    +0.000 A 
ATOM     18  C   UNL     1       0.919  10.047  18.073  0.00  0.00    +0.000 A 
ATOM     19  C   UNL     1       1.708   8.920  17.815  0.00  0.00    +0.000 A 
ATOM     20  C   UNL     1       2.016   8.032  18.846  0.00  0.00    +0.000 A 
ATOM     21  C   UNL     1       1.541   8.294  20.137  0.00  0.00    +0.000 A 
ATOM     22  C   UNL     1       0.746   9.417  20.392  0.00  0.00    +0.000 A 
BRANCH  17  24
ATOM     23  C   UNL     1      -1.413  11.558  18.562  0.00  0.00    +0.000 C 
ATOM     24  O   UNL     1      -0.342  11.422  19.486  0.00  0.00    +0.000 OA
ENDBRANCH  17  24
ENDBRANCH  15  20
ENDBRANCH   1  16
TORSDOF 5
ENDMDL
MODEL 6
REMARK VINA RESULT:      -7.1      2.032      3.721
REMARK  Name = 
REMARK  7 active torsions:
REMARK  status: ('A' for Active; 'I' for Inactive)
REMARK    1  A    between atoms: C_1  and  O_2
REMARK    2  A    between atoms: O_2  and  C_3
REMARK    3  A    between atoms: C_6  and  C_7
REMARK    4  A    between atoms: C_8  and  C_9
REMARK    5  A    between atoms: C_9  and  C_11
REMARK    6  A    between atoms: C_12  and  O_13
REMARK    7  A    between atoms: O_13  and  C_14
REMARK                            x       y       z     vdW  Elec       q    Type
REMARK                         _______ _______ _______ _____ _____    ______ ____
ROOT
ATOM      1  C   UNL     1       4.712   7.060  16.409  0.00  0.00    +0.000 C 
ATOM      2  O   UNL     1       4.956   6.889  15.220  0.00  0.00    +0.000 OA
ENDROOT
BRANCH   1   3
ATOM      3  C   UNL     1       5.592   6.466  17.454  0.00  0.00    +0.000 A 
ATOM      4  C   UNL     1       6.885   6.967  17.718  0.00  0.00    +0.000 A 
ATOM      5  C   UNL     1       7.740   6.283  18.610  0.00  0.00    +0.000 A 
ATOM      6  C   UNL     1       7.333   5.126  19.267  0.00  0.00    +0.000 A 
ATOM      7  C   UNL     1       6.067   4.642  19.002  0.00  0.00    +0.000 A 
ATOM      8  O   UNL     1       5.645   3.468  19.626  0.00  0.00    +0.000 OA
ATOM      9  C   UNL     1       4.378   3.174  19.148  0.00  0.00    +0.000 A 
ATOM     10  O   UNL     1       3.723   2.223  19.549  0.00  0.00    +0.000 OA
ATOM     11  S   UNL     1       3.756   4.278  17.928  0.00  0.00    +0.000 S 
ATOM     12  C   UNL     1       5.206   5.278  18.101  0.00  0.00    +0.000 A 
BRANCH   4  13
ATOM     13  O   UNL     1       7.520   8.033  17.135  0.00  0.00    +0.000 OA
ATOM     14  C   UNL     1       8.168   8.971  17.985  0.00  0.00    +0.000 C 
ENDBRANCH   4  13
ENDBRANCH   1   3
BRANCH   1  16
ATOM     15  C   UNL     1       2.969   7.525  18.047  0.00  0.00    +0.000 C 
ATOM     16  C   UNL     1       3.507   7.819  16.853  0.00  0.00    +0.000 C 
BRANCH  15  20
ATOM     17  C   UNL     1       0.074  10.105  19.846  0.00  0.00    +0.000 A 
ATOM     18  C   UNL     1       0.724   9.136  20.619  0.00  0.00    +0.000 A 
ATOM     19  C   UNL     1       1.672   8.282  20.045  0.00  0.00    +0.000 A 
ATOM     20  C   UNL     1       1.967   8.379  18.685  0.00  0.00    +0.000 A 
ATOM     21  C   UNL     1       1.292   9.327  17.906  0.00  0.00    +0.000 A 
ATOM     22  C   UNL     1       0.349  10.186  18.483  0.00  0.00    +0.000 A 
BRANCH  17  24
ATOM     23  C   UNL     1      -1.467  11.896  19.751  0.00  0.00    +0.000 C 
ATOM     24  O   UNL     1      -0.831  10.883  20.519  0.00  0.00    +0.000 OA
ENDBRANCH  17  24
ENDBRANCH  15  20
ENDBRANCH   1  16
TORSDOF 5
ENDMDL
MODEL 7
REMARK VINA RESULT:      -7.1      2.356      4.572
REMARK  Name = 
REMARK  7 active torsions:
REMARK  status: ('A' for Active; 'I' for Inactive)
REMARK    1  A    between atoms: C_1  and  O_2
REMARK    2  A    between atoms: O_2  and  C_3
REMARK    3  A    between atoms: C_6  and  C_7
REMARK    4  A    between atoms: C_8  and  C_9
REMARK    5  A    between atoms: C_9  and  C_11
REMARK    6  A    between atoms: C_12  and  O_13
REMARK    7  A    between atoms: O_13  and  C_14
REMARK                            x       y       z     vdW  Elec       q    Type
REMARK                         _______ _______ _______ _____ _____    ______ ____
ROOT
ATOM      1  C   UNL     1       3.696   6.028  18.272  0.00  0.00    +0.000 C 
ATOM      2  O   UNL     1       4.788   6.568  18.146  0.00  0.00    +0.000 OA
ENDROOT
BRANCH   1   3
ATOM      3  C   UNL     1       3.586   4.543  18.299  0.00  0.00    +0.000 A 
ATOM      4  C   UNL     1       3.974   3.743  17.201  0.00  0.00    +0.000 A 
ATOM      5  C   UNL     1       3.715   2.355  17.213  0.00  0.00    +0.000 A 
ATOM      6  C   UNL     1       3.102   1.736  18.298  0.00  0.00    +0.000 A 
ATOM      7  C   UNL     1       2.726   2.526  19.366  0.00  0.00    +0.000 A 
ATOM      8  O   UNL     1       2.085   1.934  20.456  0.00  0.00    +0.000 OA
ATOM      9  C   UNL     1       1.765   2.944  21.349  0.00  0.00    +0.000 A 
ATOM     10  O   UNL     1       1.237   2.728  22.430  0.00  0.00    +0.000 OA
ATOM     11  S   UNL     1       2.190   4.571  20.835  0.00  0.00    +0.000 S 
ATOM     12  C   UNL     1       2.940   3.908  19.375  0.00  0.00    +0.000 A 
BRANCH   4  13
ATOM     13  O   UNL     1       4.514   4.141  16.007  0.00  0.00    +0.000 OA
ATOM     14  C   UNL     1       5.919   4.009  15.832  0.00  0.00    +0.000 C 
ENDBRANCH   4  13
ENDBRANCH   1   3
BRANCH   1  16
ATOM     15  C   UNL     1       2.361   7.812  19.260  0.00  0.00    +0.000 C 
ATOM     16  C   UNL     1       2.439   6.828  18.350  0.00  0.00    +0.000 C 
BRANCH  15  20
ATOM     17  C   UNL     1      -0.803  10.687  19.279  0.00  0.00    +0.000 A 
ATOM     18  C   UNL     1      -0.191  10.328  18.073  0.00  0.00    +0.000 A 
ATOM     19  C   UNL     1       0.848   9.391  18.050  0.00  0.00    +0.000 A 
ATOM     20  C   UNL     1       1.296   8.814  19.238  0.00  0.00    +0.000 A 
ATOM     21  C   UNL     1       0.705   9.199  20.449  0.00  0.00    +0.000 A 
ATOM     22  C   UNL     1      -0.339  10.131  20.470  0.00  0.00    +0.000 A 
BRANCH  17  24
ATOM     23  C   UNL     1      -1.974  12.472  20.294  0.00  0.00    +0.000 C 
ATOM     24  O   UNL     1      -1.808  11.611  19.176  0.00  0.00    +0.000 OA
ENDBRANCH  17  24
ENDBRANCH  15  20
ENDBRANCH   1  16
TORSDOF 5
ENDMDL
MODEL 8
REMARK VINA RESULT:      -7.1      2.256      4.714
REMARK  Name = 
REMARK  7 active torsions:
REMARK  status: ('A' for Active; 'I' for Inactive)
REMARK    1  A    between atoms: C_1  and  O_2
REMARK    2  A    between atoms: O_2  and  C_3
REMARK    3  A    between atoms: C_6  and  C_7
REMARK    4  A    between atoms: C_8  and  C_9
REMARK    5  A    between atoms: C_9  and  C_11
REMARK    6  A    between atoms: C_12  and  O_13
REMARK    7  A    between atoms: O_13  and  C_14
REMARK                            x       y       z     vdW  Elec       q    Type
REMARK                         _______ _______ _______ _____ _____    ______ ____
ROOT
ATOM      1  C   UNL     1       4.753   5.404  18.987  0.00  0.00    +0.000 C 
ATOM      2  O   UNL     1       5.937   5.284  19.278  0.00  0.00    +0.000 OA
ENDROOT
BRANCH   1   3
ATOM      3  C   UNL     1       3.945   4.211  18.608  0.00  0.00    +0.000 A 
ATOM      4  C   UNL     1       3.880   3.742  17.277  0.00  0.00    +0.000 A 
ATOM      5  C   UNL     1       2.987   2.702  16.938  0.00  0.00    +0.000 A 
ATOM      6  C   UNL     1       2.173   2.098  17.892  0.00  0.00    +0.000 A 
ATOM      7  C   UNL     1       2.243   2.564  19.190  0.00  0.00    +0.000 A 
ATOM      8  O   UNL     1       1.418   1.995  20.161  0.00  0.00    +0.000 OA
ATOM      9  C   UNL     1       1.639   2.675  21.347  0.00  0.00    +0.000 A 
ATOM     10  O   UNL     1       1.092   2.370  22.397  0.00  0.00    +0.000 OA
ATOM     11  S   UNL     1       2.783   4.008  21.252  0.00  0.00    +0.000 S 
ATOM     12  C   UNL     1       3.094   3.613  19.555  0.00  0.00    +0.000 A 
BRANCH   4  13
ATOM     13  O   UNL     1       4.522   4.231  16.170  0.00  0.00    +0.000 OA
ATOM     14  C   UNL     1       5.844   3.776  15.908  0.00  0.00    +0.000 C 
ENDBRANCH   4  13
ENDBRANCH   1   3
BRANCH   1  16
ATOM     15  C   UNL     1       2.765   6.795  18.771  0.00  0.00    +0.000 C 
ATOM     16  C   UNL     1       4.093   6.741  18.951  0.00  0.00    +0.000 C 
BRANCH  15  20
ATOM     17  C   UNL     1       0.581  10.428  19.329  0.00  0.00    +0.000 A 
ATOM     18  C   UNL     1       0.779   9.558  20.407  0.00  0.00    +0.000 A 
ATOM     19  C   UNL     1       1.489   8.363  20.241  0.00  0.00    +0.000 A 
ATOM     20  C   UNL     1       1.995   8.020  18.987  0.00  0.00    +0.000 A 
ATOM     21  C   UNL     1       1.768   8.876  17.901  0.00  0.00    +0.000 A 
ATOM     22  C   UNL     1       1.064  10.074  18.071  0.00  0.00    +0.000 A 
BRANCH  17  24
ATOM     23  C   UNL     1      -0.757  11.599  20.887  0.00  0.00    +0.000 C 
ATOM     24  O   UNL     1      -0.126  11.565  19.614  0.00  0.00    +0.000 OA
ENDBRANCH  17  24
ENDBRANCH  15  20
ENDBRANCH   1  16
TORSDOF 5
ENDMDL
MODEL 9
REMARK VINA RESULT:      -7.0      4.590      6.670
REMARK  Name = 
REMARK  7 active torsions:
REMARK  status: ('A' for Active; 'I' for Inactive)
REMARK    1  A    between atoms: C_1  and  O_2
REMARK    2  A    between atoms: O_2  and  C_3
REMARK    3  A    between atoms: C_6  and  C_7
REMARK    4  A    between atoms: C_8  and  C_9
REMARK    5  A    between atoms: C_9  and  C_11
REMARK    6  A    between atoms: C_12  and  O_13
REMARK    7  A    between atoms: O_13  and  C_14
REMARK                            x       y       z     vdW  Elec       q    Type
REMARK                         _______ _______ _______ _____ _____    ______ ____
ROOT
ATOM      1  C   UNL     1       7.550   5.881  17.909  0.00  0.00    +0.000 C 
ATOM      2  O   UNL     1       8.271   5.254  18.675  0.00  0.00    +0.000 OA
ENDROOT
BRANCH   1   3
ATOM      3  C   UNL     1       6.584   5.166  17.027  0.00  0.00    +0.000 A 
ATOM      4  C   UNL     1       6.770   5.077  15.630  0.00  0.00    +0.000 A 
ATOM      5  C   UNL     1       5.759   4.521  14.816  0.00  0.00    +0.000 A 
ATOM      6  C   UNL     1       4.575   4.029  15.359  0.00  0.00    +0.000 A 
ATOM      7  C   UNL     1       4.401   4.121  16.725  0.00  0.00    +0.000 A 
ATOM      8  O   UNL     1       3.212   3.660  17.291  0.00  0.00    +0.000 OA
ATOM      9  C   UNL     1       3.269   3.921  18.651  0.00  0.00    +0.000 A 
ATOM     10  O   UNL     1       2.387   3.585  19.427  0.00  0.00    +0.000 OA
ATOM     11  S   UNL     1       4.715   4.759  19.199  0.00  0.00    +0.000 S 
ATOM     12  C   UNL     1       5.370   4.693  17.557  0.00  0.00    +0.000 A 
BRANCH   4  13
ATOM     13  O   UNL     1       7.808   5.561  14.877  0.00  0.00    +0.000 OA
ATOM     14  C   UNL     1       7.821   5.262  13.486  0.00  0.00    +0.000 C 
ENDBRANCH   4  13
ENDBRANCH   1   3
BRANCH   1  16
ATOM     15  C   UNL     1       8.294   8.043  18.749  0.00  0.00    +0.000 C 
ATOM     16  C   UNL     1       7.644   7.365  17.791  0.00  0.00    +0.000 C 
BRANCH  15  20
ATOM     17  C   UNL     1       9.382  12.139  18.186  0.00  0.00    +0.000 A 
ATOM     18  C   UNL     1      10.016  11.376  19.173  0.00  0.00    +0.000 A 
ATOM     19  C   UNL     1       9.670  10.035  19.372  0.00  0.00    +0.000 A 
ATOM     20  C   UNL     1       8.672   9.448  18.594  0.00  0.00    +0.000 A 
ATOM     21  C   UNL     1       8.015  10.222  17.629  0.00  0.00    +0.000 A 
ATOM     22  C   UNL     1       8.367  11.561  17.426  0.00  0.00    +0.000 A 
BRANCH  17  24
ATOM     23  C   UNL     1      10.918  13.659  17.227  0.00  0.00    +0.000 C 
ATOM     24  O   UNL     1       9.807  13.437  18.084  0.00  0.00    +0.000 OA
ENDBRANCH  17  24
ENDBRANCH  15  20
ENDBRANCH   1  16
TORSDOF 5
ENDMDL
