MODEL 1
REMARK VINA RESULT:      -7.7      0.000      0.000
REMARK  Name = 
REMARK  7 active torsions:
REMARK  status: ('A' for Active; 'I' for Inactive)
REMARK    1  A    between atoms: C_1  and  N_2
REMARK    2  A    between atoms: N_2  and  C_3
REMARK    3  A    between atoms: C_10  and  C_11
REMARK    4  A    between atoms: C_14  and  O_15
REMARK    5  A    between atoms: O_15  and  C_16
REMARK    6  A    between atoms: C_16  and  C_17
REMARK    7  A    between atoms: C_17  and  N_18
REMARK                            x       y       z     vdW  Elec       q    Type
REMARK                         _______ _______ _______ _____ _____    ______ ____
ROOT
ATOM      1  C   UNL     1       7.832   7.907  18.109  0.00  0.00    +0.000 A 
ATOM      2  C   UNL     1       6.818   7.823  17.149  0.00  0.00    +0.000 A 
ATOM      3  C   UNL     1       6.182   6.613  16.875  0.00  0.00    +0.000 A 
ATOM      4  C   UNL     1       6.553   5.453  17.554  0.00  0.00    +0.000 A 
ATOM      5  C   UNL     1       7.583   5.520  18.497  0.00  0.00    +0.000 A 
ATOM      6  C   UNL     1       8.221   6.737  18.775  0.00  0.00    +0.000 A 
ENDROOT
BRANCH   1  14
ATOM      7  C   UNL     1       8.983  12.720  18.113  0.00  0.00    +0.000 A 
ATOM      8  C   UNL     1       9.955  13.383  18.901  0.00  0.00    +0.000 A 
ATOM      9 CL   UNL     1      10.211  15.088  18.747  0.00  0.00    +0.000 Cl
ATOM     10  C   UNL     1      10.695  12.687  19.860  0.00  0.00    +0.000 A 
ATOM     11  N   UNL     1      10.609  11.358  20.121  0.00  0.00    +0.000 NA
ATOM     12  C   UNL     1       9.708  10.760  19.331  0.00  0.00    +0.000 A 
ATOM     13  N   UNL     1       9.400   9.431  19.330  0.00  0.00    +0.000 N 
ATOM     14  C   UNL     1       8.440   9.211  18.377  0.00  0.00    +0.000 A 
ATOM     15  N   UNL     1       8.108  10.346  17.792  0.00  0.00    +0.000 NA
ATOM     16  C   UNL     1       8.897  11.327  18.353  0.00  0.00    +0.000 A 
ATOM     17  H   UNL     1       9.796   8.750  19.955  0.00  0.00    +0.000 HD
BRANCH   7  19
ATOM     18  C   UNL     1       7.013  14.050  17.566  0.00  0.00    +0.000 C 
ATOM     19  N   UNL     1       8.257  13.439  17.123  0.00  0.00    +0.000 N 
ATOM     20  H   UNL     1       8.871  14.110  16.661  0.00  0.00    +0.000 HD
ENDBRANCH   7  19
ENDBRANCH   1  14
BRANCH   4  21
ATOM     21  O   UNL     1       5.987   4.222  17.372  0.00  0.00    +0.000 OA
BRANCH  21  22
ATOM     22  C   UNL     1       4.588   4.215  17.055  0.00  0.00    +0.000 C 
BRANCH  22  23
ATOM     23  C   UNL     1       3.921   3.059  17.808  0.00  0.00    +0.000 C 
BRANCH  23  24
ATOM     24  N   UNL     1       3.162   3.366  19.018  0.00  0.00    +0.000 NA
ATOM     25  C   UNL     1       3.575   2.629  20.223  0.00  0.00    +0.000 C 
ATOM     26  C   UNL     1       2.476   2.796  21.282  0.00  0.00    +0.000 C 
ATOM     27  O   UNL     1       2.309   4.181  21.628  0.00  0.00    +0.000 OA
ATOM     28  C   UNL     1       1.990   4.958  20.461  0.00  0.00    +0.000 C 
ATOM     29  C   UNL     1       3.051   4.793  19.355  0.00  0.00    +0.000 C 
ENDBRANCH  23  24
ENDBRANCH  22  23
ENDBRANCH  21  22
ENDBRANCH   4  21
TORSDOF 6
ENDMDL
MODEL 2
REMARK VINA RESULT:      -7.7      0.922      1.312
REMARK  Name = 
REMARK  7 active torsions:
REMARK  status: ('A' for Active; 'I' for Inactive)
REMARK    1  A    between atoms: C_1  and  N_2
REMARK    2  A    between atoms: N_2  and  C_3
REMARK    3  A    between atoms: C_10  and  C_11
REMARK    4  A    between atoms: C_14  and  O_15
REMARK    5  A    between atoms: O_15  and  C_16
REMARK    6  A    between atoms: C_16  and  C_17
REMARK    7  A    between atoms: C_17  and  N_18
REMARK                            x       y       z     vdW  Elec       q    Type
REMARK                         _______ _______ _______ _____ _____    ______ ____
ROOT
ATOM      1  C   UNL     1       7.775   7.783  17.984  0.00  0.00    +0.000 A 
ATOM      2  C   UNL     1       8.203   6.660  18.699  0.00  0.00    +0.000 A 
ATOM      3  C   UNL     1       7.699   5.391  18.418  0.00  0.00    +0.000 A 
ATOM      4  C   UNL     1       6.745   5.217  17.416  0.00  0.00    +0.000 A 
ATOM      5  C   UNL     1       6.291   6.337  16.712  0.00  0.00    +0.000 A 
ATOM      6  C   UNL     1       6.800   7.613  16.992  0.00  0.00    +0.000 A 
ENDROOT
BRANCH   1  14
ATOM      7  C   UNL     1       8.917  12.597  18.105  0.00  0.00    +0.000 A 
ATOM      8  C   UNL     1       9.844  13.251  18.952  0.00  0.00    +0.000 A 
ATOM      9 CL   UNL     1      10.105  14.959  18.831  0.00  0.00    +0.000 Cl
ATOM     10  C   UNL     1      10.532  12.545  19.942  0.00  0.00    +0.000 A 
ATOM     11  N   UNL     1      10.435  11.213  20.183  0.00  0.00    +0.000 NA
ATOM     12  C   UNL     1       9.578  10.623  19.338  0.00  0.00    +0.000 A 
ATOM     13  N   UNL     1       9.273   9.295  19.306  0.00  0.00    +0.000 N 
ATOM     14  C   UNL     1       8.365   9.085  18.300  0.00  0.00    +0.000 A 
ATOM     15  N   UNL     1       8.064  10.226  17.711  0.00  0.00    +0.000 NA
ATOM     16  C   UNL     1       8.821  11.201  18.324  0.00  0.00    +0.000 A 
ATOM     17  H   UNL     1       9.635   8.607  19.942  0.00  0.00    +0.000 HD
BRANCH   7  19
ATOM     18  C   UNL     1       7.047  14.042  17.501  0.00  0.00    +0.000 C 
ATOM     19  N   UNL     1       8.245  13.326  17.086  0.00  0.00    +0.000 N 
ATOM     20  H   UNL     1       8.904  13.934  16.599  0.00  0.00    +0.000 HD
ENDBRANCH   7  19
ENDBRANCH   1  14
BRANCH   4  21
ATOM     21  O   UNL     1       6.197   4.019  17.053  0.00  0.00    +0.000 OA
BRANCH  21  22
ATOM     22  C   UNL     1       4.771   3.917  17.175  0.00  0.00    +0.000 C 
BRANCH  22  23
ATOM     23  C   UNL     1       4.418   3.741  18.655  0.00  0.00    +0.000 C 
BRANCH  23  24
ATOM     24  N   UNL     1       3.007   3.667  19.028  0.00  0.00    +0.000 NA
ATOM     25  C   UNL     1       2.380   2.347  18.855  0.00  0.00    +0.000 C 
ATOM     26  C   UNL     1       0.858   2.529  18.945  0.00  0.00    +0.000 C 
ATOM     27  O   UNL     1       0.483   3.048  20.232  0.00  0.00    +0.000 OA
ATOM     28  C   UNL     1       1.143   4.301  20.484  0.00  0.00    +0.000 C 
ATOM     29  C   UNL     1       2.676   4.172  20.369  0.00  0.00    +0.000 C 
ENDBRANCH  23  24
ENDBRANCH  22  23
ENDBRANCH  21  22
ENDBRANCH   4  21
TORSDOF 6
ENDMDL
MODEL 3
REMARK VINA RESULT:      -7.6      0.769      1.543
REMARK  Name = 
REMARK  7 active torsions:
REMARK  status: ('A' for Active; 'I' for Inactive)
REMARK    1  A    between atoms: C_1  and  N_2
REMARK    2  A    between atoms: N_2  and  C_3
REMARK    3  A    between atoms: C_10  and  C_11
REMARK    4  A    between atoms: C_14  and  O_15
REMARK    5  A    between atoms: O_15  and  C_16
REMARK    6  A    between atoms: C_16  and  C_17
REMARK    7  A    between atoms: C_17  and  N_18
REMARK                            x       y       z     vdW  Elec       q    Type
REMARK                         _______ _______ _______ _____ _____    ______ ____
ROOT
ATOM      1  C   UNL     1       7.938   8.039  18.159  0.00  0.00    +0.000 A 
ATOM      2  C   UNL     1       8.301   6.952  18.962  0.00  0.00    +0.000 A 
ATOM      3  C   UNL     1       7.794   5.677  18.720  0.00  0.00    +0.000 A 
ATOM      4  C   UNL     1       6.902   5.460  17.670  0.00  0.00    +0.000 A 
ATOM      5  C   UNL     1       6.513   6.544  16.877  0.00  0.00    +0.000 A 
ATOM      6  C   UNL     1       7.025   7.826  17.117  0.00  0.00    +0.000 A 
ENDROOT
BRANCH   1  14
ATOM      7  C   UNL     1       9.052  12.861  18.181  0.00  0.00    +0.000 A 
ATOM      8  C   UNL     1      10.001  13.532  18.989  0.00  0.00    +0.000 A 
ATOM      9 CL   UNL     1      10.247  15.239  18.838  0.00  0.00    +0.000 Cl
ATOM     10  C   UNL     1      10.725  12.843  19.966  0.00  0.00    +0.000 A 
ATOM     11  N   UNL     1      10.644  11.514  20.227  0.00  0.00    +0.000 NA
ATOM     12  C   UNL     1       9.764  10.908  19.418  0.00  0.00    +0.000 A 
ATOM     13  N   UNL     1       9.467   9.577  19.413  0.00  0.00    +0.000 N 
ATOM     14  C   UNL     1       8.530   9.348  18.439  0.00  0.00    +0.000 A 
ATOM     15  N   UNL     1       8.203  10.480  17.845  0.00  0.00    +0.000 NA
ATOM     16  C   UNL     1       8.972  11.468  18.421  0.00  0.00    +0.000 A 
ATOM     17  H   UNL     1       9.854   8.900  20.047  0.00  0.00    +0.000 HD
BRANCH   7  19
ATOM     18  C   UNL     1       7.060  14.130  17.574  0.00  0.00    +0.000 C 
ATOM     19  N   UNL     1       8.343  13.573  17.174  0.00  0.00    +0.000 N 
ATOM     20  H   UNL     1       8.950  14.275  16.751  0.00  0.00    +0.000 HD
ENDBRANCH   7  19
ENDBRANCH   1  14
BRANCH   4  21
ATOM     21  O   UNL     1       6.357   4.250  17.340  0.00  0.00    +0.000 OA
BRANCH  21  22
ATOM     22  C   UNL     1       5.211   4.291  16.479  0.00  0.00    +0.000 C 
BRANCH  22  23
ATOM     23  C   UNL     1       4.014   3.697  17.228  0.00  0.00    +0.000 C 
BRANCH  23  24
ATOM     24  N   UNL     1       3.509   4.406  18.401  0.00  0.00    +0.000 NA
ATOM     25  C   UNL     1       2.862   5.698  18.125  0.00  0.00    +0.000 C 
ATOM     26  C   UNL     1       2.720   6.451  19.456  0.00  0.00    +0.000 C 
ATOM     27  O   UNL     1       1.894   5.714  20.372  0.00  0.00    +0.000 OA
ATOM     28  C   UNL     1       2.443   4.405  20.605  0.00  0.00    +0.000 C 
ATOM     29  C   UNL     1       2.636   3.624  19.290  0.00  0.00    +0.000 C 
ENDBRANCH  23  24
ENDBRANCH  22  23
ENDBRANCH  21  22
ENDBRANCH   4  21
TORSDOF 6
ENDMDL
MODEL 4
REMARK VINA RESULT:      -7.5      0.863      1.004
REMARK  Name = 
REMARK  7 active torsions:
REMARK  status: ('A' for Active; 'I' for Inactive)
REMARK    1  A    between atoms: C_1  and  N_2
REMARK    2  A    between atoms: N_2  and  C_3
REMARK    3  A    between atoms: C_10  and  C_11
REMARK    4  A    between atoms: C_14  and  O_15
REMARK    5  A    between atoms: O_15  and  C_16
REMARK    6  A    between atoms: C_16  and  C_17
REMARK    7  A    between atoms: C_17  and  N_18
REMARK                            x       y       z     vdW  Elec       q    Type
REMARK                         _______ _______ _______ _____ _____    ______ ____
ROOT
ATOM      1  C   UNL     1       7.891   7.955  18.120  0.00  0.00    +0.000 A 
ATOM      2  C   UNL     1       6.949   7.846  17.092  0.00  0.00    +0.000 A 
ATOM      3  C   UNL     1       6.324   6.631  16.813  0.00  0.00    +0.000 A 
ATOM      4  C   UNL     1       6.636   5.492  17.554  0.00  0.00    +0.000 A 
ATOM      5  C   UNL     1       7.595   5.584  18.567  0.00  0.00    +0.000 A 
ATOM      6  C   UNL     1       8.221   6.806  18.851  0.00  0.00    +0.000 A 
ENDROOT
BRANCH   1  14
ATOM      7  C   UNL     1       9.003  12.777  18.129  0.00  0.00    +0.000 A 
ATOM      8  C   UNL     1       9.970  13.447  18.917  0.00  0.00    +0.000 A 
ATOM      9 CL   UNL     1      10.212  15.155  18.765  0.00  0.00    +0.000 Cl
ATOM     10  C   UNL     1      10.716  12.756  19.875  0.00  0.00    +0.000 A 
ATOM     11  N   UNL     1      10.641  11.427  20.135  0.00  0.00    +0.000 NA
ATOM     12  C   UNL     1       9.744  10.822  19.345  0.00  0.00    +0.000 A 
ATOM     13  N   UNL     1       9.447   9.491  19.343  0.00  0.00    +0.000 N 
ATOM     14  C   UNL     1       8.488   9.264  18.390  0.00  0.00    +0.000 A 
ATOM     15  N   UNL     1       8.147  10.397  17.806  0.00  0.00    +0.000 NA
ATOM     16  C   UNL     1       8.929  11.384  18.368  0.00  0.00    +0.000 A 
ATOM     17  H   UNL     1       9.849   8.813  19.966  0.00  0.00    +0.000 HD
BRANCH   7  19
ATOM     18  C   UNL     1       7.032  14.109  17.590  0.00  0.00    +0.000 C 
ATOM     19  N   UNL     1       8.271  13.492  17.141  0.00  0.00    +0.000 N 
ATOM     20  H   UNL     1       8.882  14.159  16.669  0.00  0.00    +0.000 HD
ENDBRANCH   7  19
ENDBRANCH   1  14
BRANCH   4  21
ATOM     21  O   UNL     1       6.074   4.259  17.371  0.00  0.00    +0.000 OA
BRANCH  21  22
ATOM     22  C   UNL     1       4.932   4.211  16.504  0.00  0.00    +0.000 C 
BRANCH  22  23
ATOM     23  C   UNL     1       3.694   4.633  17.302  0.00  0.00    +0.000 C 
BRANCH  23  24
ATOM     24  N   UNL     1       3.141   3.693  18.273  0.00  0.00    +0.000 NA
ATOM     25  C   UNL     1       3.448   3.990  19.681  0.00  0.00    +0.000 C 
ATOM     26  C   UNL     1       3.109   2.745  20.514  0.00  0.00    +0.000 C 
ATOM     27  O   UNL     1       1.711   2.427  20.408  0.00  0.00    +0.000 OA
ATOM     28  C   UNL     1       1.345   2.213  19.034  0.00  0.00    +0.000 C 
ATOM     29  C   UNL     1       1.700   3.427  18.152  0.00  0.00    +0.000 C 
ENDBRANCH  23  24
ENDBRANCH  22  23
ENDBRANCH  21  22
ENDBRANCH   4  21
TORSDOF 6
ENDMDL
MODEL 5
REMARK VINA RESULT:      -7.4      6.817      9.914
REMARK  Name = 
REMARK  7 active torsions:
REMARK  status: ('A' for Active; 'I' for Inactive)
REMARK    1  A    between atoms: C_1  and  N_2
REMARK    2  A    between atoms: N_2  and  C_3
REMARK    3  A    between atoms: C_10  and  C_11
REMARK    4  A    between atoms: C_14  and  O_15
REMARK    5  A    between atoms: O_15  and  C_16
REMARK    6  A    between atoms: C_16  and  C_17
REMARK    7  A    between atoms: C_17  and  N_18
REMARK                            x       y       z     vdW  Elec       q    Type
REMARK                         _______ _______ _______ _____ _____    ______ ____
ROOT
ATOM      1  C   UNL     1       1.633   8.266  19.785  0.00  0.00    +0.000 A 
ATOM      2  C   UNL     1       1.187   8.820  20.990  0.00  0.00    +0.000 A 
ATOM      3  C   UNL     1       0.795  10.155  21.069  0.00  0.00    +0.000 A 
ATOM      4  C   UNL     1       0.848  10.973  19.941  0.00  0.00    +0.000 A 
ATOM      5  C   UNL     1       1.316  10.437  18.737  0.00  0.00    +0.000 A 
ATOM      6  C   UNL     1       1.707   9.093  18.656  0.00  0.00    +0.000 A 
ENDROOT
BRANCH   1  14
ATOM      7  C   UNL     1       3.183   3.771  18.413  0.00  0.00    +0.000 A 
ATOM      8  C   UNL     1       3.275   2.602  19.206  0.00  0.00    +0.000 A 
ATOM      9 CL   UNL     1       3.842   1.112  18.529  0.00  0.00    +0.000 Cl
ATOM     10  C   UNL     1       2.962   2.633  20.567  0.00  0.00    +0.000 A 
ATOM     11  N   UNL     1       2.520   3.714  21.257  0.00  0.00    +0.000 NA
ATOM     12  C   UNL     1       2.410   4.790  20.466  0.00  0.00    +0.000 A 
ATOM     13  N   UNL     1       1.975   6.025  20.849  0.00  0.00    +0.000 N 
ATOM     14  C   UNL     1       1.999   6.849  19.754  0.00  0.00    +0.000 A 
ATOM     15  N   UNL     1       2.453   6.197  18.701  0.00  0.00    +0.000 NA
ATOM     16  C   UNL     1       2.698   4.904  19.110  0.00  0.00    +0.000 A 
ATOM     17  H   UNL     1       1.719   6.277  21.787  0.00  0.00    +0.000 HD
BRANCH   7  19
ATOM     18  C   UNL     1       4.761   4.282  16.624  0.00  0.00    +0.000 C 
ATOM     19  N   UNL     1       3.481   3.715  17.024  0.00  0.00    +0.000 N 
ATOM     20  H   UNL     1       3.361   2.762  16.679  0.00  0.00    +0.000 HD
ENDBRANCH   7  19
ENDBRANCH   1  14
BRANCH   4  21
ATOM     21  O   UNL     1       0.476  12.288  19.906  0.00  0.00    +0.000 OA
BRANCH  21  22
ATOM     22  C   UNL     1      -0.374  12.672  18.817  0.00  0.00    +0.000 C 
BRANCH  22  23
ATOM     23  C   UNL     1      -1.748  12.025  19.016  0.00  0.00    +0.000 C 
BRANCH  23  24
ATOM     24  N   UNL     1      -2.573  11.770  17.837  0.00  0.00    +0.000 NA
ATOM     25  C   UNL     1      -2.084  10.705  16.947  0.00  0.00    +0.000 C 
ATOM     26  C   UNL     1      -2.845  10.813  15.617  0.00  0.00    +0.000 C 
ATOM     27  O   UNL     1      -4.255  10.626  15.821  0.00  0.00    +0.000 OA
ATOM     28  C   UNL     1      -4.763  11.593  16.757  0.00  0.00    +0.000 C 
ATOM     29  C   UNL     1      -4.003  11.545  18.097  0.00  0.00    +0.000 C 
ENDBRANCH  23  24
ENDBRANCH  22  23
ENDBRANCH  21  22
ENDBRANCH   4  21
TORSDOF 6
ENDMDL
MODEL 6
REMARK VINA RESULT:      -7.4      1.301      1.893
REMARK  Name = 
REMARK  7 active torsions:
REMARK  status: ('A' for Active; 'I' for Inactive)
REMARK    1  A    between atoms: C_1  and  N_2
REMARK    2  A    between atoms: N_2  and  C_3
REMARK    3  A    between atoms: C_10  and  C_11
REMARK    4  A    between atoms: C_14  and  O_15
REMARK    5  A    between atoms: O_15  and  C_16
REMARK    6  A    between atoms: C_16  and  C_17
REMARK    7  A    between atoms: C_17  and  N_18
REMARK                            x       y       z     vdW  Elec       q    Type
REMARK                         _______ _______ _______ _____ _____    ______ ____
ROOT
ATOM      1  C   UNL     1       8.191   8.325  18.361  0.00  0.00    +0.000 A 
ATOM      2  C   UNL     1       8.461   7.190  19.134  0.00  0.00    +0.000 A 
ATOM      3  C   UNL     1       7.922   5.948  18.804  0.00  0.00    +0.000 A 
ATOM      4  C   UNL     1       7.091   5.813  17.691  0.00  0.00    +0.000 A 
ATOM      5  C   UNL     1       6.795   6.945  16.926  0.00  0.00    +0.000 A 
ATOM      6  C   UNL     1       7.338   8.194  17.256  0.00  0.00    +0.000 A 
ENDROOT
BRANCH   1  14
ATOM      7  C   UNL     1      10.096  12.892  18.333  0.00  0.00    +0.000 A 
ATOM      8  C   UNL     1      10.621  13.624  19.425  0.00  0.00    +0.000 A 
ATOM      9 CL   UNL     1      11.252  15.221  19.204  0.00  0.00    +0.000 Cl
ATOM     10  C   UNL     1      10.595  13.096  20.719  0.00  0.00    +0.000 A 
ATOM     11  N   UNL     1      10.125  11.873  21.071  0.00  0.00    +0.000 NA
ATOM     12  C   UNL     1       9.672  11.197  20.006  0.00  0.00    +0.000 A 
ATOM     13  N   UNL     1       9.154   9.936  20.020  0.00  0.00    +0.000 N 
ATOM     14  C   UNL     1       8.813   9.595  18.736  0.00  0.00    +0.000 A 
ATOM     15  N   UNL     1       9.068  10.596  17.915  0.00  0.00    +0.000 NA
ATOM     16  C   UNL     1       9.624  11.602  18.676  0.00  0.00    +0.000 A 
ATOM     17  H   UNL     1       9.022   9.379  20.846  0.00  0.00    +0.000 HD
BRANCH   7  19
ATOM     18  C   UNL     1      11.438  13.326  16.343  0.00  0.00    +0.000 C 
ATOM     19  N   UNL     1      10.154  13.434  17.019  0.00  0.00    +0.000 N 
ATOM     20  H   UNL     1       9.391  13.059  16.454  0.00  0.00    +0.000 HD
ENDBRANCH   7  19
ENDBRANCH   1  14
BRANCH   4  21
ATOM     21  O   UNL     1       6.523   4.642  17.273  0.00  0.00    +0.000 OA
BRANCH  21  22
ATOM     22  C   UNL     1       5.111   4.514  17.494  0.00  0.00    +0.000 C 
BRANCH  22  23
ATOM     23  C   UNL     1       4.874   4.197  18.974  0.00  0.00    +0.000 C 
BRANCH  23  24
ATOM     24  N   UNL     1       3.554   3.718  19.378  0.00  0.00    +0.000 NA
ATOM     25  C   UNL     1       2.573   4.769  19.690  0.00  0.00    +0.000 C 
ATOM     26  C   UNL     1       1.392   4.114  20.422  0.00  0.00    +0.000 C 
ATOM     27  O   UNL     1       0.759   3.130  19.588  0.00  0.00    +0.000 OA
ATOM     28  C   UNL     1       1.705   2.125  19.184  0.00  0.00    +0.000 C 
ATOM     29  C   UNL     1       2.927   2.743  18.474  0.00  0.00    +0.000 C 
ENDBRANCH  23  24
ENDBRANCH  22  23
ENDBRANCH  21  22
ENDBRANCH   4  21
TORSDOF 6
ENDMDL
MODEL 7
REMARK VINA RESULT:      -7.4      0.772      1.356
REMARK  Name = 
REMARK  7 active torsions:
REMARK  status: ('A' for Active; 'I' for Inactive)
REMARK    1  A    between atoms: C_1  and  N_2
REMARK    2  A    between atoms: N_2  and  C_3
REMARK    3  A    between atoms: C_10  and  C_11
REMARK    4  A    between atoms: C_14  and  O_15
REMARK    5  A    between atoms: O_15  and  C_16
REMARK    6  A    between atoms: C_16  and  C_17
REMARK    7  A    between atoms: C_17  and  N_18
REMARK                            x       y       z     vdW  Elec       q    Type
REMARK                         _______ _______ _______ _____ _____    ______ ____
ROOT
ATOM      1  C   UNL     1       7.741   7.903  18.029  0.00  0.00    +0.000 A 
ATOM      2  C   UNL     1       8.166   6.775  18.739  0.00  0.00    +0.000 A 
ATOM      3  C   UNL     1       7.623   5.517  18.485  0.00  0.00    +0.000 A 
ATOM      4  C   UNL     1       6.631   5.359  17.517  0.00  0.00    +0.000 A 
ATOM      5  C   UNL     1       6.181   6.484  16.819  0.00  0.00    +0.000 A 
ATOM      6  C   UNL     1       6.729   7.750  17.071  0.00  0.00    +0.000 A 
ENDROOT
BRANCH   1  14
ATOM      7  C   UNL     1       8.977  12.695  18.099  0.00  0.00    +0.000 A 
ATOM      8  C   UNL     1       9.962  13.329  18.893  0.00  0.00    +0.000 A 
ATOM      9 CL   UNL     1      10.248  15.032  18.763  0.00  0.00    +0.000 Cl
ATOM     10  C   UNL     1      10.692  12.606  19.840  0.00  0.00    +0.000 A 
ATOM     11  N   UNL     1      10.584  11.276  20.083  0.00  0.00    +0.000 NA
ATOM     12  C   UNL     1       9.670  10.705  19.287  0.00  0.00    +0.000 A 
ATOM     13  N   UNL     1       9.339   9.382  19.268  0.00  0.00    +0.000 N 
ATOM     14  C   UNL     1       8.372   9.193  18.315  0.00  0.00    +0.000 A 
ATOM     15  N   UNL     1       8.059  10.342  17.747  0.00  0.00    +0.000 NA
ATOM     16  C   UNL     1       8.867  11.300  18.319  0.00  0.00    +0.000 A 
ATOM     17  H   UNL     1       9.724   8.685  19.881  0.00  0.00    +0.000 HD
BRANCH   7  19
ATOM     18  C   UNL     1       7.031  14.070  17.577  0.00  0.00    +0.000 C 
ATOM     19  N   UNL     1       8.262  13.440  17.122  0.00  0.00    +0.000 N 
ATOM     20  H   UNL     1       8.886  14.106  16.666  0.00  0.00    +0.000 HD
ENDBRANCH   7  19
ENDBRANCH   1  14
BRANCH   4  21
ATOM     21  O   UNL     1       6.043   4.171  17.182  0.00  0.00    +0.000 OA
BRANCH  21  22
ATOM     22  C   UNL     1       4.609   4.172  17.134  0.00  0.00    +0.000 C 
BRANCH  22  23
ATOM     23  C   UNL     1       4.076   4.761  18.444  0.00  0.00    +0.000 C 
BRANCH  23  24
ATOM     24  N   UNL     1       3.223   3.924  19.284  0.00  0.00    +0.000 NA
ATOM     25  C   UNL     1       2.648   4.594  20.461  0.00  0.00    +0.000 C 
ATOM     26  C   UNL     1       2.094   3.513  21.400  0.00  0.00    +0.000 C 
ATOM     27  O   UNL     1       1.056   2.759  20.751  0.00  0.00    +0.000 OA
ATOM     28  C   UNL     1       1.551   2.154  19.543  0.00  0.00    +0.000 C 
ATOM     29  C   UNL     1       2.151   3.202  18.584  0.00  0.00    +0.000 C 
ENDBRANCH  23  24
ENDBRANCH  22  23
ENDBRANCH  21  22
ENDBRANCH   4  21
TORSDOF 6
ENDMDL
MODEL 8
REMARK VINA RESULT:      -7.3      5.954      7.387
REMARK  Name = 
REMARK  7 active torsions:
REMARK  status: ('A' for Active; 'I' for Inactive)
REMARK    1  A    between atoms: C_1  and  N_2
REMARK    2  A    between atoms: N_2  and  C_3
REMARK    3  A    between atoms: C_10  and  C_11
REMARK    4  A    between atoms: C_14  and  O_15
REMARK    5  A    between atoms: O_15  and  C_16
REMARK    6  A    between atoms: C_16  and  C_17
REMARK    7  A    between atoms: C_17  and  N_18
REMARK                            x       y       z     vdW  Elec       q    Type
REMARK                         _______ _______ _______ _____ _____    ______ ____
ROOT
ATOM      1  C   UNL     1       2.053   8.249  18.777  0.00  0.00    +0.000 A 
ATOM      2  C   UNL     1       2.186   7.223  19.720  0.00  0.00    +0.000 A 
ATOM      3  C   UNL     1       3.095   6.184  19.530  0.00  0.00    +0.000 A 
ATOM      4  C   UNL     1       3.889   6.141  18.384  0.00  0.00    +0.000 A 
ATOM      5  C   UNL     1       3.745   7.148  17.424  0.00  0.00    +0.000 A 
ATOM      6  C   UNL     1       2.834   8.195  17.615  0.00  0.00    +0.000 A 
ENDROOT
BRANCH   1  14
ATOM      7  C   UNL     1      -0.665  11.779  20.932  0.00  0.00    +0.000 A 
ATOM      8  C   UNL     1      -1.604  12.648  20.326  0.00  0.00    +0.000 A 
ATOM      9 CL   UNL     1      -2.463  13.821  21.265  0.00  0.00    +0.000 Cl
ATOM     10  C   UNL     1      -1.822  12.616  18.947  0.00  0.00    +0.000 A 
ATOM     11  N   UNL     1      -1.225  11.774  18.066  0.00  0.00    +0.000 NA
ATOM     12  C   UNL     1      -0.372  10.943  18.681  0.00  0.00    +0.000 A 
ATOM     13  N   UNL     1       0.369   9.968  18.082  0.00  0.00    +0.000 N 
ATOM     14  C   UNL     1       1.107   9.333  19.047  0.00  0.00    +0.000 A 
ATOM     15  N   UNL     1       0.884   9.880  20.227  0.00  0.00    +0.000 NA
ATOM     16  C   UNL     1      -0.050  10.875  20.033  0.00  0.00    +0.000 A 
ATOM     17  H   UNL     1       0.384   9.785  17.094  0.00  0.00    +0.000 HD
BRANCH   7  19
ATOM     18  C   UNL     1      -1.169  10.776  23.098  0.00  0.00    +0.000 C 
ATOM     19  N   UNL     1      -0.474  11.807  22.342  0.00  0.00    +0.000 N 
ATOM     20  H   UNL     1       0.522  11.835  22.558  0.00  0.00    +0.000 HD
ENDBRANCH   7  19
ENDBRANCH   1  14
BRANCH   4  21
ATOM     21  O   UNL     1       4.817   5.177  18.107  0.00  0.00    +0.000 OA
BRANCH  21  22
ATOM     22  C   UNL     1       4.491   4.280  17.036  0.00  0.00    +0.000 C 
BRANCH  22  23
ATOM     23  C   UNL     1       4.000   2.959  17.637  0.00  0.00    +0.000 C 
BRANCH  23  24
ATOM     24  N   UNL     1       3.112   3.011  18.796  0.00  0.00    +0.000 NA
ATOM     25  C   UNL     1       1.752   2.499  18.569  0.00  0.00    +0.000 C 
ATOM     26  C   UNL     1       0.873   2.948  19.746  0.00  0.00    +0.000 C 
ATOM     27  O   UNL     1       1.364   2.407  20.983  0.00  0.00    +0.000 OA
ATOM     28  C   UNL     1       2.727   2.811  21.206  0.00  0.00    +0.000 C 
ATOM     29  C   UNL     1       3.641   2.410  20.030  0.00  0.00    +0.000 C 
ENDBRANCH  23  24
ENDBRANCH  22  23
ENDBRANCH  21  22
ENDBRANCH   4  21
TORSDOF 6
ENDMDL
MODEL 9
REMARK VINA RESULT:      -7.3      6.193      7.592
REMARK  Name = 
REMARK  7 active torsions:
REMARK  status: ('A' for Active; 'I' for Inactive)
REMARK    1  A    between atoms: C_1  and  N_2
REMARK    2  A    between atoms: N_2  and  C_3
REMARK    3  A    between atoms: C_10  and  C_11
REMARK    4  A    between atoms: C_14  and  O_15
REMARK    5  A    between atoms: O_15  and  C_16
REMARK    6  A    between atoms: C_16  and  C_17
REMARK    7  A    between atoms: C_17  and  N_18
REMARK                            x       y       z     vdW  Elec       q    Type
REMARK                         _______ _______ _______ _____ _____    ______ ____
ROOT
ATOM      1  C   UNL     1       1.777   8.480  19.363  0.00  0.00    +0.000 A 
ATOM      2  C   UNL     1       2.083   7.315  20.074  0.00  0.00    +0.000 A 
ATOM      3  C   UNL     1       2.928   6.344  19.540  0.00  0.00    +0.000 A 
ATOM      4  C   UNL     1       3.483   6.514  18.271  0.00  0.00    +0.000 A 
ATOM      5  C   UNL     1       3.164   7.663  17.541  0.00  0.00    +0.000 A 
ATOM      6  C   UNL     1       2.317   8.641  18.079  0.00  0.00    +0.000 A 
ENDROOT
BRANCH   1  14
ATOM      7  C   UNL     1      -1.610  11.982  20.229  0.00  0.00    +0.000 A 
ATOM      8  C   UNL     1      -1.951  12.578  21.467  0.00  0.00    +0.000 A 
ATOM      9 CL   UNL     1      -3.172  13.802  21.558  0.00  0.00    +0.000 Cl
ATOM     10  C   UNL     1      -1.347  12.156  22.654  0.00  0.00    +0.000 A 
ATOM     11  N   UNL     1      -0.388  11.203  22.765  0.00  0.00    +0.000 NA
ATOM     12  C   UNL     1      -0.067  10.689  21.569  0.00  0.00    +0.000 A 
ATOM     13  N   UNL     1       0.873   9.729  21.337  0.00  0.00    +0.000 N 
ATOM     14  C   UNL     1       0.911   9.480  19.989  0.00  0.00    +0.000 A 
ATOM     15  N   UNL     1       0.020  10.223  19.362  0.00  0.00    +0.000 NA
ATOM     16  C   UNL     1      -0.592  11.003  20.320  0.00  0.00    +0.000 A 
ATOM     17  H   UNL     1       1.411   9.269  22.050  0.00  0.00    +0.000 HD
BRANCH   7  19
ATOM     18  C   UNL     1      -3.230  11.571  18.452  0.00  0.00    +0.000 C 
ATOM     19  N   UNL     1      -2.216  12.442  19.027  0.00  0.00    +0.000 N 
ATOM     20  H   UNL     1      -2.556  13.396  19.150  0.00  0.00    +0.000 HD
ENDBRANCH   7  19
ENDBRANCH   1  14
BRANCH   4  21
ATOM     21  O   UNL     1       4.332   5.633  17.661  0.00  0.00    +0.000 OA
BRANCH  21  22
ATOM     22  C   UNL     1       3.712   4.524  16.994  0.00  0.00    +0.000 C 
BRANCH  22  23
ATOM     23  C   UNL     1       3.821   3.289  17.893  0.00  0.00    +0.000 C 
BRANCH  23  24
ATOM     24  N   UNL     1       2.988   3.227  19.092  0.00  0.00    +0.000 NA
ATOM     25  C   UNL     1       1.605   2.776  18.874  0.00  0.00    +0.000 C 
ATOM     26  C   UNL     1       0.793   3.106  20.135  0.00  0.00    +0.000 C 
ATOM     27  O   UNL     1       1.325   2.416  21.278  0.00  0.00    +0.000 OA
ATOM     28  C   UNL     1       2.707   2.761  21.479  0.00  0.00    +0.000 C 
ATOM     29  C   UNL     1       3.555   2.477  20.223  0.00  0.00    +0.000 C 
ENDBRANCH  23  24
ENDBRANCH  22  23
ENDBRANCH  21  22
ENDBRANCH   4  21
TORSDOF 6
ENDMDL
