MODEL 1
REMARK VINA RESULT:      -9.2      0.000      0.000
REMARK  Name = 
REMARK  5 active torsions:
REMARK  status: ('A' for Active; 'I' for Inactive)
REMARK    1  A    between atoms: C_1  and  C_2
REMARK    2  A    between atoms: C_5  and  N_6
REMARK    3  A    between atoms: N_9  and  C_10
REMARK    4  A    between atoms: C_13  and  C_14
REMARK    5  A    between atoms: C_27  and  C_28
REMARK                            x       y       z     vdW  Elec       q    Type
REMARK                         _______ _______ _______ _____ _____    ______ ____
ROOT
ATOM      1  C   UNL     1       1.506   9.482  19.410  0.00  0.00    +0.000 A 
ATOM      2  C   UNL     1       1.902   9.435  18.068  0.00  0.00    +0.000 A 
ATOM      3  C   UNL     1       2.502   8.283  17.532  0.00  0.00    +0.000 A 
ATOM      4  C   UNL     1       2.729   7.143  18.318  0.00  0.00    +0.000 A 
ATOM      5  C   UNL     1       2.317   7.212  19.663  0.00  0.00    +0.000 A 
ATOM      6  C   UNL     1       1.728   8.365  20.207  0.00  0.00    +0.000 A 
ENDROOT
BRANCH   4   7
ATOM      7  C   UNL     1       3.493   5.974  17.815  0.00  0.00    +0.000 A 
ATOM      8  C   UNL     1       2.900   4.691  17.756  0.00  0.00    +0.000 A 
ATOM      9  C   UNL     1       3.510   3.603  17.095  0.00  0.00    +0.000 A 
ATOM     10  C   UNL     1       4.705   3.771  16.423  0.00  0.00    +0.000 A 
ATOM     11  C   UNL     1       5.312   5.010  16.538  0.00  0.00    +0.000 A 
ATOM     12  C   UNL     1       4.776   6.058  17.281  0.00  0.00    +0.000 A 
ATOM     13  C   UNL     1       5.821   7.120  17.408  0.00  0.00    +0.000 C 
ATOM     14  N   UNL     1       6.974   6.548  16.740  0.00  0.00    +0.000 N 
ATOM     15  C   UNL     1       6.635   5.395  16.060  0.00  0.00    +0.000 C 
ATOM     16  O   UNL     1       7.320   4.776  15.272  0.00  0.00    +0.000 OA
ATOM     17  H   UNL     1       7.831   6.426  17.267  0.00  0.00    +0.000 HD
ENDBRANCH   4   7
BRANCH   1  21
ATOM     18  N   UNL     1      -0.831  11.985  20.636  0.00  0.00    +0.000 N 
ATOM     19  C   UNL     1      -0.466  10.768  20.078  0.00  0.00    +0.000 C 
ATOM     20  O   UNL     1      -1.259   9.893  19.731  0.00  0.00    +0.000 OA
ATOM     21  N   UNL     1       0.912  10.625  19.981  0.00  0.00    +0.000 N 
ATOM     22  H   UNL     1      -0.210  12.754  20.428  0.00  0.00    +0.000 HD
ATOM     23  H   UNL     1       1.429  11.100  20.711  0.00  0.00    +0.000 HD
BRANCH  18  28
ATOM     24  C   UNL     1      -6.109  13.425  22.410  0.00  0.00    +0.000 C 
ATOM     25  C   UNL     1      -4.735  12.992  21.972  0.00  0.00    +0.000 A 
ATOM     26  C   UNL     1      -4.424  13.009  20.610  0.00  0.00    +0.000 A 
ATOM     27  C   UNL     1      -3.148  12.664  20.164  0.00  0.00    +0.000 A 
ATOM     28  C   UNL     1      -2.143  12.302  21.064  0.00  0.00    +0.000 A 
ATOM     29  C   UNL     1      -2.463  12.229  22.427  0.00  0.00    +0.000 A 
ATOM     30  C   UNL     1      -3.750  12.581  22.894  0.00  0.00    +0.000 A 
ATOM     31  C   UNL     1      -4.052  12.538  24.368  0.00  0.00    +0.000 C 
ENDBRANCH  18  28
ENDBRANCH   1  21
TORSDOF 3
ENDMDL
MODEL 2
REMARK VINA RESULT:      -9.1      1.750      2.356
REMARK  Name = 
REMARK  5 active torsions:
REMARK  status: ('A' for Active; 'I' for Inactive)
REMARK    1  A    between atoms: C_1  and  C_2
REMARK    2  A    between atoms: C_5  and  N_6
REMARK    3  A    between atoms: N_9  and  C_10
REMARK    4  A    between atoms: C_13  and  C_14
REMARK    5  A    between atoms: C_27  and  C_28
REMARK                            x       y       z     vdW  Elec       q    Type
REMARK                         _______ _______ _______ _____ _____    ______ ____
ROOT
ATOM      1  C   UNL     1       1.410   9.379  19.750  0.00  0.00    +0.000 A 
ATOM      2  C   UNL     1       1.699   9.425  18.381  0.00  0.00    +0.000 A 
ATOM      3  C   UNL     1       2.239   8.309  17.720  0.00  0.00    +0.000 A 
ATOM      4  C   UNL     1       2.510   7.113  18.402  0.00  0.00    +0.000 A 
ATOM      5  C   UNL     1       2.206   7.089  19.777  0.00  0.00    +0.000 A 
ATOM      6  C   UNL     1       1.677   8.205  20.446  0.00  0.00    +0.000 A 
ENDROOT
BRANCH   4   7
ATOM      7  C   UNL     1       3.217   5.977  17.759  0.00  0.00    +0.000 A 
ATOM      8  C   UNL     1       4.382   6.192  16.986  0.00  0.00    +0.000 A 
ATOM      9  C   UNL     1       5.200   5.134  16.537  0.00  0.00    +0.000 A 
ATOM     10  C   UNL     1       4.916   3.829  16.889  0.00  0.00    +0.000 A 
ATOM     11  C   UNL     1       3.741   3.618  17.591  0.00  0.00    +0.000 A 
ATOM     12  C   UNL     1       2.867   4.642  17.944  0.00  0.00    +0.000 A 
ATOM     13  C   UNL     1       1.597   4.022  18.430  0.00  0.00    +0.000 C 
ATOM     14  N   UNL     1       1.821   2.600  18.256  0.00  0.00    +0.000 N 
ATOM     15  C   UNL     1       3.141   2.338  17.946  0.00  0.00    +0.000 C 
ATOM     16  O   UNL     1       3.687   1.255  17.905  0.00  0.00    +0.000 OA
ATOM     17  H   UNL     1       1.191   2.078  17.658  0.00  0.00    +0.000 HD
ENDBRANCH   4   7
BRANCH   1  21
ATOM     18  N   UNL     1      -0.772  11.938  21.136  0.00  0.00    +0.000 N 
ATOM     19  C   UNL     1      -0.477  10.790  20.415  0.00  0.00    +0.000 C 
ATOM     20  O   UNL     1      -1.310  10.095  19.833  0.00  0.00    +0.000 OA
ATOM     21  N   UNL     1       0.878  10.483  20.446  0.00  0.00    +0.000 N 
ATOM     22  H   UNL     1      -0.048  12.640  21.137  0.00  0.00    +0.000 HD
ATOM     23  H   UNL     1       1.345  10.759  21.301  0.00  0.00    +0.000 HD
BRANCH  18  28
ATOM     24  C   UNL     1      -6.044  13.766  22.532  0.00  0.00    +0.000 C 
ATOM     25  C   UNL     1      -4.679  13.230  22.188  0.00  0.00    +0.000 A 
ATOM     26  C   UNL     1      -4.233  13.320  20.866  0.00  0.00    +0.000 A 
ATOM     27  C   UNL     1      -2.956  12.882  20.512  0.00  0.00    +0.000 A 
ATOM     28  C   UNL     1      -2.085  12.352  21.467  0.00  0.00    +0.000 A 
ATOM     29  C   UNL     1      -2.546  12.208  22.783  0.00  0.00    +0.000 A 
ATOM     30  C   UNL     1      -3.834  12.652  23.158  0.00  0.00    +0.000 A 
ATOM     31  C   UNL     1      -4.286  12.528  24.589  0.00  0.00    +0.000 C 
ENDBRANCH  18  28
ENDBRANCH   1  21
TORSDOF 3
ENDMDL
MODEL 3
REMARK VINA RESULT:      -8.9      0.599      1.486
REMARK  Name = 
REMARK  5 active torsions:
REMARK  status: ('A' for Active; 'I' for Inactive)
REMARK    1  A    between atoms: C_1  and  C_2
REMARK    2  A    between atoms: C_5  and  N_6
REMARK    3  A    between atoms: N_9  and  C_10
REMARK    4  A    between atoms: C_13  and  C_14
REMARK    5  A    between atoms: C_27  and  C_28
REMARK                            x       y       z     vdW  Elec       q    Type
REMARK                         _______ _______ _______ _____ _____    ______ ____
ROOT
ATOM      1  C   UNL     1       1.415   9.487  19.266  0.00  0.00    +0.000 A 
ATOM      2  C   UNL     1       1.857   9.430  17.939  0.00  0.00    +0.000 A 
ATOM      3  C   UNL     1       2.505   8.286  17.442  0.00  0.00    +0.000 A 
ATOM      4  C   UNL     1       2.735   7.165  18.254  0.00  0.00    +0.000 A 
ATOM      5  C   UNL     1       2.277   7.244  19.584  0.00  0.00    +0.000 A 
ATOM      6  C   UNL     1       1.640   8.389  20.088  0.00  0.00    +0.000 A 
ENDROOT
BRANCH   4   7
ATOM      7  C   UNL     1       3.547   6.009  17.797  0.00  0.00    +0.000 A 
ATOM      8  C   UNL     1       2.998   4.705  17.765  0.00  0.00    +0.000 A 
ATOM      9  C   UNL     1       3.655   3.621  17.145  0.00  0.00    +0.000 A 
ATOM     10  C   UNL     1       4.855   3.811  16.486  0.00  0.00    +0.000 A 
ATOM     11  C   UNL     1       5.417   5.073  16.576  0.00  0.00    +0.000 A 
ATOM     12  C   UNL     1       4.835   6.122  17.280  0.00  0.00    +0.000 A 
ATOM     13  C   UNL     1       5.841   7.222  17.392  0.00  0.00    +0.000 C 
ATOM     14  N   UNL     1       7.023   6.671  16.759  0.00  0.00    +0.000 N 
ATOM     15  C   UNL     1       6.734   5.489  16.107  0.00  0.00    +0.000 C 
ATOM     16  O   UNL     1       7.452   4.872  15.347  0.00  0.00    +0.000 OA
ATOM     17  H   UNL     1       7.875   6.594  17.302  0.00  0.00    +0.000 HD
ENDBRANCH   4   7
BRANCH   1  21
ATOM     18  N   UNL     1      -1.022  11.978  20.309  0.00  0.00    +0.000 N 
ATOM     19  C   UNL     1      -0.609  10.769  19.768  0.00  0.00    +0.000 C 
ATOM     20  O   UNL     1      -1.367   9.902  19.333  0.00  0.00    +0.000 OA
ATOM     21  N   UNL     1       0.773  10.623  19.797  0.00  0.00    +0.000 N 
ATOM     22  H   UNL     1      -0.383  12.748  20.173  0.00  0.00    +0.000 HD
ATOM     23  H   UNL     1       1.220  11.083  20.581  0.00  0.00    +0.000 HD
BRANCH  18  28
ATOM     24  C   UNL     1      -6.523  13.089  21.566  0.00  0.00    +0.000 C 
ATOM     25  C   UNL     1      -5.083  12.848  21.198  0.00  0.00    +0.000 A 
ATOM     26  C   UNL     1      -4.123  12.822  22.213  0.00  0.00    +0.000 A 
ATOM     27  C   UNL     1      -2.785  12.553  21.925  0.00  0.00    +0.000 A 
ATOM     28  C   UNL     1      -2.368  12.292  20.618  0.00  0.00    +0.000 A 
ATOM     29  C   UNL     1      -3.315  12.370  19.587  0.00  0.00    +0.000 A 
ATOM     30  C   UNL     1      -4.675  12.636  19.865  0.00  0.00    +0.000 A 
ATOM     31  C   UNL     1      -5.679  12.668  18.744  0.00  0.00    +0.000 C 
ENDBRANCH  18  28
ENDBRANCH   1  21
TORSDOF 3
ENDMDL
MODEL 4
REMARK VINA RESULT:      -8.9      1.062      1.730
REMARK  Name = 
REMARK  5 active torsions:
REMARK  status: ('A' for Active; 'I' for Inactive)
REMARK    1  A    between atoms: C_1  and  C_2
REMARK    2  A    between atoms: C_5  and  N_6
REMARK    3  A    between atoms: N_9  and  C_10
REMARK    4  A    between atoms: C_13  and  C_14
REMARK    5  A    between atoms: C_27  and  C_28
REMARK                            x       y       z     vdW  Elec       q    Type
REMARK                         _______ _______ _______ _____ _____    ______ ____
ROOT
ATOM      1  C   UNL     1       1.216   9.518  19.107  0.00  0.00    +0.000 A 
ATOM      2  C   UNL     1       1.456   8.458  19.989  0.00  0.00    +0.000 A 
ATOM      3  C   UNL     1       2.265   7.373  19.611  0.00  0.00    +0.000 A 
ATOM      4  C   UNL     1       2.859   7.310  18.340  0.00  0.00    +0.000 A 
ATOM      5  C   UNL     1       2.607   8.390  17.473  0.00  0.00    +0.000 A 
ATOM      6  C   UNL     1       1.789   9.471  17.841  0.00  0.00    +0.000 A 
ENDROOT
BRANCH   4   7
ATOM      7  C   UNL     1       3.591   6.108  17.867  0.00  0.00    +0.000 A 
ATOM      8  C   UNL     1       2.963   4.841  17.837  0.00  0.00    +0.000 A 
ATOM      9  C   UNL     1       3.543   3.722  17.203  0.00  0.00    +0.000 A 
ATOM     10  C   UNL     1       4.742   3.841  16.528  0.00  0.00    +0.000 A 
ATOM     11  C   UNL     1       5.382   5.065  16.614  0.00  0.00    +0.000 A 
ATOM     12  C   UNL     1       4.876   6.145  17.331  0.00  0.00    +0.000 A 
ATOM     13  C   UNL     1       5.949   7.180  17.433  0.00  0.00    +0.000 C 
ATOM     14  N   UNL     1       7.086   6.561  16.780  0.00  0.00    +0.000 N 
ATOM     15  C   UNL     1       6.716   5.402  16.128  0.00  0.00    +0.000 C 
ATOM     16  O   UNL     1       7.383   4.745  15.355  0.00  0.00    +0.000 OA
ATOM     17  H   UNL     1       7.940   6.428  17.311  0.00  0.00    +0.000 HD
ENDBRANCH   4   7
BRANCH   1  21
ATOM     18  N   UNL     1      -1.537  11.864  19.492  0.00  0.00    +0.000 N 
ATOM     19  C   UNL     1      -0.937  10.681  19.085  0.00  0.00    +0.000 C 
ATOM     20  O   UNL     1      -1.517   9.772  18.490  0.00  0.00    +0.000 OA
ATOM     21  N   UNL     1       0.401  10.614  19.451  0.00  0.00    +0.000 N 
ATOM     22  H   UNL     1      -0.928  12.669  19.506  0.00  0.00    +0.000 HD
ATOM     23  H   UNL     1       0.618  11.099  20.313  0.00  0.00    +0.000 HD
BRANCH  18  28
ATOM     24  C   UNL     1      -7.176  12.978  19.317  0.00  0.00    +0.000 C 
ATOM     25  C   UNL     1      -5.710  12.652  19.414  0.00  0.00    +0.000 A 
ATOM     26  C   UNL     1      -5.082  12.033  18.329  0.00  0.00    +0.000 A 
ATOM     27  C   UNL     1      -3.715  11.757  18.356  0.00  0.00    +0.000 A 
ATOM     28  C   UNL     1      -2.932  12.100  19.461  0.00  0.00    +0.000 A 
ATOM     29  C   UNL     1      -3.564  12.671  20.574  0.00  0.00    +0.000 A 
ATOM     30  C   UNL     1      -4.947  12.961  20.560  0.00  0.00    +0.000 A 
ATOM     31  C   UNL     1      -5.591  13.616  21.752  0.00  0.00    +0.000 C 
ENDBRANCH  18  28
ENDBRANCH   1  21
TORSDOF 3
ENDMDL
MODEL 5
REMARK VINA RESULT:      -8.9      1.073      2.087
REMARK  Name = 
REMARK  5 active torsions:
REMARK  status: ('A' for Active; 'I' for Inactive)
REMARK    1  A    between atoms: C_1  and  C_2
REMARK    2  A    between atoms: C_5  and  N_6
REMARK    3  A    between atoms: N_9  and  C_10
REMARK    4  A    between atoms: C_13  and  C_14
REMARK    5  A    between atoms: C_27  and  C_28
REMARK                            x       y       z     vdW  Elec       q    Type
REMARK                         _______ _______ _______ _____ _____    ______ ____
ROOT
ATOM      1  C   UNL     1       1.240   9.594  19.173  0.00  0.00    +0.000 A 
ATOM      2  C   UNL     1       1.460   8.531  20.058  0.00  0.00    +0.000 A 
ATOM      3  C   UNL     1       2.217   7.413  19.669  0.00  0.00    +0.000 A 
ATOM      4  C   UNL     1       2.776   7.318  18.385  0.00  0.00    +0.000 A 
ATOM      5  C   UNL     1       2.545   8.401  17.515  0.00  0.00    +0.000 A 
ATOM      6  C   UNL     1       1.780   9.515  17.894  0.00  0.00    +0.000 A 
ENDROOT
BRANCH   4   7
ATOM      7  C   UNL     1       3.449   6.085  17.904  0.00  0.00    +0.000 A 
ATOM      8  C   UNL     1       2.788   4.835  17.945  0.00  0.00    +0.000 A 
ATOM      9  C   UNL     1       3.302   3.685  17.311  0.00  0.00    +0.000 A 
ATOM     10  C   UNL     1       4.463   3.753  16.565  0.00  0.00    +0.000 A 
ATOM     11  C   UNL     1       5.138   4.962  16.580  0.00  0.00    +0.000 A 
ATOM     12  C   UNL     1       4.702   6.074  17.295  0.00  0.00    +0.000 A 
ATOM     13  C   UNL     1       5.805   7.082  17.307  0.00  0.00    +0.000 C 
ATOM     14  N   UNL     1       6.886   6.415  16.607  0.00  0.00    +0.000 N 
ATOM     15  C   UNL     1       6.449   5.250  16.010  0.00  0.00    +0.000 C 
ATOM     16  O   UNL     1       7.054   4.556  15.219  0.00  0.00    +0.000 OA
ATOM     17  H   UNL     1       7.765   6.274  17.092  0.00  0.00    +0.000 HD
ENDBRANCH   4   7
BRANCH   1  21
ATOM     18  N   UNL     1      -1.439  11.994  19.717  0.00  0.00    +0.000 N 
ATOM     19  C   UNL     1      -0.898  10.775  19.335  0.00  0.00    +0.000 C 
ATOM     20  O   UNL     1      -1.551   9.826  18.899  0.00  0.00    +0.000 OA
ATOM     21  N   UNL     1       0.477  10.724  19.528  0.00  0.00    +0.000 N 
ATOM     22  H   UNL     1      -0.833  12.791  19.584  0.00  0.00    +0.000 HD
ATOM     23  H   UNL     1       0.805  11.276  20.311  0.00  0.00    +0.000 HD
BRANCH  18  28
ATOM     24  C   UNL     1      -7.099  12.838  20.286  0.00  0.00    +0.000 C 
ATOM     25  C   UNL     1      -5.617  12.657  20.089  0.00  0.00    +0.000 A 
ATOM     26  C   UNL     1      -4.755  12.946  21.149  0.00  0.00    +0.000 A 
ATOM     27  C   UNL     1      -3.380  12.746  21.028  0.00  0.00    +0.000 A 
ATOM     28  C   UNL     1      -2.827  12.242  19.848  0.00  0.00    +0.000 A 
ATOM     29  C   UNL     1      -3.679  12.001  18.762  0.00  0.00    +0.000 A 
ATOM     30  C   UNL     1      -5.075  12.194  18.872  0.00  0.00    +0.000 A 
ATOM     31  C   UNL     1      -5.972  11.883  17.704  0.00  0.00    +0.000 C 
ENDBRANCH  18  28
ENDBRANCH   1  21
TORSDOF 3
ENDMDL
MODEL 6
REMARK VINA RESULT:      -8.9      1.817      2.685
REMARK  Name = 
REMARK  5 active torsions:
REMARK  status: ('A' for Active; 'I' for Inactive)
REMARK    1  A    between atoms: C_1  and  C_2
REMARK    2  A    between atoms: C_5  and  N_6
REMARK    3  A    between atoms: N_9  and  C_10
REMARK    4  A    between atoms: C_13  and  C_14
REMARK    5  A    between atoms: C_27  and  C_28
REMARK                            x       y       z     vdW  Elec       q    Type
REMARK                         _______ _______ _______ _____ _____    ______ ____
ROOT
ATOM      1  C   UNL     1       1.421   9.551  19.486  0.00  0.00    +0.000 A 
ATOM      2  C   UNL     1       1.729   9.507  18.121  0.00  0.00    +0.000 A 
ATOM      3  C   UNL     1       2.275   8.350  17.542  0.00  0.00    +0.000 A 
ATOM      4  C   UNL     1       2.534   7.201  18.304  0.00  0.00    +0.000 A 
ATOM      5  C   UNL     1       2.211   7.267  19.674  0.00  0.00    +0.000 A 
ATOM      6  C   UNL     1       1.676   8.425  20.261  0.00  0.00    +0.000 A 
ENDROOT
BRANCH   4   7
ATOM      7  C   UNL     1       3.247   6.024  17.747  0.00  0.00    +0.000 A 
ATOM      8  C   UNL     1       4.466   6.180  17.046  0.00  0.00    +0.000 A 
ATOM      9  C   UNL     1       5.279   5.084  16.686  0.00  0.00    +0.000 A 
ATOM     10  C   UNL     1       4.935   3.801  17.062  0.00  0.00    +0.000 A 
ATOM     11  C   UNL     1       3.711   3.647  17.692  0.00  0.00    +0.000 A 
ATOM     12  C   UNL     1       2.846   4.706  17.952  0.00  0.00    +0.000 A 
ATOM     13  C   UNL     1       1.529   4.139  18.374  0.00  0.00    +0.000 C 
ATOM     14  N   UNL     1       1.722   2.705  18.262  0.00  0.00    +0.000 N 
ATOM     15  C   UNL     1       3.051   2.397  18.048  0.00  0.00    +0.000 C 
ATOM     16  O   UNL     1       3.566   1.298  18.079  0.00  0.00    +0.000 OA
ATOM     17  H   UNL     1       1.117   2.180  17.641  0.00  0.00    +0.000 HD
ENDBRANCH   4   7
BRANCH   1  21
ATOM     18  N   UNL     1      -0.778  12.014  21.013  0.00  0.00    +0.000 N 
ATOM     19  C   UNL     1      -0.457  10.782  20.461  0.00  0.00    +0.000 C 
ATOM     20  O   UNL     1      -1.248   9.849  20.325  0.00  0.00    +0.000 OA
ATOM     21  N   UNL     1       0.883  10.699  20.101  0.00  0.00    +0.000 N 
ATOM     22  H   UNL     1      -0.256  12.796  20.646  0.00  0.00    +0.000 HD
ATOM     23  H   UNL     1       1.503  11.243  20.688  0.00  0.00    +0.000 HD
BRANCH  18  28
ATOM     24  C   UNL     1      -5.791  13.004  23.653  0.00  0.00    +0.000 C 
ATOM     25  C   UNL     1      -4.477  12.805  22.944  0.00  0.00    +0.000 A 
ATOM     26  C   UNL     1      -3.383  12.329  23.672  0.00  0.00    +0.000 A 
ATOM     27  C   UNL     1      -2.161  12.083  23.046  0.00  0.00    +0.000 A 
ATOM     28  C   UNL     1      -1.998  12.294  21.675  0.00  0.00    +0.000 A 
ATOM     29  C   UNL     1      -3.074  12.824  20.949  0.00  0.00    +0.000 A 
ATOM     30  C   UNL     1      -4.320  13.073  21.568  0.00  0.00    +0.000 A 
ATOM     31  C   UNL     1      -5.472  13.598  20.755  0.00  0.00    +0.000 C 
ENDBRANCH  18  28
ENDBRANCH   1  21
TORSDOF 3
ENDMDL
MODEL 7
REMARK VINA RESULT:      -8.8      0.570      1.099
REMARK  Name = 
REMARK  5 active torsions:
REMARK  status: ('A' for Active; 'I' for Inactive)
REMARK    1  A    between atoms: C_1  and  C_2
REMARK    2  A    between atoms: C_5  and  N_6
REMARK    3  A    between atoms: N_9  and  C_10
REMARK    4  A    between atoms: C_13  and  C_14
REMARK    5  A    between atoms: C_27  and  C_28
REMARK                            x       y       z     vdW  Elec       q    Type
REMARK                         _______ _______ _______ _____ _____    ______ ____
ROOT
ATOM      1  C   UNL     1       1.371   9.434  19.595  0.00  0.00    +0.000 A 
ATOM      2  C   UNL     1       1.603   8.354  20.453  0.00  0.00    +0.000 A 
ATOM      3  C   UNL     1       2.185   7.166  19.978  0.00  0.00    +0.000 A 
ATOM      4  C   UNL     1       2.551   7.017  18.632  0.00  0.00    +0.000 A 
ATOM      5  C   UNL     1       2.312   8.120  17.788  0.00  0.00    +0.000 A 
ATOM      6  C   UNL     1       1.720   9.305  18.255  0.00  0.00    +0.000 A 
ENDROOT
BRANCH   4   7
ATOM      7  C   UNL     1       3.026   5.725  18.078  0.00  0.00    +0.000 A 
ATOM      8  C   UNL     1       2.183   4.589  18.063  0.00  0.00    +0.000 A 
ATOM      9  C   UNL     1       2.512   3.409  17.362  0.00  0.00    +0.000 A 
ATOM     10  C   UNL     1       3.666   3.341  16.605  0.00  0.00    +0.000 A 
ATOM     11  C   UNL     1       4.517   4.431  16.674  0.00  0.00    +0.000 A 
ATOM     12  C   UNL     1       4.259   5.556  17.452  0.00  0.00    +0.000 A 
ATOM     13  C   UNL     1       5.502   6.383  17.501  0.00  0.00    +0.000 C 
ATOM     14  N   UNL     1       6.466   5.599  16.753  0.00  0.00    +0.000 N 
ATOM     15  C   UNL     1       5.853   4.547  16.102  0.00  0.00    +0.000 C 
ATOM     16  O   UNL     1       6.341   3.813  15.267  0.00  0.00    +0.000 OA
ATOM     17  H   UNL     1       7.316   5.300  17.218  0.00  0.00    +0.000 HD
ENDBRANCH   4   7
BRANCH   1  21
ATOM     18  N   UNL     1      -0.960  12.041  20.597  0.00  0.00    +0.000 N 
ATOM     19  C   UNL     1      -0.595  10.765  20.192  0.00  0.00    +0.000 C 
ATOM     20  O   UNL     1      -1.382   9.836  20.012  0.00  0.00    +0.000 OA
ATOM     21  N   UNL     1       0.780  10.634  20.037  0.00  0.00    +0.000 N 
ATOM     22  H   UNL     1      -0.371  12.784  20.252  0.00  0.00    +0.000 HD
ATOM     23  H   UNL     1       1.323  11.214  20.665  0.00  0.00    +0.000 HD
BRANCH  18  28
ATOM     24  C   UNL     1      -6.162  13.611  22.480  0.00  0.00    +0.000 C 
ATOM     25  C   UNL     1      -4.809  13.143  22.014  0.00  0.00    +0.000 A 
ATOM     26  C   UNL     1      -4.519  13.173  20.647  0.00  0.00    +0.000 A 
ATOM     27  C   UNL     1      -3.262  12.796  20.174  0.00  0.00    +0.000 A 
ATOM     28  C   UNL     1      -2.254  12.390  21.052  0.00  0.00    +0.000 A 
ATOM     29  C   UNL     1      -2.555  12.305  22.419  0.00  0.00    +0.000 A 
ATOM     30  C   UNL     1      -3.822  12.689  22.913  0.00  0.00    +0.000 A 
ATOM     31  C   UNL     1      -4.102  12.632  24.391  0.00  0.00    +0.000 C 
ENDBRANCH  18  28
ENDBRANCH   1  21
TORSDOF 3
ENDMDL
MODEL 8
REMARK VINA RESULT:      -8.7      2.032      3.134
REMARK  Name = 
REMARK  5 active torsions:
REMARK  status: ('A' for Active; 'I' for Inactive)
REMARK    1  A    between atoms: C_1  and  C_2
REMARK    2  A    between atoms: C_5  and  N_6
REMARK    3  A    between atoms: N_9  and  C_10
REMARK    4  A    between atoms: C_13  and  C_14
REMARK    5  A    between atoms: C_27  and  C_28
REMARK                            x       y       z     vdW  Elec       q    Type
REMARK                         _______ _______ _______ _____ _____    ______ ____
ROOT
ATOM      1  C   UNL     1       1.146   9.582  19.293  0.00  0.00    +0.000 A 
ATOM      2  C   UNL     1       1.451   8.505  20.134  0.00  0.00    +0.000 A 
ATOM      3  C   UNL     1       2.217   7.422  19.671  0.00  0.00    +0.000 A 
ATOM      4  C   UNL     1       2.701   7.376  18.355  0.00  0.00    +0.000 A 
ATOM      5  C   UNL     1       2.386   8.474  17.529  0.00  0.00    +0.000 A 
ATOM      6  C   UNL     1       1.611   9.553  17.983  0.00  0.00    +0.000 A 
ENDROOT
BRANCH   4   7
ATOM      7  C   UNL     1       3.381   6.179  17.802  0.00  0.00    +0.000 A 
ATOM      8  C   UNL     1       4.632   6.291  17.150  0.00  0.00    +0.000 A 
ATOM      9  C   UNL     1       5.408   5.167  16.800  0.00  0.00    +0.000 A 
ATOM     10  C   UNL     1       4.992   3.893  17.137  0.00  0.00    +0.000 A 
ATOM     11  C   UNL     1       3.739   3.785  17.716  0.00  0.00    +0.000 A 
ATOM     12  C   UNL     1       2.914   4.877  17.965  0.00  0.00    +0.000 A 
ATOM     13  C   UNL     1       1.557   4.363  18.326  0.00  0.00    +0.000 C 
ATOM     14  N   UNL     1       1.690   2.924  18.192  0.00  0.00    +0.000 N 
ATOM     15  C   UNL     1       3.010   2.559  18.022  0.00  0.00    +0.000 C 
ATOM     16  O   UNL     1       3.474   1.438  18.051  0.00  0.00    +0.000 OA
ATOM     17  H   UNL     1       1.086   2.439  17.538  0.00  0.00    +0.000 HD
ENDBRANCH   4   7
BRANCH   1  21
ATOM     18  N   UNL     1      -1.538  11.956  19.920  0.00  0.00    +0.000 N 
ATOM     19  C   UNL     1      -0.984  10.779  19.436  0.00  0.00    +0.000 C 
ATOM     20  O   UNL     1      -1.613   9.902  18.843  0.00  0.00    +0.000 OA
ATOM     21  N   UNL     1       0.372  10.678  19.722  0.00  0.00    +0.000 N 
ATOM     22  H   UNL     1      -0.915  12.750  19.927  0.00  0.00    +0.000 HD
ATOM     23  H   UNL     1       0.646  11.127  20.587  0.00  0.00    +0.000 HD
BRANCH  18  28
ATOM     24  C   UNL     1      -7.214  12.846  20.180  0.00  0.00    +0.000 C 
ATOM     25  C   UNL     1      -5.725  12.654  20.065  0.00  0.00    +0.000 A 
ATOM     26  C   UNL     1      -4.924  12.900  21.183  0.00  0.00    +0.000 A 
ATOM     27  C   UNL     1      -3.546  12.689  21.136  0.00  0.00    +0.000 A 
ATOM     28  C   UNL     1      -2.928  12.215  19.976  0.00  0.00    +0.000 A 
ATOM     29  C   UNL     1      -3.717  12.018  18.834  0.00  0.00    +0.000 A 
ATOM     30  C   UNL     1      -5.115  12.223  18.868  0.00  0.00    +0.000 A 
ATOM     31  C   UNL     1      -5.944  11.959  17.640  0.00  0.00    +0.000 C 
ENDBRANCH  18  28
ENDBRANCH   1  21
TORSDOF 3
ENDMDL
MODEL 9
REMARK VINA RESULT:      -8.7      2.253      3.169
REMARK  Name = 
REMARK  5 active torsions:
REMARK  status: ('A' for Active; 'I' for Inactive)
REMARK    1  A    between atoms: C_1  and  C_2
REMARK    2  A    between atoms: C_5  and  N_6
REMARK    3  A    between atoms: N_9  and  C_10
REMARK    4  A    between atoms: C_13  and  C_14
REMARK    5  A    between atoms: C_27  and  C_28
REMARK                            x       y       z     vdW  Elec       q    Type
REMARK                         _______ _______ _______ _____ _____    ______ ____
ROOT
ATOM      1  C   UNL     1       0.961   9.499  19.118  0.00  0.00    +0.000 A 
ATOM      2  C   UNL     1       1.289   8.525  20.069  0.00  0.00    +0.000 A 
ATOM      3  C   UNL     1       2.171   7.477  19.754  0.00  0.00    +0.000 A 
ATOM      4  C   UNL     1       2.751   7.366  18.481  0.00  0.00    +0.000 A 
ATOM      5  C   UNL     1       2.409   8.360  17.543  0.00  0.00    +0.000 A 
ATOM      6  C   UNL     1       1.520   9.402  17.849  0.00  0.00    +0.000 A 
ENDROOT
BRANCH   4   7
ATOM      7  C   UNL     1       3.563   6.189  18.080  0.00  0.00    +0.000 A 
ATOM      8  C   UNL     1       4.939   6.326  17.784  0.00  0.00    +0.000 A 
ATOM      9  C   UNL     1       5.791   5.215  17.606  0.00  0.00    +0.000 A 
ATOM     10  C   UNL     1       5.312   3.930  17.775  0.00  0.00    +0.000 A 
ATOM     11  C   UNL     1       3.953   3.800  18.002  0.00  0.00    +0.000 A 
ATOM     12  C   UNL     1       3.081   4.883  18.067  0.00  0.00    +0.000 A 
ATOM     13  C   UNL     1       1.682   4.356  18.040  0.00  0.00    +0.000 C 
ATOM     14  N   UNL     1       1.858   2.924  17.892  0.00  0.00    +0.000 N 
ATOM     15  C   UNL     1       3.180   2.564  18.060  0.00  0.00    +0.000 C 
ATOM     16  O   UNL     1       3.630   1.442  18.167  0.00  0.00    +0.000 OA
ATOM     17  H   UNL     1       1.450   2.465  17.085  0.00  0.00    +0.000 HD
ENDBRANCH   4   7
BRANCH   1  21
ATOM     18  N   UNL     1      -1.881  11.768  19.211  0.00  0.00    +0.000 N 
ATOM     19  C   UNL     1      -1.193  10.626  18.827  0.00  0.00    +0.000 C 
ATOM     20  O   UNL     1      -1.646   9.750  18.090  0.00  0.00    +0.000 OA
ATOM     21  N   UNL     1       0.072  10.556  19.398  0.00  0.00    +0.000 N 
ATOM     22  H   UNL     1      -1.304  12.580  19.374  0.00  0.00    +0.000 HD
ATOM     23  H   UNL     1       0.136  10.983  20.314  0.00  0.00    +0.000 HD
BRANCH  18  28
ATOM     24  C   UNL     1      -7.448  12.797  18.196  0.00  0.00    +0.000 C 
ATOM     25  C   UNL     1      -6.007  12.492  18.511  0.00  0.00    +0.000 A 
ATOM     26  C   UNL     1      -5.216  11.885  17.532  0.00  0.00    +0.000 A 
ATOM     27  C   UNL     1      -3.864  11.629  17.762  0.00  0.00    +0.000 A 
ATOM     28  C   UNL     1      -3.260  11.982  18.971  0.00  0.00    +0.000 A 
ATOM     29  C   UNL     1      -4.059  12.542  19.978  0.00  0.00    +0.000 A 
ATOM     30  C   UNL     1      -5.429  12.812  19.757  0.00  0.00    +0.000 A 
ATOM     31  C   UNL     1      -6.252  13.456  20.840  0.00  0.00    +0.000 C 
ENDBRANCH  18  28
ENDBRANCH   1  21
TORSDOF 3
ENDMDL
