MODEL 1
REMARK VINA RESULT:      -7.5      0.000      0.000
REMARK  Name = 
REMARK  5 active torsions:
REMARK  status: ('A' for Active; 'I' for Inactive)
REMARK    1  A    between atoms: N_12  and  C1*_13
REMARK    2  A    between atoms: C4*_15  and  C5*_16
REMARK    3  A    between atoms: C5*_16  and  O5*_17
REMARK    4  A    between atoms: C3*_18  and  O3*_19
REMARK    5  A    between atoms: C2*_20  and  O2*_21
REMARK                            x       y       z     vdW  Elec       q    Type
REMARK                         _______ _______ _______ _____ _____    ______ ____
ROOT
ATOM      1  N   UNL     1       0.187   3.536  20.193  0.00  0.00    +0.000 N 
ATOM      2  C   UNL     1       1.234   3.138  19.428  0.00  0.00    +0.000 A 
ATOM      3  N   UNL     1       1.304   1.948  18.901  0.00  0.00    +0.000 NA
ATOM      4  N   UNL     1       2.403   1.623  18.130  0.00  0.00    +0.000 N 
ATOM      5  C   UNL     1       3.477   2.450  17.837  0.00  0.00    +0.000 A 
ATOM      6  O   UNL     1       4.414   2.059  17.150  0.00  0.00    +0.000 OA
ATOM      7  C   UNL     1       3.371   3.759  18.432  0.00  0.00    +0.000 A 
ATOM      8  C   UNL     1       2.290   4.113  19.229  0.00  0.00    +0.000 A 
ATOM      9  C   UNL     1       2.539   5.429  19.672  0.00  0.00    +0.000 A 
ATOM     10 BR   UNL     1       1.467   6.461  20.816  0.00  0.00    +0.000 Br
ATOM     11  C   UNL     1       3.731   5.851  19.136  0.00  0.00    +0.000 A 
ATOM     12  N   UNL     1       4.226   4.834  18.346  0.00  0.00    +0.000 N 
ATOM     13  H   UNL     1      -0.380   2.768  20.532  0.00  0.00    +0.000 HD
ATOM     14  H   UNL     1       0.363   4.257  20.882  0.00  0.00    +0.000 HD
ATOM     15  H   UNL     1       2.416   0.690  17.739  0.00  0.00    +0.000 HD
ENDROOT
BRANCH  12  16
ATOM     16  C1* UNL     1       5.454   4.922  17.562  0.00  0.00    +0.000 C 
ATOM     17  O4* UNL     1       6.566   4.579  18.419  0.00  0.00    +0.000 OA
ATOM     18  C4* UNL     1       7.712   5.367  18.016  0.00  0.00    +0.000 C 
ATOM     19  C3* UNL     1       7.260   6.306  16.899  0.00  0.00    +0.000 C 
ATOM     20  C2* UNL     1       5.742   6.323  17.016  0.00  0.00    +0.000 C 
BRANCH  19  21
ATOM     21  O3* UNL     1       7.609   5.800  15.598  0.00  0.00    +0.000 OA
ATOM     22  H3* UNL     1       7.711   6.545  14.974  0.00  0.00    +0.000 HD
ENDBRANCH  19  21
BRANCH  20  23
ATOM     23  O2* UNL     1       5.125   6.593  15.760  0.00  0.00    +0.000 OA
ATOM     24  H2* UNL     1       5.789   6.378  15.069  0.00  0.00    +0.000 HD
ENDBRANCH  20  23
BRANCH  18  25
ATOM     25  C5* UNL     1       8.237   6.108  19.247  0.00  0.00    +0.000 C 
BRANCH  25  26
ATOM     26  O5* UNL     1       7.836   5.426  20.434  0.00  0.00    +0.000 OA
ATOM     27  H5* UNL     1       7.723   4.488  20.192  0.00  0.00    +0.000 HD
ENDBRANCH  25  26
ENDBRANCH  18  25
ENDBRANCH  12  16
TORSDOF 5
ENDMDL
MODEL 2
REMARK VINA RESULT:      -7.0      0.973      1.197
REMARK  Name = 
REMARK  5 active torsions:
REMARK  status: ('A' for Active; 'I' for Inactive)
REMARK    1  A    between atoms: N_12  and  C1*_13
REMARK    2  A    between atoms: C4*_15  and  C5*_16
REMARK    3  A    between atoms: C5*_16  and  O5*_17
REMARK    4  A    between atoms: C3*_18  and  O3*_19
REMARK    5  A    between atoms: C2*_20  and  O2*_21
REMARK                            x       y       z     vdW  Elec       q    Type
REMARK                         _______ _______ _______ _____ _____    ______ ____
ROOT
ATOM      1  N   UNL     1       0.168   3.666  20.303  0.00  0.00    +0.000 N 
ATOM      2  C   UNL     1       1.199   3.126  19.607  0.00  0.00    +0.000 A 
ATOM      3  N   UNL     1       1.177   1.904  19.156  0.00  0.00    +0.000 NA
ATOM      4  N   UNL     1       2.268   1.432  18.453  0.00  0.00    +0.000 N 
ATOM      5  C   UNL     1       3.424   2.136  18.156  0.00  0.00    +0.000 A 
ATOM      6  O   UNL     1       4.345   1.619  17.532  0.00  0.00    +0.000 OA
ATOM      7  C   UNL     1       3.420   3.485  18.665  0.00  0.00    +0.000 A 
ATOM      8  C   UNL     1       2.348   3.986  19.394  0.00  0.00    +0.000 A 
ATOM      9  C   UNL     1       2.703   5.300  19.767  0.00  0.00    +0.000 A 
ATOM     10 BR   UNL     1       1.692   6.497  20.801  0.00  0.00    +0.000 Br
ATOM     11  C   UNL     1       3.948   5.577  19.256  0.00  0.00    +0.000 A 
ATOM     12  N   UNL     1       4.374   4.470  18.550  0.00  0.00    +0.000 N 
ATOM     13  H   UNL     1      -0.481   2.976  20.663  0.00  0.00    +0.000 HD
ATOM     14  H   UNL     1       0.385   4.410  20.953  0.00  0.00    +0.000 HD
ATOM     15  H   UNL     1       2.207   0.478  18.119  0.00  0.00    +0.000 HD
ENDROOT
BRANCH  12  16
ATOM     16  C1* UNL     1       5.632   4.396  17.814  0.00  0.00    +0.000 C 
ATOM     17  O4* UNL     1       6.677   4.953  18.643  0.00  0.00    +0.000 OA
ATOM     18  C4* UNL     1       7.638   5.612  17.785  0.00  0.00    +0.000 C 
ATOM     19  C3* UNL     1       7.115   5.525  16.351  0.00  0.00    +0.000 C 
ATOM     20  C2* UNL     1       5.637   5.200  16.511  0.00  0.00    +0.000 C 
BRANCH  19  21
ATOM     21  O3* UNL     1       7.739   4.456  15.617  0.00  0.00    +0.000 OA
ATOM     22  H3* UNL     1       8.695   4.640  15.520  0.00  0.00    +0.000 HD
ENDBRANCH  19  21
BRANCH  20  23
ATOM     23  O2* UNL     1       5.136   4.481  15.387  0.00  0.00    +0.000 OA
ATOM     24  H2* UNL     1       4.643   5.129  14.838  0.00  0.00    +0.000 HD
ENDBRANCH  20  23
BRANCH  18  25
ATOM     25  C5* UNL     1       7.807   7.051  18.275  0.00  0.00    +0.000 C 
BRANCH  25  26
ATOM     26  O5* UNL     1       7.734   7.954  17.174  0.00  0.00    +0.000 OA
ATOM     27  H5* UNL     1       8.234   8.751  17.433  0.00  0.00    +0.000 HD
ENDBRANCH  25  26
ENDBRANCH  18  25
ENDBRANCH  12  16
TORSDOF 5
ENDMDL
MODEL 3
REMARK VINA RESULT:      -6.7      3.169      6.143
REMARK  Name = 
REMARK  5 active torsions:
REMARK  status: ('A' for Active; 'I' for Inactive)
REMARK    1  A    between atoms: N_12  and  C1*_13
REMARK    2  A    between atoms: C4*_15  and  C5*_16
REMARK    3  A    between atoms: C5*_16  and  O5*_17
REMARK    4  A    between atoms: C3*_18  and  O3*_19
REMARK    5  A    between atoms: C2*_20  and  O2*_21
REMARK                            x       y       z     vdW  Elec       q    Type
REMARK                         _______ _______ _______ _____ _____    ______ ____
ROOT
ATOM      1  N   UNL     1       7.535   5.792  14.751  0.00  0.00    +0.000 N 
ATOM      2  C   UNL     1       7.255   5.742  16.077  0.00  0.00    +0.000 A 
ATOM      3  N   UNL     1       7.948   6.397  16.965  0.00  0.00    +0.000 NA
ATOM      4  N   UNL     1       7.594   6.295  18.297  0.00  0.00    +0.000 N 
ATOM      5  C   UNL     1       6.544   5.551  18.815  0.00  0.00    +0.000 A 
ATOM      6  O   UNL     1       6.321   5.518  20.020  0.00  0.00    +0.000 OA
ATOM      7  C   UNL     1       5.795   4.839  17.810  0.00  0.00    +0.000 A 
ATOM      8  C   UNL     1       6.136   4.904  16.464  0.00  0.00    +0.000 A 
ATOM      9  C   UNL     1       5.231   4.059  15.786  0.00  0.00    +0.000 A 
ATOM     10 BR   UNL     1       5.191   3.685  13.947  0.00  0.00    +0.000 Br
ATOM     11  C   UNL     1       4.365   3.521  16.706  0.00  0.00    +0.000 A 
ATOM     12  N   UNL     1       4.692   4.028  17.948  0.00  0.00    +0.000 N 
ATOM     13  H   UNL     1       8.460   6.151  14.548  0.00  0.00    +0.000 HD
ATOM     14  H   UNL     1       7.267   4.995  14.189  0.00  0.00    +0.000 HD
ATOM     15  H   UNL     1       8.158   6.821  18.952  0.00  0.00    +0.000 HD
ENDROOT
BRANCH  12  16
ATOM     16  C1* UNL     1       3.964   3.732  19.177  0.00  0.00    +0.000 C 
ATOM     17  O4* UNL     1       3.281   2.470  19.008  0.00  0.00    +0.000 OA
ATOM     18  C4* UNL     1       2.033   2.524  19.741  0.00  0.00    +0.000 C 
ATOM     19  C3* UNL     1       1.903   3.929  20.329  0.00  0.00    +0.000 C 
ATOM     20  C2* UNL     1       2.888   4.765  19.526  0.00  0.00    +0.000 C 
BRANCH  19  21
ATOM     21  O3* UNL     1       2.296   3.968  21.713  0.00  0.00    +0.000 OA
ATOM     22  H3* UNL     1       3.128   3.468  21.831  0.00  0.00    +0.000 HD
ENDBRANCH  19  21
BRANCH  20  23
ATOM     23  O2* UNL     1       3.373   5.871  20.282  0.00  0.00    +0.000 OA
ATOM     24  H2* UNL     1       4.205   5.575  20.711  0.00  0.00    +0.000 HD
ENDBRANCH  20  23
BRANCH  18  25
ATOM     25  C5* UNL     1       0.900   2.169  18.777  0.00  0.00    +0.000 C 
BRANCH  25  26
ATOM     26  O5* UNL     1       0.722   3.218  17.826  0.00  0.00    +0.000 OA
ATOM     27  H5* UNL     1       0.523   4.026  18.337  0.00  0.00    +0.000 HD
ENDBRANCH  25  26
ENDBRANCH  18  25
ENDBRANCH  12  16
TORSDOF 5
ENDMDL
MODEL 4
REMARK VINA RESULT:      -6.4      2.608      4.168
REMARK  Name = 
REMARK  5 active torsions:
REMARK  status: ('A' for Active; 'I' for Inactive)
REMARK    1  A    between atoms: N_12  and  C1*_13
REMARK    2  A    between atoms: C4*_15  and  C5*_16
REMARK    3  A    between atoms: C5*_16  and  O5*_17
REMARK    4  A    between atoms: C3*_18  and  O3*_19
REMARK    5  A    between atoms: C2*_20  and  O2*_21
REMARK                            x       y       z     vdW  Elec       q    Type
REMARK                         _______ _______ _______ _____ _____    ______ ____
ROOT
ATOM      1  N   UNL     1       1.508   4.459  20.524  0.00  0.00    +0.000 N 
ATOM      2  C   UNL     1       2.167   5.296  19.685  0.00  0.00    +0.000 A 
ATOM      3  N   UNL     1       2.038   6.592  19.744  0.00  0.00    +0.000 NA
ATOM      4  N   UNL     1       2.749   7.374  18.854  0.00  0.00    +0.000 N 
ATOM      5  C   UNL     1       3.621   6.922  17.874  0.00  0.00    +0.000 A 
ATOM      6  O   UNL     1       4.196   7.703  17.124  0.00  0.00    +0.000 OA
ATOM      7  C   UNL     1       3.744   5.486  17.835  0.00  0.00    +0.000 A 
ATOM      8  C   UNL     1       3.029   4.669  18.701  0.00  0.00    +0.000 A 
ATOM      9  C   UNL     1       3.355   3.341  18.352  0.00  0.00    +0.000 A 
ATOM     10 BR   UNL     1       2.684   1.768  19.125  0.00  0.00    +0.000 Br
ATOM     11  C   UNL     1       4.256   3.372  17.315  0.00  0.00    +0.000 A 
ATOM     12  N   UNL     1       4.520   4.694  17.020  0.00  0.00    +0.000 N 
ATOM     13  H   UNL     1       0.728   4.897  21.001  0.00  0.00    +0.000 HD
ATOM     14  H   UNL     1       1.317   3.523  20.192  0.00  0.00    +0.000 HD
ATOM     15  H   UNL     1       2.621   8.374  18.936  0.00  0.00    +0.000 HD
ENDROOT
BRANCH  12  16
ATOM     16  C1* UNL     1       5.472   5.138  16.007  0.00  0.00    +0.000 C 
ATOM     17  O4* UNL     1       4.844   5.025  14.711  0.00  0.00    +0.000 OA
ATOM     18  C4* UNL     1       5.858   4.672  13.741  0.00  0.00    +0.000 C 
ATOM     19  C3* UNL     1       7.174   4.480  14.495  0.00  0.00    +0.000 C 
ATOM     20  C2* UNL     1       6.750   4.297  15.945  0.00  0.00    +0.000 C 
BRANCH  19  21
ATOM     21  O3* UNL     1       8.015   5.644  14.410  0.00  0.00    +0.000 OA
ATOM     22  H3* UNL     1       7.569   6.401  14.838  0.00  0.00    +0.000 HD
ENDBRANCH  19  21
BRANCH  20  23
ATOM     23  O2* UNL     1       7.769   4.726  16.845  0.00  0.00    +0.000 OA
ATOM     24  H2* UNL     1       7.391   5.472  17.361  0.00  0.00    +0.000 HD
ENDBRANCH  20  23
BRANCH  18  25
ATOM     25  C5* UNL     1       5.398   3.412  13.007  0.00  0.00    +0.000 C 
BRANCH  25  26
ATOM     26  O5* UNL     1       6.501   2.811  12.330  0.00  0.00    +0.000 OA
ATOM     27  H5* UNL     1       6.664   3.348  11.532  0.00  0.00    +0.000 HD
ENDBRANCH  25  26
ENDBRANCH  18  25
ENDBRANCH  12  16
TORSDOF 5
ENDMDL
MODEL 5
REMARK VINA RESULT:      -6.3      4.091      5.741
REMARK  Name = 
REMARK  5 active torsions:
REMARK  status: ('A' for Active; 'I' for Inactive)
REMARK    1  A    between atoms: N_12  and  C1*_13
REMARK    2  A    between atoms: C4*_15  and  C5*_16
REMARK    3  A    between atoms: C5*_16  and  O5*_17
REMARK    4  A    between atoms: C3*_18  and  O3*_19
REMARK    5  A    between atoms: C2*_20  and  O2*_21
REMARK                            x       y       z     vdW  Elec       q    Type
REMARK                         _______ _______ _______ _____ _____    ______ ____
ROOT
ATOM      1  N   UNL     1       3.227   2.402  18.336  0.00  0.00    +0.000 N 
ATOM      2  C   UNL     1       3.414   3.730  18.132  0.00  0.00    +0.000 A 
ATOM      3  N   UNL     1       4.135   4.193  17.151  0.00  0.00    +0.000 NA
ATOM      4  N   UNL     1       4.272   5.560  17.010  0.00  0.00    +0.000 N 
ATOM      5  C   UNL     1       3.705   6.532  17.821  0.00  0.00    +0.000 A 
ATOM      6  O   UNL     1       3.900   7.726  17.617  0.00  0.00    +0.000 OA
ATOM      7  C   UNL     1       2.913   5.990  18.896  0.00  0.00    +0.000 A 
ATOM      8  C   UNL     1       2.769   4.621  19.079  0.00  0.00    +0.000 A 
ATOM      9  C   UNL     1       1.979   4.456  20.236  0.00  0.00    +0.000 A 
ATOM     10 BR   UNL     1       1.462   2.837  21.034  0.00  0.00    +0.000 Br
ATOM     11  C   UNL     1       1.648   5.699  20.718  0.00  0.00    +0.000 A 
ATOM     12  N   UNL     1       2.195   6.643  19.873  0.00  0.00    +0.000 N 
ATOM     13  H   UNL     1       3.893   1.820  17.842  0.00  0.00    +0.000 HD
ATOM     14  H   UNL     1       3.034   2.100  19.282  0.00  0.00    +0.000 HD
ATOM     15  H   UNL     1       4.839   5.877  16.234  0.00  0.00    +0.000 HD
ENDROOT
BRANCH  12  16
ATOM     16  C1* UNL     1       2.018   8.084  20.022  0.00  0.00    +0.000 C 
ATOM     17  O4* UNL     1       1.665   8.359  21.396  0.00  0.00    +0.000 OA
ATOM     18  C4* UNL     1       0.761   9.489  21.418  0.00  0.00    +0.000 C 
ATOM     19  C3* UNL     1       0.478   9.884  19.968  0.00  0.00    +0.000 C 
ATOM     20  C2* UNL     1       0.892   8.663  19.160  0.00  0.00    +0.000 C 
BRANCH  19  21
ATOM     21  O3* UNL     1       1.284  11.001  19.550  0.00  0.00    +0.000 OA
ATOM     22  H3* UNL     1       1.506  10.906  18.603  0.00  0.00    +0.000 HD
ENDBRANCH  19  21
BRANCH  20  23
ATOM     23  O2* UNL     1       1.300   9.023  17.843  0.00  0.00    +0.000 OA
ATOM     24  H2* UNL     1       2.123   8.521  17.657  0.00  0.00    +0.000 HD
ENDBRANCH  20  23
BRANCH  18  25
ATOM     25  C5* UNL     1      -0.497   9.079  22.184  0.00  0.00    +0.000 C 
BRANCH  25  26
ATOM     26  O5* UNL     1      -0.373   9.447  23.557  0.00  0.00    +0.000 OA
ATOM     27  H5* UNL     1       0.413  10.022  23.621  0.00  0.00    +0.000 HD
ENDBRANCH  25  26
ENDBRANCH  18  25
ENDBRANCH  12  16
TORSDOF 5
ENDMDL
MODEL 6
REMARK VINA RESULT:      -6.3      1.591      1.817
REMARK  Name = 
REMARK  5 active torsions:
REMARK  status: ('A' for Active; 'I' for Inactive)
REMARK    1  A    between atoms: N_12  and  C1*_13
REMARK    2  A    between atoms: C4*_15  and  C5*_16
REMARK    3  A    between atoms: C5*_16  and  O5*_17
REMARK    4  A    between atoms: C3*_18  and  O3*_19
REMARK    5  A    between atoms: C2*_20  and  O2*_21
REMARK                            x       y       z     vdW  Elec       q    Type
REMARK                         _______ _______ _______ _____ _____    ______ ____
ROOT
ATOM      1  N   UNL     1       0.195   4.589  20.703  0.00  0.00    +0.000 N 
ATOM      2  C   UNL     1       1.331   3.925  20.377  0.00  0.00    +0.000 A 
ATOM      3  N   UNL     1       1.427   2.627  20.439  0.00  0.00    +0.000 NA
ATOM      4  N   UNL     1       2.620   2.028  20.085  0.00  0.00    +0.000 N 
ATOM      5  C   UNL     1       3.768   2.672  19.649  0.00  0.00    +0.000 A 
ATOM      6  O   UNL     1       4.785   2.046  19.370  0.00  0.00    +0.000 OA
ATOM      7  C   UNL     1       3.632   4.106  19.589  0.00  0.00    +0.000 A 
ATOM      8  C   UNL     1       2.453   4.743  19.956  0.00  0.00    +0.000 A 
ATOM      9  C   UNL     1       2.692   6.127  19.819  0.00  0.00    +0.000 A 
ATOM     10 BR   UNL     1       1.500   7.526  20.201  0.00  0.00    +0.000 Br
ATOM     11  C   UNL     1       3.976   6.305  19.364  0.00  0.00    +0.000 A 
ATOM     12  N   UNL     1       4.542   5.058  19.191  0.00  0.00    +0.000 N 
ATOM     13  H   UNL     1      -0.459   4.031  21.239  0.00  0.00    +0.000 HD
ATOM     14  H   UNL     1       0.291   5.542  21.029  0.00  0.00    +0.000 HD
ATOM     15  H   UNL     1       2.650   1.018  20.146  0.00  0.00    +0.000 HD
ENDROOT
BRANCH  12  16
ATOM     16  C1* UNL     1       5.885   4.829  18.668  0.00  0.00    +0.000 C 
ATOM     17  O4* UNL     1       6.708   5.966  19.014  0.00  0.00    +0.000 OA
ATOM     18  C4* UNL     1       7.664   6.179  17.947  0.00  0.00    +0.000 C 
ATOM     19  C3* UNL     1       7.362   5.164  16.845  0.00  0.00    +0.000 C 
ATOM     20  C2* UNL     1       5.944   4.699  17.143  0.00  0.00    +0.000 C 
BRANCH  19  21
ATOM     21  O3* UNL     1       8.238   4.025  16.910  0.00  0.00    +0.000 OA
ATOM     22  H3* UNL     1       8.320   3.729  17.838  0.00  0.00    +0.000 HD
ENDBRANCH  19  21
BRANCH  20  23
ATOM     23  O2* UNL     1       5.719   3.374  16.667  0.00  0.00    +0.000 OA
ATOM     24  H2* UNL     1       5.857   2.774  17.432  0.00  0.00    +0.000 HD
ENDBRANCH  20  23
BRANCH  18  25
ATOM     25  C5* UNL     1       7.540   7.629  17.479  0.00  0.00    +0.000 C 
BRANCH  25  26
ATOM     26  O5* UNL     1       8.369   8.472  18.277  0.00  0.00    +0.000 OA
ATOM     27  H5* UNL     1       8.852   7.887  18.891  0.00  0.00    +0.000 HD
ENDBRANCH  25  26
ENDBRANCH  18  25
ENDBRANCH  12  16
TORSDOF 5
ENDMDL
MODEL 7
REMARK VINA RESULT:      -6.2      4.331      5.933
REMARK  Name = 
REMARK  5 active torsions:
REMARK  status: ('A' for Active; 'I' for Inactive)
REMARK    1  A    between atoms: N_12  and  C1*_13
REMARK    2  A    between atoms: C4*_15  and  C5*_16
REMARK    3  A    between atoms: C5*_16  and  O5*_17
REMARK    4  A    between atoms: C3*_18  and  O3*_19
REMARK    5  A    between atoms: C2*_20  and  O2*_21
REMARK                            x       y       z     vdW  Elec       q    Type
REMARK                         _______ _______ _______ _____ _____    ______ ____
ROOT
ATOM      1  N   UNL     1       5.954   3.706  18.474  0.00  0.00    +0.000 N 
ATOM      2  C   UNL     1       4.761   4.058  19.014  0.00  0.00    +0.000 A 
ATOM      3  N   UNL     1       4.108   3.285  19.835  0.00  0.00    +0.000 NA
ATOM      4  N   UNL     1       2.899   3.720  20.343  0.00  0.00    +0.000 N 
ATOM      5  C   UNL     1       2.281   4.932  20.075  0.00  0.00    +0.000 A 
ATOM      6  O   UNL     1       1.197   5.219  20.571  0.00  0.00    +0.000 OA
ATOM      7  C   UNL     1       3.028   5.766  19.166  0.00  0.00    +0.000 A 
ATOM      8  C   UNL     1       4.236   5.352  18.621  0.00  0.00    +0.000 A 
ATOM      9  C   UNL     1       4.653   6.384  17.753  0.00  0.00    +0.000 A 
ATOM     10 BR   UNL     1       6.195   6.411  16.683  0.00  0.00    +0.000 Br
ATOM     11  C   UNL     1       3.722   7.393  17.798  0.00  0.00    +0.000 A 
ATOM     12  N   UNL     1       2.739   7.026  18.694  0.00  0.00    +0.000 N 
ATOM     13  H   UNL     1       6.154   2.716  18.547  0.00  0.00    +0.000 HD
ATOM     14  H   UNL     1       6.198   4.114  17.581  0.00  0.00    +0.000 HD
ATOM     15  H   UNL     1       2.427   3.089  20.978  0.00  0.00    +0.000 HD
ENDROOT
BRANCH  12  16
ATOM     16  C1* UNL     1       1.599   7.863  19.055  0.00  0.00    +0.000 C 
ATOM     17  O4* UNL     1       1.410   8.847  18.015  0.00  0.00    +0.000 OA
ATOM     18  C4* UNL     1       0.927  10.069  18.624  0.00  0.00    +0.000 C 
ATOM     19  C3* UNL     1       0.892   9.850  20.136  0.00  0.00    +0.000 C 
ATOM     20  C2* UNL     1       1.790   8.642  20.360  0.00  0.00    +0.000 C 
BRANCH  19  21
ATOM     21  O3* UNL     1      -0.431   9.526  20.600  0.00  0.00    +0.000 OA
ATOM     22  H3* UNL     1      -1.077  10.140  20.199  0.00  0.00    +0.000 HD
ENDBRANCH  19  21
BRANCH  20  23
ATOM     23  O2* UNL     1       1.409   7.918  21.527  0.00  0.00    +0.000 OA
ATOM     24  H2* UNL     1       0.670   8.417  21.938  0.00  0.00    +0.000 HD
ENDBRANCH  20  23
BRANCH  18  25
ATOM     25  C5* UNL     1       1.855  11.210  18.203  0.00  0.00    +0.000 C 
BRANCH  25  26
ATOM     26  O5* UNL     1       1.126  12.435  18.145  0.00  0.00    +0.000 OA
ATOM     27  H5* UNL     1       1.513  13.021  18.824  0.00  0.00    +0.000 HD
ENDBRANCH  25  26
ENDBRANCH  18  25
ENDBRANCH  12  16
TORSDOF 5
ENDMDL
MODEL 8
REMARK VINA RESULT:      -6.1      4.189      5.903
REMARK  Name = 
REMARK  5 active torsions:
REMARK  status: ('A' for Active; 'I' for Inactive)
REMARK    1  A    between atoms: N_12  and  C1*_13
REMARK    2  A    between atoms: C4*_15  and  C5*_16
REMARK    3  A    between atoms: C5*_16  and  O5*_17
REMARK    4  A    between atoms: C3*_18  and  O3*_19
REMARK    5  A    between atoms: C2*_20  and  O2*_21
REMARK                            x       y       z     vdW  Elec       q    Type
REMARK                         _______ _______ _______ _____ _____    ______ ____
ROOT
ATOM      1  N   UNL     1       0.625  11.709  20.743  0.00  0.00    +0.000 N 
ATOM      2  C   UNL     1       1.092  10.831  19.820  0.00  0.00    +0.000 A 
ATOM      3  N   UNL     1       1.454  11.199  18.624  0.00  0.00    +0.000 NA
ATOM      4  N   UNL     1       1.922  10.243  17.744  0.00  0.00    +0.000 N 
ATOM      5  C   UNL     1       2.062   8.887  17.999  0.00  0.00    +0.000 A 
ATOM      6  O   UNL     1       2.479   8.116  17.142  0.00  0.00    +0.000 OA
ATOM      7  C   UNL     1       1.656   8.510  19.331  0.00  0.00    +0.000 A 
ATOM      8  C   UNL     1       1.162   9.443  20.234  0.00  0.00    +0.000 A 
ATOM      9  C   UNL     1       0.825   8.723  21.401  0.00  0.00    +0.000 A 
ATOM     10 BR   UNL     1       0.068   9.409  22.976  0.00  0.00    +0.000 Br
ATOM     11  C   UNL     1       1.130   7.399  21.199  0.00  0.00    +0.000 A 
ATOM     12  N   UNL     1       1.673   7.275  19.936  0.00  0.00    +0.000 N 
ATOM     13  H   UNL     1       0.336  12.595  20.347  0.00  0.00    +0.000 HD
ATOM     14  H   UNL     1       0.000  11.348  21.453  0.00  0.00    +0.000 HD
ATOM     15  H   UNL     1       2.194  10.573  16.826  0.00  0.00    +0.000 HD
ENDROOT
BRANCH  12  16
ATOM     16  C1* UNL     1       2.172   6.024  19.374  0.00  0.00    +0.000 C 
ATOM     17  O4* UNL     1       1.501   4.928  20.035  0.00  0.00    +0.000 OA
ATOM     18  C4* UNL     1       2.426   3.819  20.134  0.00  0.00    +0.000 C 
ATOM     19  C3* UNL     1       3.770   4.285  19.573  0.00  0.00    +0.000 C 
ATOM     20  C2* UNL     1       3.673   5.804  19.583  0.00  0.00    +0.000 C 
BRANCH  19  21
ATOM     21  O3* UNL     1       3.963   3.851  18.215  0.00  0.00    +0.000 OA
ATOM     22  H3* UNL     1       4.576   3.090  18.200  0.00  0.00    +0.000 HD
ENDBRANCH  19  21
BRANCH  20  23
ATOM     23  O2* UNL     1       4.489   6.386  18.570  0.00  0.00    +0.000 OA
ATOM     24  H2* UNL     1       3.880   6.707  17.870  0.00  0.00    +0.000 HD
ENDBRANCH  20  23
BRANCH  18  25
ATOM     25  C5* UNL     1       2.504   3.394  21.601  0.00  0.00    +0.000 C 
BRANCH  25  26
ATOM     26  O5* UNL     1       1.353   2.626  21.947  0.00  0.00    +0.000 OA
ATOM     27  H5* UNL     1       0.635   2.919  21.355  0.00  0.00    +0.000 HD
ENDBRANCH  25  26
ENDBRANCH  18  25
ENDBRANCH  12  16
TORSDOF 5
ENDMDL
MODEL 9
REMARK VINA RESULT:      -5.9      3.996      5.940
REMARK  Name = 
REMARK  5 active torsions:
REMARK  status: ('A' for Active; 'I' for Inactive)
REMARK    1  A    between atoms: N_12  and  C1*_13
REMARK    2  A    between atoms: C4*_15  and  C5*_16
REMARK    3  A    between atoms: C5*_16  and  O5*_17
REMARK    4  A    between atoms: C3*_18  and  O3*_19
REMARK    5  A    between atoms: C2*_20  and  O2*_21
REMARK                            x       y       z     vdW  Elec       q    Type
REMARK                         _______ _______ _______ _____ _____    ______ ____
ROOT
ATOM      1  N   UNL     1       0.406  11.414  20.758  0.00  0.00    +0.000 N 
ATOM      2  C   UNL     1       0.989  10.689  19.771  0.00  0.00    +0.000 A 
ATOM      3  N   UNL     1       1.336  11.211  18.629  0.00  0.00    +0.000 NA
ATOM      4  N   UNL     1       1.929  10.403  17.678  0.00  0.00    +0.000 N 
ATOM      5  C   UNL     1       2.211   9.052  17.806  0.00  0.00    +0.000 A 
ATOM      6  O   UNL     1       2.731   8.420  16.892  0.00  0.00    +0.000 OA
ATOM      7  C   UNL     1       1.817   8.502  19.079  0.00  0.00    +0.000 A 
ATOM      8  C   UNL     1       1.202   9.281  20.051  0.00  0.00    +0.000 A 
ATOM      9  C   UNL     1       0.919   8.417  21.130  0.00  0.00    +0.000 A 
ATOM     10 BR   UNL     1       0.053   8.856  22.737  0.00  0.00    +0.000 Br
ATOM     11  C   UNL     1       1.372   7.160  20.812  0.00  0.00    +0.000 A 
ATOM     12  N   UNL     1       1.956   7.221  19.562  0.00  0.00    +0.000 N 
ATOM     13  H   UNL     1       0.031  12.300  20.440  0.00  0.00    +0.000 HD
ATOM     14  H   UNL     1      -0.192  10.920  21.407  0.00  0.00    +0.000 HD
ATOM     15  H   UNL     1       2.184  10.851  16.807  0.00  0.00    +0.000 HD
ENDROOT
BRANCH  12  16
ATOM     16  C1* UNL     1       2.603   6.094  18.899  0.00  0.00    +0.000 C 
ATOM     17  O4* UNL     1       1.575   5.221  18.379  0.00  0.00    +0.000 OA
ATOM     18  C4* UNL     1       2.051   3.856  18.460  0.00  0.00    +0.000 C 
ATOM     19  C3* UNL     1       3.419   3.883  19.142  0.00  0.00    +0.000 C 
ATOM     20  C2* UNL     1       3.468   5.240  19.830  0.00  0.00    +0.000 C 
BRANCH  19  21
ATOM     21  O3* UNL     1       4.494   3.816  18.189  0.00  0.00    +0.000 OA
ATOM     22  H3* UNL     1       5.295   3.460  18.624  0.00  0.00    +0.000 HD
ENDBRANCH  19  21
BRANCH  20  23
ATOM     23  O2* UNL     1       4.807   5.707  19.965  0.00  0.00    +0.000 OA
ATOM     24  H2* UNL     1       4.753   6.600  20.370  0.00  0.00    +0.000 HD
ENDBRANCH  20  23
BRANCH  18  25
ATOM     25  C5* UNL     1       1.013   3.035  19.227  0.00  0.00    +0.000 C 
BRANCH  25  26
ATOM     26  O5* UNL     1       0.505   3.792  20.324  0.00  0.00    +0.000 OA
ATOM     27  H5* UNL     1       0.065   3.158  20.920  0.00  0.00    +0.000 HD
ENDBRANCH  25  26
ENDBRANCH  18  25
ENDBRANCH  12  16
TORSDOF 5
ENDMDL
