MODEL 1
REMARK VINA RESULT:      -8.6      0.000      0.000
REMARK  Name = 
REMARK  5 active torsions:
REMARK  status: ('A' for Active; 'I' for Inactive)
REMARK    1  A    between atoms: C_1  and  C_2
REMARK    2  A    between atoms: N_4  and  C_5
REMARK    3  A    between atoms: C_9  and  C_10
REMARK    4  A    between atoms: C_22  and  C_24
REMARK    5  A    between atoms: C_24  and  N_25
REMARK                            x       y       z     vdW  Elec       q    Type
REMARK                         _______ _______ _______ _____ _____    ______ ____
ROOT
ATOM      1  C   UNL     1       3.187  16.225  17.736  0.00  0.00    +0.000 C 
ATOM      2  C   UNL     1       3.893  14.893  18.012  0.00  0.00    +0.000 C 
ATOM      3  C   UNL     1       2.863  13.751  18.243  0.00  0.00    +0.000 C 
ATOM      4  N   UNL     1       2.211  13.934  19.543  0.00  0.00    +0.000 N 
ATOM      5  C   UNL     1       3.147  13.980  20.683  0.00  0.00    +0.000 C 
ATOM      6  C   UNL     1       4.183  15.101  20.478  0.00  0.00    +0.000 C 
ATOM      7  N   UNL     1       4.832  15.002  19.158  0.00  0.00    +0.000 N 
ATOM      8  C   UNL     1       6.215  14.954  19.098  0.00  0.00    +0.000 C 
ATOM      9  O   UNL     1       6.909  14.973  20.120  0.00  0.00    +0.000 OA
ENDROOT
BRANCH   4  10
ATOM     10  C   UNL     1       0.867  13.744  19.745  0.00  0.00    +0.000 A 
ATOM     11  S   UNL     1      -0.201  15.044  20.169  0.00  0.00    +0.000 S 
ATOM     12  C   UNL     1      -1.542  13.992  20.064  0.00  0.00    +0.000 A 
ATOM     13  N   UNL     1      -1.284  12.736  19.784  0.00  0.00    +0.000 NA
ATOM     14  C   UNL     1       0.094  12.580  19.666  0.00  0.00    +0.000 A 
BRANCH  14  15
ATOM     15  C   UNL     1       0.648  11.198  19.499  0.00  0.00    +0.000 A 
ATOM     16  N   UNL     1       0.748  10.279  20.435  0.00  0.00    +0.000 NA
ATOM     17  C   UNL     1       1.340   9.198  19.846  0.00  0.00    +0.000 A 
ATOM     18  C   UNL     1       1.690   7.964  20.407  0.00  0.00    +0.000 A 
ATOM     19  C   UNL     1       2.316   7.016  19.592  0.00  0.00    +0.000 A 
ATOM     20  C   UNL     1       2.589   7.298  18.252  0.00  0.00    +0.000 A 
ATOM     21  C   UNL     1       2.240   8.526  17.673  0.00  0.00    +0.000 A 
ATOM     22  C   UNL     1       1.609   9.450  18.507  0.00  0.00    +0.000 A 
ATOM     23  N   UNL     1       1.124  10.718  18.302  0.00  0.00    +0.000 N 
ATOM     24  H   UNL     1       1.136  11.248  17.442  0.00  0.00    +0.000 HD
ENDBRANCH  14  15
ENDBRANCH   4  10
BRANCH   8  25
ATOM     25  C   UNL     1       6.898  14.856  17.749  0.00  0.00    +0.000 C 
BRANCH  25  26
ATOM     26  N   UNL     1       8.337  14.698  17.880  0.00  0.00    +0.000 N 
ATOM     27  C   UNL     1       9.254  15.725  17.854  0.00  0.00    +0.000 A 
ATOM     28  C   UNL     1      10.512  15.185  18.027  0.00  0.00    +0.000 A 
ATOM     29  C   UNL     1      10.358  13.785  18.127  0.00  0.00    +0.000 A 
ATOM     30  N   UNL     1      11.288  12.806  18.296  0.00  0.00    +0.000 NA
ATOM     31  C   UNL     1      10.741  11.564  18.320  0.00  0.00    +0.000 A 
ATOM     32  C   UNL     1       9.381  11.314  18.194  0.00  0.00    +0.000 A 
ATOM     33 CL   UNL     1       8.768   9.711  18.228  0.00  0.00    +0.000 Cl
ATOM     34  N   UNL     1       8.436  12.271  18.044  0.00  0.00    +0.000 NA
ATOM     35  C   UNL     1       8.995  13.502  18.014  0.00  0.00    +0.000 A 
ENDBRANCH  25  26
ENDBRANCH   8  25
TORSDOF 4
ENDMDL
MODEL 2
REMARK VINA RESULT:      -8.0      0.966      1.150
REMARK  Name = 
REMARK  5 active torsions:
REMARK  status: ('A' for Active; 'I' for Inactive)
REMARK    1  A    between atoms: C_1  and  C_2
REMARK    2  A    between atoms: N_4  and  C_5
REMARK    3  A    between atoms: C_9  and  C_10
REMARK    4  A    between atoms: C_22  and  C_24
REMARK    5  A    between atoms: C_24  and  N_25
REMARK                            x       y       z     vdW  Elec       q    Type
REMARK                         _______ _______ _______ _____ _____    ______ ____
ROOT
ATOM      1  C   UNL     1       2.722  15.848  17.721  0.00  0.00    +0.000 C 
ATOM      2  C   UNL     1       3.543  14.607  18.091  0.00  0.00    +0.000 C 
ATOM      3  C   UNL     1       2.623  13.376  18.320  0.00  0.00    +0.000 C 
ATOM      4  N   UNL     1       1.886  13.540  19.576  0.00  0.00    +0.000 N 
ATOM      5  C   UNL     1       2.749  13.727  20.758  0.00  0.00    +0.000 C 
ATOM      6  C   UNL     1       3.676  14.940  20.557  0.00  0.00    +0.000 C 
ATOM      7  N   UNL     1       4.402  14.858  19.277  0.00  0.00    +0.000 N 
ATOM      8  C   UNL     1       5.784  14.951  19.289  0.00  0.00    +0.000 C 
ATOM      9  O   UNL     1       6.416  15.081  20.343  0.00  0.00    +0.000 OA
ENDROOT
BRANCH   4  10
ATOM     10  C   UNL     1       0.559  13.221  19.718  0.00  0.00    +0.000 A 
ATOM     11  S   UNL     1      -0.642  14.402  20.130  0.00  0.00    +0.000 S 
ATOM     12  C   UNL     1      -1.873  13.234  19.945  0.00  0.00    +0.000 A 
ATOM     13  N   UNL     1      -1.488  12.015  19.645  0.00  0.00    +0.000 NA
ATOM     14  C   UNL     1      -0.097  11.992  19.580  0.00  0.00    +0.000 A 
BRANCH  14  15
ATOM     15  C   UNL     1       0.590  10.673  19.401  0.00  0.00    +0.000 A 
ATOM     16  N   UNL     1       0.773   9.757  20.328  0.00  0.00    +0.000 NA
ATOM     17  C   UNL     1       1.472   8.746  19.732  0.00  0.00    +0.000 A 
ATOM     18  C   UNL     1       1.938   7.546  20.281  0.00  0.00    +0.000 A 
ATOM     19  C   UNL     1       2.659   6.674  19.461  0.00  0.00    +0.000 A 
ATOM     20  C   UNL     1       2.912   6.996  18.126  0.00  0.00    +0.000 A 
ATOM     21  C   UNL     1       2.448   8.191  17.558  0.00  0.00    +0.000 A 
ATOM     22  C   UNL     1       1.724   9.039  18.397  0.00  0.00    +0.000 A 
ATOM     23  N   UNL     1       1.118  10.256  18.202  0.00  0.00    +0.000 N 
ATOM     24  H   UNL     1       1.084  10.794  17.349  0.00  0.00    +0.000 HD
ENDBRANCH  14  15
ENDBRANCH   4  10
BRANCH   8  25
ATOM     25  C   UNL     1       6.546  14.872  17.981  0.00  0.00    +0.000 C 
BRANCH  25  26
ATOM     26  N   UNL     1       7.877  15.444  18.094  0.00  0.00    +0.000 N 
ATOM     27  C   UNL     1       8.156  16.788  18.212  0.00  0.00    +0.000 A 
ATOM     28  C   UNL     1       9.524  16.938  18.314  0.00  0.00    +0.000 A 
ATOM     29  C   UNL     1      10.096  15.649  18.221  0.00  0.00    +0.000 A 
ATOM     30  N   UNL     1      11.399  15.259  18.257  0.00  0.00    +0.000 NA
ATOM     31  C   UNL     1      11.547  13.919  18.109  0.00  0.00    +0.000 A 
ATOM     32  C   UNL     1      10.488  13.035  17.945  0.00  0.00    +0.000 A 
ATOM     33 CL   UNL     1      10.760  11.351  17.757  0.00  0.00    +0.000 Cl
ATOM     34  N   UNL     1       9.184  13.397  17.925  0.00  0.00    +0.000 NA
ATOM     35  C   UNL     1       9.052  14.735  18.066  0.00  0.00    +0.000 A 
ENDBRANCH  25  26
ENDBRANCH   8  25
TORSDOF 4
ENDMDL
MODEL 3
REMARK VINA RESULT:      -8.0      1.690      2.151
REMARK  Name = 
REMARK  5 active torsions:
REMARK  status: ('A' for Active; 'I' for Inactive)
REMARK    1  A    between atoms: C_1  and  C_2
REMARK    2  A    between atoms: N_4  and  C_5
REMARK    3  A    between atoms: C_9  and  C_10
REMARK    4  A    between atoms: C_22  and  C_24
REMARK    5  A    between atoms: C_24  and  N_25
REMARK                            x       y       z     vdW  Elec       q    Type
REMARK                         _______ _______ _______ _____ _____    ______ ____
ROOT
ATOM      1  C   UNL     1       2.552  16.119  18.039  0.00  0.00    +0.000 C 
ATOM      2  C   UNL     1       3.381  14.834  18.141  0.00  0.00    +0.000 C 
ATOM      3  C   UNL     1       2.464  13.581  18.204  0.00  0.00    +0.000 C 
ATOM      4  N   UNL     1       1.798  13.524  19.508  0.00  0.00    +0.000 N 
ATOM      5  C   UNL     1       2.726  13.503  20.655  0.00  0.00    +0.000 C 
ATOM      6  C   UNL     1       3.652  14.733  20.617  0.00  0.00    +0.000 C 
ATOM      7  N   UNL     1       4.306  14.875  19.303  0.00  0.00    +0.000 N 
ATOM      8  C   UNL     1       5.687  14.965  19.254  0.00  0.00    +0.000 C 
ATOM      9  O   UNL     1       6.378  14.910  20.278  0.00  0.00    +0.000 OA
ENDROOT
BRANCH   4  10
ATOM     10  C   UNL     1       0.478  13.184  19.666  0.00  0.00    +0.000 A 
ATOM     11  S   UNL     1      -0.740  14.351  20.073  0.00  0.00    +0.000 S 
ATOM     12  C   UNL     1      -1.952  13.159  19.914  0.00  0.00    +0.000 A 
ATOM     13  N   UNL     1      -1.548  11.943  19.627  0.00  0.00    +0.000 NA
ATOM     14  C   UNL     1      -0.158  11.942  19.550  0.00  0.00    +0.000 A 
BRANCH  14  15
ATOM     15  C   UNL     1       0.550  10.633  19.383  0.00  0.00    +0.000 A 
ATOM     16  N   UNL     1       0.672   9.690  20.292  0.00  0.00    +0.000 NA
ATOM     17  C   UNL     1       1.420   8.702  19.719  0.00  0.00    +0.000 A 
ATOM     18  C   UNL     1       1.853   7.488  20.265  0.00  0.00    +0.000 A 
ATOM     19  C   UNL     1       2.638   6.645  19.473  0.00  0.00    +0.000 A 
ATOM     20  C   UNL     1       2.985   7.008  18.171  0.00  0.00    +0.000 A 
ATOM     21  C   UNL     1       2.554   8.218  17.606  0.00  0.00    +0.000 A 
ATOM     22  C   UNL     1       1.766   9.036  18.415  0.00  0.00    +0.000 A 
ATOM     23  N   UNL     1       1.166  10.255  18.213  0.00  0.00    +0.000 N 
ATOM     24  H   UNL     1       1.191  10.819  17.376  0.00  0.00    +0.000 HD
ENDBRANCH  14  15
ENDBRANCH   4  10
BRANCH   8  25
ATOM     25  C   UNL     1       6.376  15.115  17.913  0.00  0.00    +0.000 C 
BRANCH  25  26
ATOM     26  N   UNL     1       7.603  14.339  17.843  0.00  0.00    +0.000 N 
ATOM     27  C   UNL     1       7.678  12.999  17.533  0.00  0.00    +0.000 A 
ATOM     28  C   UNL     1       9.007  12.626  17.548  0.00  0.00    +0.000 A 
ATOM     29  C   UNL     1       9.758  13.765  17.913  0.00  0.00    +0.000 A 
ATOM     30  N   UNL     1      11.100  13.919  18.078  0.00  0.00    +0.000 NA
ATOM     31  C   UNL     1      11.439  15.175  18.461  0.00  0.00    +0.000 A 
ATOM     32  C   UNL     1      10.521  16.199  18.660  0.00  0.00    +0.000 A 
ATOM     33 CL   UNL     1      11.030  17.762  19.153  0.00  0.00    +0.000 Cl
ATOM     34  N   UNL     1       9.185  16.075  18.486  0.00  0.00    +0.000 NA
ATOM     35  C   UNL     1       8.861  14.816  18.110  0.00  0.00    +0.000 A 
ENDBRANCH  25  26
ENDBRANCH   8  25
TORSDOF 4
ENDMDL
MODEL 4
REMARK VINA RESULT:      -7.9      4.042      7.664
REMARK  Name = 
REMARK  5 active torsions:
REMARK  status: ('A' for Active; 'I' for Inactive)
REMARK    1  A    between atoms: C_1  and  C_2
REMARK    2  A    between atoms: N_4  and  C_5
REMARK    3  A    between atoms: C_9  and  C_10
REMARK    4  A    between atoms: C_22  and  C_24
REMARK    5  A    between atoms: C_24  and  N_25
REMARK                            x       y       z     vdW  Elec       q    Type
REMARK                         _______ _______ _______ _____ _____    ______ ____
ROOT
ATOM      1  C   UNL     1      -0.514   8.347  21.535  0.00  0.00    +0.000 C 
ATOM      2  C   UNL     1       0.898   8.814  21.165  0.00  0.00    +0.000 C 
ATOM      3  C   UNL     1       1.223  10.185  21.820  0.00  0.00    +0.000 C 
ATOM      4  N   UNL     1       0.455  11.242  21.154  0.00  0.00    +0.000 N 
ATOM      5  C   UNL     1       0.692  11.330  19.700  0.00  0.00    +0.000 C 
ATOM      6  C   UNL     1       0.381   9.982  19.025  0.00  0.00    +0.000 C 
ATOM      7  N   UNL     1       1.084   8.870  19.692  0.00  0.00    +0.000 N 
ATOM      8  C   UNL     1       1.884   8.036  18.930  0.00  0.00    +0.000 C 
ATOM      9  O   UNL     1       2.036   8.214  17.716  0.00  0.00    +0.000 OA
ENDROOT
BRANCH   4  10
ATOM     10  C   UNL     1      -0.160  12.265  21.830  0.00  0.00    +0.000 A 
ATOM     11  S   UNL     1      -1.526  12.005  22.868  0.00  0.00    +0.000 S 
ATOM     12  C   UNL     1      -1.500  13.648  23.333  0.00  0.00    +0.000 A 
ATOM     13  N   UNL     1      -0.596  14.408  22.760  0.00  0.00    +0.000 NA
ATOM     14  C   UNL     1       0.126  13.636  21.854  0.00  0.00    +0.000 A 
BRANCH  14  15
ATOM     15  C   UNL     1       1.117  14.316  20.962  0.00  0.00    +0.000 A 
ATOM     16  N   UNL     1       0.841  15.075  19.924  0.00  0.00    +0.000 NA
ATOM     17  C   UNL     1       2.042  15.447  19.392  0.00  0.00    +0.000 A 
ATOM     18  C   UNL     1       2.309  16.239  18.269  0.00  0.00    +0.000 A 
ATOM     19  C   UNL     1       3.641  16.459  17.909  0.00  0.00    +0.000 A 
ATOM     20  C   UNL     1       4.681  15.898  18.653  0.00  0.00    +0.000 A 
ATOM     21  C   UNL     1       4.433  15.107  19.784  0.00  0.00    +0.000 A 
ATOM     22  C   UNL     1       3.095  14.910  20.124  0.00  0.00    +0.000 A 
ATOM     23  N   UNL     1       2.477  14.225  21.141  0.00  0.00    +0.000 N 
ATOM     24  H   UNL     1       2.918  13.702  21.884  0.00  0.00    +0.000 HD
ENDBRANCH  14  15
ENDBRANCH   4  10
BRANCH   8  25
ATOM     25  C   UNL     1       2.610   6.886  19.598  0.00  0.00    +0.000 C 
BRANCH  25  26
ATOM     26  N   UNL     1       2.852   5.788  18.677  0.00  0.00    +0.000 N 
ATOM     27  C   UNL     1       1.960   4.778  18.395  0.00  0.00    +0.000 A 
ATOM     28  C   UNL     1       2.539   3.938  17.464  0.00  0.00    +0.000 A 
ATOM     29  C   UNL     1       3.834   4.435  17.200  0.00  0.00    +0.000 A 
ATOM     30  N   UNL     1       4.804   3.966  16.369  0.00  0.00    +0.000 NA
ATOM     31  C   UNL     1       5.935   4.714  16.410  0.00  0.00    +0.000 A 
ATOM     32  C   UNL     1       6.089   5.842  17.206  0.00  0.00    +0.000 A 
ATOM     33 CL   UNL     1       7.556   6.733  17.207  0.00  0.00    +0.000 Cl
ATOM     34  N   UNL     1       5.133   6.338  18.026  0.00  0.00    +0.000 NA
ATOM     35  C   UNL     1       4.015   5.578  17.981  0.00  0.00    +0.000 A 
ENDBRANCH  25  26
ENDBRANCH   8  25
TORSDOF 4
ENDMDL
MODEL 5
REMARK VINA RESULT:      -7.9      4.276      8.409
REMARK  Name = 
REMARK  5 active torsions:
REMARK  status: ('A' for Active; 'I' for Inactive)
REMARK    1  A    between atoms: C_1  and  C_2
REMARK    2  A    between atoms: N_4  and  C_5
REMARK    3  A    between atoms: C_9  and  C_10
REMARK    4  A    between atoms: C_22  and  C_24
REMARK    5  A    between atoms: C_24  and  N_25
REMARK                            x       y       z     vdW  Elec       q    Type
REMARK                         _______ _______ _______ _____ _____    ______ ____
ROOT
ATOM      1  C   UNL     1      -0.358   8.332  21.857  0.00  0.00    +0.000 C 
ATOM      2  C   UNL     1       1.004   8.858  21.388  0.00  0.00    +0.000 C 
ATOM      3  C   UNL     1       1.265  10.293  21.925  0.00  0.00    +0.000 C 
ATOM      4  N   UNL     1       0.402  11.245  21.220  0.00  0.00    +0.000 N 
ATOM      5  C   UNL     1       0.571  11.238  19.754  0.00  0.00    +0.000 C 
ATOM      6  C   UNL     1       0.323   9.825  19.195  0.00  0.00    +0.000 C 
ATOM      7  N   UNL     1       1.124   8.813  19.908  0.00  0.00    +0.000 N 
ATOM      8  C   UNL     1       1.945   7.975  19.172  0.00  0.00    +0.000 C 
ATOM      9  O   UNL     1       2.034   8.070  17.943  0.00  0.00    +0.000 OA
ENDROOT
BRANCH   4  10
ATOM     10  C   UNL     1      -0.251  12.277  21.847  0.00  0.00    +0.000 A 
ATOM     11  S   UNL     1      -1.618  12.018  22.883  0.00  0.00    +0.000 S 
ATOM     12  C   UNL     1      -1.647  13.679  23.279  0.00  0.00    +0.000 A 
ATOM     13  N   UNL     1      -0.761  14.441  22.683  0.00  0.00    +0.000 NA
ATOM     14  C   UNL     1      -0.007  13.655  21.817  0.00  0.00    +0.000 A 
BRANCH  14  15
ATOM     15  C   UNL     1       0.973  14.328  20.906  0.00  0.00    +0.000 A 
ATOM     16  N   UNL     1       0.688  15.183  19.948  0.00  0.00    +0.000 NA
ATOM     17  C   UNL     1       1.876  15.506  19.359  0.00  0.00    +0.000 A 
ATOM     18  C   UNL     1       2.128  16.361  18.278  0.00  0.00    +0.000 A 
ATOM     19  C   UNL     1       3.446  16.510  17.839  0.00  0.00    +0.000 A 
ATOM     20  C   UNL     1       4.487  15.818  18.463  0.00  0.00    +0.000 A 
ATOM     21  C   UNL     1       4.254  14.963  19.550  0.00  0.00    +0.000 A 
ATOM     22  C   UNL     1       2.930  14.839  19.971  0.00  0.00    +0.000 A 
ATOM     23  N   UNL     1       2.331  14.124  20.979  0.00  0.00    +0.000 N 
ATOM     24  H   UNL     1       2.778  13.514  21.648  0.00  0.00    +0.000 HD
ENDBRANCH  14  15
ENDBRANCH   4  10
BRANCH   8  25
ATOM     25  C   UNL     1       2.773   6.927  19.889  0.00  0.00    +0.000 C 
BRANCH  25  26
ATOM     26  N   UNL     1       2.210   5.596  19.738  0.00  0.00    +0.000 N 
ATOM     27  C   UNL     1       1.204   5.066  20.515  0.00  0.00    +0.000 A 
ATOM     28  C   UNL     1       0.930   3.793  20.058  0.00  0.00    +0.000 A 
ATOM     29  C   UNL     1       1.820   3.529  18.993  0.00  0.00    +0.000 A 
ATOM     30  N   UNL     1       1.960   2.420  18.218  0.00  0.00    +0.000 NA
ATOM     31  C   UNL     1       2.956   2.543  17.304  0.00  0.00    +0.000 A 
ATOM     32  C   UNL     1       3.744   3.678  17.166  0.00  0.00    +0.000 A 
ATOM     33 CL   UNL     1       4.990   3.754  15.988  0.00  0.00    +0.000 Cl
ATOM     34  N   UNL     1       3.611   4.800  17.912  0.00  0.00    +0.000 NA
ATOM     35  C   UNL     1       2.621   4.660  18.823  0.00  0.00    +0.000 A 
ENDBRANCH  25  26
ENDBRANCH   8  25
TORSDOF 4
ENDMDL
MODEL 6
REMARK VINA RESULT:      -7.9      4.249      8.452
REMARK  Name = 
REMARK  5 active torsions:
REMARK  status: ('A' for Active; 'I' for Inactive)
REMARK    1  A    between atoms: C_1  and  C_2
REMARK    2  A    between atoms: N_4  and  C_5
REMARK    3  A    between atoms: C_9  and  C_10
REMARK    4  A    between atoms: C_22  and  C_24
REMARK    5  A    between atoms: C_24  and  N_25
REMARK                            x       y       z     vdW  Elec       q    Type
REMARK                         _______ _______ _______ _____ _____    ______ ____
ROOT
ATOM      1  C   UNL     1      -0.455   8.180  21.710  0.00  0.00    +0.000 C 
ATOM      2  C   UNL     1       0.967   8.664  21.407  0.00  0.00    +0.000 C 
ATOM      3  C   UNL     1       1.218  10.075  22.009  0.00  0.00    +0.000 C 
ATOM      4  N   UNL     1       0.472  11.076  21.241  0.00  0.00    +0.000 N 
ATOM      5  C   UNL     1       0.802  11.097  19.802  0.00  0.00    +0.000 C 
ATOM      6  C   UNL     1       0.566   9.708  19.180  0.00  0.00    +0.000 C 
ATOM      7  N   UNL     1       1.248   8.649  19.948  0.00  0.00    +0.000 N 
ATOM      8  C   UNL     1       2.115   7.799  19.284  0.00  0.00    +0.000 C 
ATOM      9  O   UNL     1       2.342   7.918  18.075  0.00  0.00    +0.000 OA
ENDROOT
BRANCH   4  10
ATOM     10  C   UNL     1      -0.209  12.117  21.821  0.00  0.00    +0.000 A 
ATOM     11  S   UNL     1      -1.716  11.894  22.650  0.00  0.00    +0.000 S 
ATOM     12  C   UNL     1      -1.717  13.537  23.115  0.00  0.00    +0.000 A 
ATOM     13  N   UNL     1      -0.721  14.272  22.679  0.00  0.00    +0.000 NA
ATOM     14  C   UNL     1       0.105  13.480  21.887  0.00  0.00    +0.000 A 
BRANCH  14  15
ATOM     15  C   UNL     1       1.232  14.133  21.148  0.00  0.00    +0.000 A 
ATOM     16  N   UNL     1       2.513  14.034  21.432  0.00  0.00    +0.000 NA
ATOM     17  C   UNL     1       3.166  14.818  20.525  0.00  0.00    +0.000 A 
ATOM     18  C   UNL     1       4.537  15.077  20.400  0.00  0.00    +0.000 A 
ATOM     19  C   UNL     1       4.961  15.946  19.392  0.00  0.00    +0.000 A 
ATOM     20  C   UNL     1       4.039  16.545  18.532  0.00  0.00    +0.000 A 
ATOM     21  C   UNL     1       2.663  16.293  18.639  0.00  0.00    +0.000 A 
ATOM     22  C   UNL     1       2.268  15.416  19.649  0.00  0.00    +0.000 A 
ATOM     23  N   UNL     1       1.045  14.932  20.044  0.00  0.00    +0.000 N 
ATOM     24  H   UNL     1       0.144  15.140  19.640  0.00  0.00    +0.000 HD
ENDBRANCH  14  15
ENDBRANCH   4  10
BRANCH   8  25
ATOM     25  C   UNL     1       2.821   6.703  20.057  0.00  0.00    +0.000 C 
BRANCH  25  26
ATOM     26  N   UNL     1       2.233   5.398  19.807  0.00  0.00    +0.000 N 
ATOM     27  C   UNL     1       1.172   4.859  20.500  0.00  0.00    +0.000 A 
ATOM     28  C   UNL     1       0.890   3.619  19.963  0.00  0.00    +0.000 A 
ATOM     29  C   UNL     1       1.831   3.383  18.937  0.00  0.00    +0.000 A 
ATOM     30  N   UNL     1       1.986   2.310  18.114  0.00  0.00    +0.000 NA
ATOM     31  C   UNL     1       3.033   2.450  17.264  0.00  0.00    +0.000 A 
ATOM     32  C   UNL     1       3.858   3.567  17.228  0.00  0.00    +0.000 A 
ATOM     33 CL   UNL     1       5.169   3.666  16.125  0.00  0.00    +0.000 Cl
ATOM     34  N   UNL     1       3.712   4.653  18.022  0.00  0.00    +0.000 NA
ATOM     35  C   UNL     1       2.670   4.497  18.869  0.00  0.00    +0.000 A 
ENDBRANCH  25  26
ENDBRANCH   8  25
TORSDOF 4
ENDMDL
MODEL 7
REMARK VINA RESULT:      -7.9      5.183      8.031
REMARK  Name = 
REMARK  5 active torsions:
REMARK  status: ('A' for Active; 'I' for Inactive)
REMARK    1  A    between atoms: C_1  and  C_2
REMARK    2  A    between atoms: N_4  and  C_5
REMARK    3  A    between atoms: C_9  and  C_10
REMARK    4  A    between atoms: C_22  and  C_24
REMARK    5  A    between atoms: C_24  and  N_25
REMARK                            x       y       z     vdW  Elec       q    Type
REMARK                         _______ _______ _______ _____ _____    ______ ____
ROOT
ATOM      1  C   UNL     1      -0.189   9.418  21.849  0.00  0.00    +0.000 C 
ATOM      2  C   UNL     1       0.674  10.199  20.852  0.00  0.00    +0.000 C 
ATOM      3  C   UNL     1       0.538  11.731  21.076  0.00  0.00    +0.000 C 
ATOM      4  N   UNL     1      -0.784  12.178  20.627  0.00  0.00    +0.000 N 
ATOM      5  C   UNL     1      -1.075  11.866  19.214  0.00  0.00    +0.000 C 
ATOM      6  C   UNL     1      -0.943  10.353  18.962  0.00  0.00    +0.000 C 
ATOM      7  N   UNL     1       0.349   9.835  19.449  0.00  0.00    +0.000 N 
ATOM      8  C   UNL     1       1.157   9.132  18.571  0.00  0.00    +0.000 C 
ATOM      9  O   UNL     1       0.830   8.948  17.394  0.00  0.00    +0.000 OA
ENDROOT
BRANCH   4  10
ATOM     10  C   UNL     1      -1.548  13.084  21.318  0.00  0.00    +0.000 A 
ATOM     11  S   UNL     1      -2.708  12.600  22.514  0.00  0.00    +0.000 S 
ATOM     12  C   UNL     1      -3.015  14.236  22.896  0.00  0.00    +0.000 A 
ATOM     13  N   UNL     1      -2.371  15.136  22.189  0.00  0.00    +0.000 NA
ATOM     14  C   UNL     1      -1.584  14.482  21.245  0.00  0.00    +0.000 A 
BRANCH  14  15
ATOM     15  C   UNL     1      -0.868  15.301  20.216  0.00  0.00    +0.000 A 
ATOM     16  N   UNL     1       0.425  15.290  19.971  0.00  0.00    +0.000 NA
ATOM     17  C   UNL     1       0.634  16.213  18.987  0.00  0.00    +0.000 A 
ATOM     18  C   UNL     1       1.832  16.604  18.377  0.00  0.00    +0.000 A 
ATOM     19  C   UNL     1       1.787  17.601  17.398  0.00  0.00    +0.000 A 
ATOM     20  C   UNL     1       0.575  18.195  17.041  0.00  0.00    +0.000 A 
ATOM     21  C   UNL     1      -0.635  17.812  17.638  0.00  0.00    +0.000 A 
ATOM     22  C   UNL     1      -0.562  16.810  18.605  0.00  0.00    +0.000 A 
ATOM     23  N   UNL     1      -1.508  16.182  19.378  0.00  0.00    +0.000 N 
ATOM     24  H   UNL     1      -2.505  16.347  19.381  0.00  0.00    +0.000 HD
ENDBRANCH  14  15
ENDBRANCH   4  10
BRANCH   8  25
ATOM     25  C   UNL     1       2.487   8.590  19.056  0.00  0.00    +0.000 C 
BRANCH  25  26
ATOM     26  N   UNL     1       2.420   7.167  19.343  0.00  0.00    +0.000 N 
ATOM     27  C   UNL     1       1.748   6.602  20.405  0.00  0.00    +0.000 A 
ATOM     28  C   UNL     1       1.898   5.231  20.330  0.00  0.00    +0.000 A 
ATOM     29  C   UNL     1       2.714   4.958  19.209  0.00  0.00    +0.000 A 
ATOM     30  N   UNL     1       3.160   3.773  18.713  0.00  0.00    +0.000 NA
ATOM     31  C   UNL     1       3.952   3.928  17.622  0.00  0.00    +0.000 A 
ATOM     32  C   UNL     1       4.270   5.159  17.064  0.00  0.00    +0.000 A 
ATOM     33 CL   UNL     1       5.285   5.272  15.685  0.00  0.00    +0.000 Cl
ATOM     34  N   UNL     1       3.823   6.350  17.529  0.00  0.00    +0.000 NA
ATOM     35  C   UNL     1       3.042   6.181  18.620  0.00  0.00    +0.000 A 
ENDBRANCH  25  26
ENDBRANCH   8  25
TORSDOF 4
ENDMDL
MODEL 8
REMARK VINA RESULT:      -7.9      4.012      7.710
REMARK  Name = 
REMARK  5 active torsions:
REMARK  status: ('A' for Active; 'I' for Inactive)
REMARK    1  A    between atoms: C_1  and  C_2
REMARK    2  A    between atoms: N_4  and  C_5
REMARK    3  A    between atoms: C_9  and  C_10
REMARK    4  A    between atoms: C_22  and  C_24
REMARK    5  A    between atoms: C_24  and  N_25
REMARK                            x       y       z     vdW  Elec       q    Type
REMARK                         _______ _______ _______ _____ _____    ______ ____
ROOT
ATOM      1  C   UNL     1      -0.497   8.412  21.575  0.00  0.00    +0.000 C 
ATOM      2  C   UNL     1       0.916   8.853  21.180  0.00  0.00    +0.000 C 
ATOM      3  C   UNL     1       1.269  10.229  21.810  0.00  0.00    +0.000 C 
ATOM      4  N   UNL     1       0.508  11.287  21.140  0.00  0.00    +0.000 N 
ATOM      5  C   UNL     1       0.727  11.351  19.682  0.00  0.00    +0.000 C 
ATOM      6  C   UNL     1       0.388   9.997  19.030  0.00  0.00    +0.000 C 
ATOM      7  N   UNL     1       1.083   8.885  19.704  0.00  0.00    +0.000 N 
ATOM      8  C   UNL     1       1.861   8.029  18.943  0.00  0.00    +0.000 C 
ATOM      9  O   UNL     1       2.000   8.187  17.725  0.00  0.00    +0.000 OA
ENDROOT
BRANCH   4  10
ATOM     10  C   UNL     1      -0.084  12.328  21.808  0.00  0.00    +0.000 A 
ATOM     11  S   UNL     1      -1.575  12.149  22.675  0.00  0.00    +0.000 S 
ATOM     12  C   UNL     1      -1.453  13.754  23.243  0.00  0.00    +0.000 A 
ATOM     13  N   UNL     1      -0.424  14.451  22.820  0.00  0.00    +0.000 NA
ATOM     14  C   UNL     1       0.322  13.661  21.950  0.00  0.00    +0.000 A 
BRANCH  14  15
ATOM     15  C   UNL     1       1.466  14.287  21.214  0.00  0.00    +0.000 A 
ATOM     16  N   UNL     1       2.736  14.234  21.555  0.00  0.00    +0.000 NA
ATOM     17  C   UNL     1       3.412  14.970  20.625  0.00  0.00    +0.000 A 
ATOM     18  C   UNL     1       4.781  15.248  20.537  0.00  0.00    +0.000 A 
ATOM     19  C   UNL     1       5.231  16.058  19.491  0.00  0.00    +0.000 A 
ATOM     20  C   UNL     1       4.334  16.580  18.557  0.00  0.00    +0.000 A 
ATOM     21  C   UNL     1       2.960  16.308  18.627  0.00  0.00    +0.000 A 
ATOM     22  C   UNL     1       2.539  15.491  19.676  0.00  0.00    +0.000 A 
ATOM     23  N   UNL     1       1.311  15.009  20.054  0.00  0.00    +0.000 N 
ATOM     24  H   UNL     1       0.422  15.172  19.602  0.00  0.00    +0.000 HD
ENDBRANCH  14  15
ENDBRANCH   4  10
BRANCH   8  25
ATOM     25  C   UNL     1       2.579   6.878  19.619  0.00  0.00    +0.000 C 
BRANCH  25  26
ATOM     26  N   UNL     1       2.786   5.761  18.713  0.00  0.00    +0.000 N 
ATOM     27  C   UNL     1       1.876   4.755  18.473  0.00  0.00    +0.000 A 
ATOM     28  C   UNL     1       2.422   3.892  17.544  0.00  0.00    +0.000 A 
ATOM     29  C   UNL     1       3.715   4.369  17.236  0.00  0.00    +0.000 A 
ATOM     30  N   UNL     1       4.658   3.875  16.389  0.00  0.00    +0.000 NA
ATOM     31  C   UNL     1       5.797   4.612  16.387  0.00  0.00    +0.000 A 
ATOM     32  C   UNL     1       5.983   5.752  17.157  0.00  0.00    +0.000 A 
ATOM     33 CL   UNL     1       7.458   6.628  17.102  0.00  0.00    +0.000 Cl
ATOM     34  N   UNL     1       5.054   6.274  17.992  0.00  0.00    +0.000 NA
ATOM     35  C   UNL     1       3.928   5.525  17.990  0.00  0.00    +0.000 A 
ENDBRANCH  25  26
ENDBRANCH   8  25
TORSDOF 4
ENDMDL
MODEL 9
REMARK VINA RESULT:      -7.8      4.428      7.654
REMARK  Name = 
REMARK  5 active torsions:
REMARK  status: ('A' for Active; 'I' for Inactive)
REMARK    1  A    between atoms: C_1  and  C_2
REMARK    2  A    between atoms: N_4  and  C_5
REMARK    3  A    between atoms: C_9  and  C_10
REMARK    4  A    between atoms: C_22  and  C_24
REMARK    5  A    between atoms: C_24  and  N_25
REMARK                            x       y       z     vdW  Elec       q    Type
REMARK                         _______ _______ _______ _____ _____    ______ ____
ROOT
ATOM      1  C   UNL     1       1.970  11.509  18.314  0.00  0.00    +0.000 C 
ATOM      2  C   UNL     1       0.959  10.363  18.422  0.00  0.00    +0.000 C 
ATOM      3  C   UNL     1      -0.484  10.906  18.621  0.00  0.00    +0.000 C 
ATOM      4  N   UNL     1      -0.620  11.454  19.973  0.00  0.00    +0.000 N 
ATOM      5  C   UNL     1      -0.314  10.488  21.046  0.00  0.00    +0.000 C 
ATOM      6  C   UNL     1       1.110   9.929  20.871  0.00  0.00    +0.000 C 
ATOM      7  N   UNL     1       1.324   9.414  19.506  0.00  0.00    +0.000 N 
ATOM      8  C   UNL     1       1.771   8.113  19.347  0.00  0.00    +0.000 C 
ATOM      9  O   UNL     1       1.973   7.374  20.317  0.00  0.00    +0.000 OA
ENDROOT
BRANCH   4  10
ATOM     10  C   UNL     1      -1.283  12.624  20.249  0.00  0.00    +0.000 A 
ATOM     11  S   UNL     1      -2.984  12.671  20.585  0.00  0.00    +0.000 S 
ATOM     12  C   UNL     1      -2.883  14.341  20.924  0.00  0.00    +0.000 A 
ATOM     13  N   UNL     1      -1.706  14.902  20.773  0.00  0.00    +0.000 NA
ATOM     14  C   UNL     1      -0.807  13.938  20.325  0.00  0.00    +0.000 A 
BRANCH  14  15
ATOM     15  C   UNL     1       0.572  14.371  19.932  0.00  0.00    +0.000 A 
ATOM     16  N   UNL     1       0.917  14.943  18.798  0.00  0.00    +0.000 NA
ATOM     17  C   UNL     1       2.268  15.125  18.859  0.00  0.00    +0.000 A 
ATOM     18  C   UNL     1       3.133  15.676  17.905  0.00  0.00    +0.000 A 
ATOM     19  C   UNL     1       4.499  15.730  18.197  0.00  0.00    +0.000 A 
ATOM     20  C   UNL     1       4.988  15.243  19.410  0.00  0.00    +0.000 A 
ATOM     21  C   UNL     1       4.136  14.694  20.380  0.00  0.00    +0.000 A 
ATOM     22  C   UNL     1       2.777  14.659  20.065  0.00  0.00    +0.000 A 
ATOM     23  N   UNL     1       1.669  14.218  20.746  0.00  0.00    +0.000 N 
ATOM     24  H   UNL     1       1.639  13.811  21.669  0.00  0.00    +0.000 HD
ENDBRANCH  14  15
ENDBRANCH   4  10
BRANCH   8  25
ATOM     25  C   UNL     1       2.000   7.570  17.951  0.00  0.00    +0.000 C 
BRANCH  25  26
ATOM     26  N   UNL     1       3.086   6.605  17.916  0.00  0.00    +0.000 N 
ATOM     27  C   UNL     1       4.407   6.906  17.672  0.00  0.00    +0.000 A 
ATOM     28  C   UNL     1       5.136   5.735  17.740  0.00  0.00    +0.000 A 
ATOM     29  C   UNL     1       4.224   4.688  17.999  0.00  0.00    +0.000 A 
ATOM     30  N   UNL     1       4.436   3.352  18.146  0.00  0.00    +0.000 NA
ATOM     31  C   UNL     1       3.289   2.661  18.363  0.00  0.00    +0.000 A 
ATOM     32  C   UNL     1       2.033   3.248  18.434  0.00  0.00    +0.000 A 
ATOM     33 CL   UNL     1       0.626   2.303  18.705  0.00  0.00    +0.000 Cl
ATOM     34  N   UNL     1       1.799   4.576  18.309  0.00  0.00    +0.000 NA
ATOM     35  C   UNL     1       2.949   5.251  18.086  0.00  0.00    +0.000 A 
ENDBRANCH  25  26
ENDBRANCH   8  25
TORSDOF 4
ENDMDL
