MODEL 1
REMARK VINA RESULT:      -7.9      0.000      0.000
REMARK  Name = 
REMARK  9 active torsions:
REMARK  status: ('A' for Active; 'I' for Inactive)
REMARK    1  A    between atoms: C_1  and  N_2
REMARK    2  A    between atoms: N_2  and  C_3
REMARK    3  A    between atoms: C_5  and  N_6
REMARK    4  A    between atoms: C_7  and  O_9
REMARK    5  A    between atoms: O_9  and  C_10
REMARK    6  A    between atoms: C_13  and  N_14
REMARK    7  A    between atoms: N_14  and  C_15
REMARK    8  A    between atoms: C_25  and  O_26
REMARK    9  A    between atoms: O_26  and  C_27
REMARK                            x       y       z     vdW  Elec       q    Type
REMARK                         _______ _______ _______ _____ _____    ______ ____
ROOT
ATOM      1  N   UNL     1       2.019   6.604  19.136  0.00  0.00    +0.000 N 
ATOM      2  H   UNL     1       1.504   6.202  18.346  0.00  0.00    +0.000 HD
ENDROOT
BRANCH   1   3
ATOM      3  C   UNL     1       3.260   5.851  19.215  0.00  0.00    +0.000 A 
ATOM      4  C   UNL     1       4.190   5.732  18.123  0.00  0.00    +0.000 A 
ATOM      5  C   UNL     1       4.162   6.362  16.850  0.00  0.00    +0.000 A 
ATOM      6  C   UNL     1       5.172   6.154  15.905  0.00  0.00    +0.000 A 
ATOM      7  C   UNL     1       6.262   5.360  16.230  0.00  0.00    +0.000 A 
ATOM      8 BR   UNL     1       7.639   5.072  14.974  0.00  0.00    +0.000 Br
ATOM      9  C   UNL     1       6.281   4.684  17.435  0.00  0.00    +0.000 A 
ATOM     10  C   UNL     1       5.203   4.773  18.294  0.00  0.00    +0.000 A 
ATOM     11  N   UNL     1       5.027   3.760  19.116  0.00  0.00    +0.000 NA
ATOM     12  C   UNL     1       3.841   3.681  19.748  0.00  0.00    +0.000 A 
ATOM     13  C   UNL     1       2.919   2.627  19.639  0.00  0.00    +0.000 A 
ATOM     14  C   UNL     1       1.781   2.617  20.459  0.00  0.00    +0.000 A 
ATOM     15  C   UNL     1       1.612   3.609  21.418  0.00  0.00    +0.000 A 
ATOM     16  C   UNL     1       2.385   4.751  21.303  0.00  0.00    +0.000 A 
ATOM     17  C   UNL     1       3.270   4.832  20.211  0.00  0.00    +0.000 A 
BRANCH  13  18
ATOM     18  O   UNL     1       2.917   1.638  18.683  0.00  0.00    +0.000 OA
ATOM     19  C   UNL     1       2.637   2.000  17.336  0.00  0.00    +0.000 C 
ENDBRANCH  13  18
ENDBRANCH   1   3
BRANCH   1  25
ATOM     20  C   UNL     1       1.295   8.747  20.121  0.00  0.00    +0.000 A 
ATOM     21  C   UNL     1       0.991  10.100  19.887  0.00  0.00    +0.000 A 
ATOM     22  C   UNL     1       1.360  10.761  18.711  0.00  0.00    +0.000 A 
ATOM     23  C   UNL     1       2.023  10.041  17.718  0.00  0.00    +0.000 A 
ATOM     24  C   UNL     1       2.297   8.695  17.895  0.00  0.00    +0.000 A 
ATOM     25  C   UNL     1       1.853   8.019  19.037  0.00  0.00    +0.000 A 
BRANCH  22  26
ATOM     26  N   UNL     1       1.065  12.123  18.478  0.00  0.00    +0.000 N 
ATOM     27  C   UNL     1       1.690  13.191  19.059  0.00  0.00    +0.000 C 
ATOM     28  O   UNL     1       2.640  13.181  19.816  0.00  0.00    +0.000 OA
ATOM     29  H   UNL     1       0.361  12.354  17.796  0.00  0.00    +0.000 HD
BRANCH  27  30
ATOM     30  O   UNL     1       1.067  14.334  18.643  0.00  0.00    +0.000 OA
ATOM     31  C   UNL     1      -0.308  14.368  19.038  0.00  0.00    +0.000 C 
ENDBRANCH  27  30
ENDBRANCH  22  26
BRANCH  20  33
ATOM     32  C   UNL     1      -0.341   8.592  21.953  0.00  0.00    +0.000 C 
ATOM     33  N   UNL     1       0.892   8.107  21.317  0.00  0.00    +0.000 N 
ATOM     34  H   UNL     1       1.659   8.128  21.988  0.00  0.00    +0.000 HD
ENDBRANCH  20  33
ENDBRANCH   1  25
TORSDOF 6
ENDMDL
MODEL 2
REMARK VINA RESULT:      -7.4      3.565      9.187
REMARK  Name = 
REMARK  9 active torsions:
REMARK  status: ('A' for Active; 'I' for Inactive)
REMARK    1  A    between atoms: C_1  and  N_2
REMARK    2  A    between atoms: N_2  and  C_3
REMARK    3  A    between atoms: C_5  and  N_6
REMARK    4  A    between atoms: C_7  and  O_9
REMARK    5  A    between atoms: O_9  and  C_10
REMARK    6  A    between atoms: C_13  and  N_14
REMARK    7  A    between atoms: N_14  and  C_15
REMARK    8  A    between atoms: C_25  and  O_26
REMARK    9  A    between atoms: O_26  and  C_27
REMARK                            x       y       z     vdW  Elec       q    Type
REMARK                         _______ _______ _______ _____ _____    ______ ____
ROOT
ATOM      1  N   UNL     1       1.262  10.610  18.847  0.00  0.00    +0.000 N 
ATOM      2  H   UNL     1       1.212  10.801  17.840  0.00  0.00    +0.000 HD
ENDROOT
BRANCH   1   3
ATOM      3  C   UNL     1       0.139  11.323  19.433  0.00  0.00    +0.000 A 
ATOM      4  C   UNL     1      -1.208  11.238  18.933  0.00  0.00    +0.000 A 
ATOM      5  C   UNL     1      -1.727  10.419  17.895  0.00  0.00    +0.000 A 
ATOM      6  C   UNL     1      -3.082  10.443  17.549  0.00  0.00    +0.000 A 
ATOM      7  C   UNL     1      -3.960  11.239  18.270  0.00  0.00    +0.000 A 
ATOM      8 BR   UNL     1      -5.792  11.281  17.826  0.00  0.00    +0.000 Br
ATOM      9  C   UNL     1      -3.470  12.093  19.240  0.00  0.00    +0.000 A 
ATOM     10  C   UNL     1      -2.109  12.176  19.463  0.00  0.00    +0.000 A 
ATOM     11  N   UNL     1      -1.669  13.311  19.966  0.00  0.00    +0.000 NA
ATOM     12  C   UNL     1      -0.342  13.527  19.921  0.00  0.00    +0.000 A 
ATOM     13  C   UNL     1       0.298  14.583  19.250  0.00  0.00    +0.000 A 
ATOM     14  C   UNL     1       1.681  14.759  19.398  0.00  0.00    +0.000 A 
ATOM     15  C   UNL     1       2.394  13.936  20.262  0.00  0.00    +0.000 A 
ATOM     16  C   UNL     1       1.787  12.763  20.677  0.00  0.00    +0.000 A 
ATOM     17  C   UNL     1       0.500  12.482  20.177  0.00  0.00    +0.000 A 
BRANCH  13  18
ATOM     18  O   UNL     1      -0.264  15.410  18.306  0.00  0.00    +0.000 OA
ATOM     19  C   UNL     1      -0.542  16.758  18.667  0.00  0.00    +0.000 C 
ENDBRANCH  13  18
ENDBRANCH   1   3
BRANCH   1  25
ATOM     20  C   UNL     1       1.433   8.567  20.219  0.00  0.00    +0.000 A 
ATOM     21  C   UNL     1       1.943   7.260  20.315  0.00  0.00    +0.000 A 
ATOM     22  C   UNL     1       2.433   6.560  19.207  0.00  0.00    +0.000 A 
ATOM     23  C   UNL     1       2.449   7.198  17.967  0.00  0.00    +0.000 A 
ATOM     24  C   UNL     1       1.998   8.502  17.844  0.00  0.00    +0.000 A 
ATOM     25  C   UNL     1       1.586   9.225  18.970  0.00  0.00    +0.000 A 
BRANCH  22  26
ATOM     26  N   UNL     1       2.936   5.243  19.299  0.00  0.00    +0.000 N 
ATOM     27  C   UNL     1       4.255   4.889  19.340  0.00  0.00    +0.000 C 
ATOM     28  O   UNL     1       5.227   5.619  19.373  0.00  0.00    +0.000 OA
ATOM     29  H   UNL     1       2.282   4.483  19.384  0.00  0.00    +0.000 HD
BRANCH  27  30
ATOM     30  O   UNL     1       4.336   3.525  19.344  0.00  0.00    +0.000 OA
ATOM     31  C   UNL     1       3.753   2.951  18.169  0.00  0.00    +0.000 C 
ENDBRANCH  27  30
ENDBRANCH  22  26
BRANCH  20  33
ATOM     32  C   UNL     1      -0.288   8.761  21.967  0.00  0.00    +0.000 C 
ATOM     33  N   UNL     1       0.960   9.249  21.366  0.00  0.00    +0.000 N 
ATOM     34  H   UNL     1       0.879  10.244  21.159  0.00  0.00    +0.000 HD
ENDBRANCH  20  33
ENDBRANCH   1  25
TORSDOF 6
ENDMDL
MODEL 3
REMARK VINA RESULT:      -7.1      7.945     10.530
REMARK  Name = 
REMARK  9 active torsions:
REMARK  status: ('A' for Active; 'I' for Inactive)
REMARK    1  A    between atoms: C_1  and  N_2
REMARK    2  A    between atoms: N_2  and  C_3
REMARK    3  A    between atoms: C_5  and  N_6
REMARK    4  A    between atoms: C_7  and  O_9
REMARK    5  A    between atoms: O_9  and  C_10
REMARK    6  A    between atoms: C_13  and  N_14
REMARK    7  A    between atoms: N_14  and  C_15
REMARK    8  A    between atoms: C_25  and  O_26
REMARK    9  A    between atoms: O_26  and  C_27
REMARK                            x       y       z     vdW  Elec       q    Type
REMARK                         _______ _______ _______ _____ _____    ______ ____
ROOT
ATOM      1  N   UNL     1       9.685  14.500  21.694  0.00  0.00    +0.000 N 
ATOM      2  H   UNL     1      10.653  14.161  21.727  0.00  0.00    +0.000 HD
ENDROOT
BRANCH   1   3
ATOM      3  C   UNL     1       9.349  14.579  20.281  0.00  0.00    +0.000 A 
ATOM      4  C   UNL     1       8.007  14.755  19.791  0.00  0.00    +0.000 A 
ATOM      5  C   UNL     1       6.810  14.981  20.521  0.00  0.00    +0.000 A 
ATOM      6  C   UNL     1       5.581  15.159  19.877  0.00  0.00    +0.000 A 
ATOM      7  C   UNL     1       5.528  15.176  18.491  0.00  0.00    +0.000 A 
ATOM      8 BR   UNL     1       3.882  15.422  17.603  0.00  0.00    +0.000 Br
ATOM      9  C   UNL     1       6.666  14.894  17.760  0.00  0.00    +0.000 A 
ATOM     10  C   UNL     1       7.840  14.563  18.409  0.00  0.00    +0.000 A 
ATOM     11  N   UNL     1       8.690  13.819  17.734  0.00  0.00    +0.000 NA
ATOM     12  C   UNL     1       9.690  13.246  18.428  0.00  0.00    +0.000 A 
ATOM     13  C   UNL     1       9.922  11.866  18.550  0.00  0.00    +0.000 A 
ATOM     14  C   UNL     1      11.081  11.414  19.199  0.00  0.00    +0.000 A 
ATOM     15  C   UNL     1      12.023  12.332  19.649  0.00  0.00    +0.000 A 
ATOM     16  C   UNL     1      11.630  13.655  19.753  0.00  0.00    +0.000 A 
ATOM     17  C   UNL     1      10.300  13.969  19.414  0.00  0.00    +0.000 A 
BRANCH  13  18
ATOM     18  O   UNL     1       9.042  10.858  18.231  0.00  0.00    +0.000 OA
ATOM     19  C   UNL     1       9.018   9.696  19.051  0.00  0.00    +0.000 C 
ENDBRANCH  13  18
ENDBRANCH   1   3
BRANCH   1  25
ATOM     20  C   UNL     1       8.535  14.504  23.876  0.00  0.00    +0.000 A 
ATOM     21  C   UNL     1       8.023  13.728  24.931  0.00  0.00    +0.000 A 
ATOM     22  C   UNL     1       7.807  12.351  24.817  0.00  0.00    +0.000 A 
ATOM     23  C   UNL     1       8.146  11.718  23.622  0.00  0.00    +0.000 A 
ATOM     24  C   UNL     1       8.697  12.443  22.577  0.00  0.00    +0.000 A 
ATOM     25  C   UNL     1       8.987  13.804  22.727  0.00  0.00    +0.000 A 
BRANCH  22  26
ATOM     26  N   UNL     1       7.282  11.571  25.872  0.00  0.00    +0.000 N 
ATOM     27  C   UNL     1       5.993  11.133  25.981  0.00  0.00    +0.000 C 
ATOM     28  O   UNL     1       5.086  11.264  25.183  0.00  0.00    +0.000 OA
ATOM     29  H   UNL     1       7.905  11.265  26.600  0.00  0.00    +0.000 HD
BRANCH  27  30
ATOM     30  O   UNL     1       5.858  10.484  27.177  0.00  0.00    +0.000 OA
ATOM     31  C   UNL     1       4.524  10.006  27.378  0.00  0.00    +0.000 C 
ENDBRANCH  27  30
ENDBRANCH  22  26
BRANCH  20  33
ATOM     32  C   UNL     1       7.628  16.787  23.735  0.00  0.00    +0.000 C 
ATOM     33  N   UNL     1       8.755  15.893  24.035  0.00  0.00    +0.000 N 
ATOM     34  H   UNL     1       9.571  16.172  23.493  0.00  0.00    +0.000 HD
ENDBRANCH  20  33
ENDBRANCH   1  25
TORSDOF 6
ENDMDL
MODEL 4
REMARK VINA RESULT:      -7.0      2.112      2.280
REMARK  Name = 
REMARK  9 active torsions:
REMARK  status: ('A' for Active; 'I' for Inactive)
REMARK    1  A    between atoms: C_1  and  N_2
REMARK    2  A    between atoms: N_2  and  C_3
REMARK    3  A    between atoms: C_5  and  N_6
REMARK    4  A    between atoms: C_7  and  O_9
REMARK    5  A    between atoms: O_9  and  C_10
REMARK    6  A    between atoms: C_13  and  N_14
REMARK    7  A    between atoms: N_14  and  C_15
REMARK    8  A    between atoms: C_25  and  O_26
REMARK    9  A    between atoms: O_26  and  C_27
REMARK                            x       y       z     vdW  Elec       q    Type
REMARK                         _______ _______ _______ _____ _____    ______ ____
ROOT
ATOM      1  N   UNL     1       3.052   6.705  20.328  0.00  0.00    +0.000 N 
ATOM      2  H   UNL     1       2.472   6.346  21.094  0.00  0.00    +0.000 HD
ENDROOT
BRANCH   1   3
ATOM      3  C   UNL     1       3.664   5.534  19.722  0.00  0.00    +0.000 A 
ATOM      4  C   UNL     1       4.323   5.552  18.443  0.00  0.00    +0.000 A 
ATOM      5  C   UNL     1       4.599   6.657  17.593  0.00  0.00    +0.000 A 
ATOM      6  C   UNL     1       5.281   6.499  16.383  0.00  0.00    +0.000 A 
ATOM      7  C   UNL     1       5.755   5.247  16.020  0.00  0.00    +0.000 A 
ATOM      8 BR   UNL     1       6.683   5.013  14.395  0.00  0.00    +0.000 Br
ATOM      9  C   UNL     1       5.444   4.147  16.796  0.00  0.00    +0.000 A 
ATOM     10  C   UNL     1       4.635   4.291  17.907  0.00  0.00    +0.000 A 
ATOM     11  N   UNL     1       3.957   3.225  18.277  0.00  0.00    +0.000 NA
ATOM     12  C   UNL     1       2.957   3.410  19.158  0.00  0.00    +0.000 A 
ATOM     13  C   UNL     1       1.600   3.124  18.935  0.00  0.00    +0.000 A 
ATOM     14  C   UNL     1       0.685   3.244  19.991  0.00  0.00    +0.000 A 
ATOM     15  C   UNL     1       1.137   3.574  21.263  0.00  0.00    +0.000 A 
ATOM     16  C   UNL     1       2.411   4.105  21.373  0.00  0.00    +0.000 A 
ATOM     17  C   UNL     1       3.145   4.291  20.185  0.00  0.00    +0.000 A 
BRANCH  13  18
ATOM     18  O   UNL     1       1.007   2.874  17.719  0.00  0.00    +0.000 OA
ATOM     19  C   UNL     1       0.840   3.958  16.813  0.00  0.00    +0.000 C 
ENDBRANCH  13  18
ENDBRANCH   1   3
BRANCH   1  25
ATOM     20  C   UNL     1       1.556   8.661  20.474  0.00  0.00    +0.000 A 
ATOM     21  C   UNL     1       0.676   9.517  19.787  0.00  0.00    +0.000 A 
ATOM     22  C   UNL     1       0.619   9.573  18.391  0.00  0.00    +0.000 A 
ATOM     23  C   UNL     1       1.441   8.723  17.653  0.00  0.00    +0.000 A 
ATOM     24  C   UNL     1       2.287   7.834  18.296  0.00  0.00    +0.000 A 
ATOM     25  C   UNL     1       2.280   7.724  19.692  0.00  0.00    +0.000 A 
BRANCH  22  26
ATOM     26  N   UNL     1      -0.258  10.438  17.698  0.00  0.00    +0.000 N 
ATOM     27  C   UNL     1      -1.611  10.284  17.580  0.00  0.00    +0.000 C 
ATOM     28  O   UNL     1      -2.316   9.435  18.089  0.00  0.00    +0.000 OA
ATOM     29  H   UNL     1       0.120  11.272  17.280  0.00  0.00    +0.000 HD
BRANCH  27  30
ATOM     30  O   UNL     1      -2.088  11.276  16.770  0.00  0.00    +0.000 OA
ATOM     31  C   UNL     1      -2.808  10.750  15.650  0.00  0.00    +0.000 C 
ENDBRANCH  27  30
ENDBRANCH  22  26
BRANCH  20  33
ATOM     32  C   UNL     1       0.516   9.356  22.594  0.00  0.00    +0.000 C 
ATOM     33  N   UNL     1       1.575   8.621  21.889  0.00  0.00    +0.000 N 
ATOM     34  H   UNL     1       2.488   8.924  22.225  0.00  0.00    +0.000 HD
ENDBRANCH  20  33
ENDBRANCH   1  25
TORSDOF 6
ENDMDL
MODEL 5
REMARK VINA RESULT:      -7.0      3.692      9.399
REMARK  Name = 
REMARK  9 active torsions:
REMARK  status: ('A' for Active; 'I' for Inactive)
REMARK    1  A    between atoms: C_1  and  N_2
REMARK    2  A    between atoms: N_2  and  C_3
REMARK    3  A    between atoms: C_5  and  N_6
REMARK    4  A    between atoms: C_7  and  O_9
REMARK    5  A    between atoms: O_9  and  C_10
REMARK    6  A    between atoms: C_13  and  N_14
REMARK    7  A    between atoms: N_14  and  C_15
REMARK    8  A    between atoms: C_25  and  O_26
REMARK    9  A    between atoms: O_26  and  C_27
REMARK                            x       y       z     vdW  Elec       q    Type
REMARK                         _______ _______ _______ _____ _____    ______ ____
ROOT
ATOM      1  N   UNL     1       0.871  10.152  19.122  0.00  0.00    +0.000 N 
ATOM      2  H   UNL     1       0.666  10.008  18.127  0.00  0.00    +0.000 HD
ENDROOT
BRANCH   1   3
ATOM      3  C   UNL     1      -0.199  11.001  19.621  0.00  0.00    +0.000 A 
ATOM      4  C   UNL     1      -1.524  11.024  19.061  0.00  0.00    +0.000 A 
ATOM      5  C   UNL     1      -2.079  10.208  18.038  0.00  0.00    +0.000 A 
ATOM      6  C   UNL     1      -3.408  10.348  17.628  0.00  0.00    +0.000 A 
ATOM      7  C   UNL     1      -4.232  11.263  18.268  0.00  0.00    +0.000 A 
ATOM      8 BR   UNL     1      -6.030  11.462  17.735  0.00  0.00    +0.000 Br
ATOM      9  C   UNL     1      -3.700  12.112  19.219  0.00  0.00    +0.000 A 
ATOM     10  C   UNL     1      -2.349  12.072  19.503  0.00  0.00    +0.000 A 
ATOM     11  N   UNL     1      -1.818  13.182  19.973  0.00  0.00    +0.000 NA
ATOM     12  C   UNL     1      -0.475  13.264  19.982  0.00  0.00    +0.000 A 
ATOM     13  C   UNL     1       0.295  14.216  19.294  0.00  0.00    +0.000 A 
ATOM     14  C   UNL     1       1.682  14.262  19.500  0.00  0.00    +0.000 A 
ATOM     15  C   UNL     1       2.271  13.417  20.434  0.00  0.00    +0.000 A 
ATOM     16  C   UNL     1       1.531  12.333  20.874  0.00  0.00    +0.000 A 
ATOM     17  C   UNL     1       0.245  12.156  20.326  0.00  0.00    +0.000 A 
BRANCH  13  18
ATOM     18  O   UNL     1      -0.139  15.046  18.287  0.00  0.00    +0.000 OA
ATOM     19  C   UNL     1      -0.437  16.399  18.607  0.00  0.00    +0.000 C 
ENDBRANCH  13  18
ENDBRANCH   1   3
BRANCH   1  25
ATOM     20  C   UNL     1       2.198   8.087  18.874  0.00  0.00    +0.000 A 
ATOM     21  C   UNL     1       2.428   6.779  19.338  0.00  0.00    +0.000 A 
ATOM     22  C   UNL     1       1.933   6.318  20.562  0.00  0.00    +0.000 A 
ATOM     23  C   UNL     1       1.152   7.176  21.334  0.00  0.00    +0.000 A 
ATOM     24  C   UNL     1       0.866   8.456  20.887  0.00  0.00    +0.000 A 
ATOM     25  C   UNL     1       1.295   8.884  19.625  0.00  0.00    +0.000 A 
BRANCH  22  26
ATOM     26  N   UNL     1       2.170   5.007  21.034  0.00  0.00    +0.000 N 
ATOM     27  C   UNL     1       1.382   3.916  20.803  0.00  0.00    +0.000 C 
ATOM     28  O   UNL     1       0.387   3.843  20.109  0.00  0.00    +0.000 OA
ATOM     29  H   UNL     1       3.011   4.829  21.558  0.00  0.00    +0.000 HD
BRANCH  27  30
ATOM     30  O   UNL     1       1.900   2.856  21.494  0.00  0.00    +0.000 OA
ATOM     31  C   UNL     1       3.249   2.574  21.108  0.00  0.00    +0.000 C 
ENDBRANCH  27  30
ENDBRANCH  22  26
BRANCH  20  33
ATOM     32  C   UNL     1       3.801   7.731  17.041  0.00  0.00    +0.000 C 
ATOM     33  N   UNL     1       2.703   8.514  17.622  0.00  0.00    +0.000 N 
ATOM     34  H   UNL     1       2.971   9.495  17.681  0.00  0.00    +0.000 HD
ENDBRANCH  20  33
ENDBRANCH   1  25
TORSDOF 6
ENDMDL
MODEL 6
REMARK VINA RESULT:      -6.9      6.757      9.474
REMARK  Name = 
REMARK  9 active torsions:
REMARK  status: ('A' for Active; 'I' for Inactive)
REMARK    1  A    between atoms: C_1  and  N_2
REMARK    2  A    between atoms: N_2  and  C_3
REMARK    3  A    between atoms: C_5  and  N_6
REMARK    4  A    between atoms: C_7  and  O_9
REMARK    5  A    between atoms: O_9  and  C_10
REMARK    6  A    between atoms: C_13  and  N_14
REMARK    7  A    between atoms: N_14  and  C_15
REMARK    8  A    between atoms: C_25  and  O_26
REMARK    9  A    between atoms: O_26  and  C_27
REMARK                            x       y       z     vdW  Elec       q    Type
REMARK                         _______ _______ _______ _____ _____    ______ ____
ROOT
ATOM      1  N   UNL     1      -0.820  14.394  19.179  0.00  0.00    +0.000 N 
ATOM      2  H   UNL     1      -1.235  13.858  18.410  0.00  0.00    +0.000 HD
ENDROOT
BRANCH   1   3
ATOM      3  C   UNL     1      -1.414  13.857  20.392  0.00  0.00    +0.000 A 
ATOM      4  C   UNL     1      -1.230  14.439  21.695  0.00  0.00    +0.000 A 
ATOM      5  C   UNL     1      -0.563  15.642  22.052  0.00  0.00    +0.000 A 
ATOM      6  C   UNL     1      -0.499  16.079  23.379  0.00  0.00    +0.000 A 
ATOM      7  C   UNL     1      -1.150  15.361  24.371  0.00  0.00    +0.000 A 
ATOM      8 BR   UNL     1      -1.084  15.938  26.165  0.00  0.00    +0.000 Br
ATOM      9  C   UNL     1      -1.750  14.155  24.060  0.00  0.00    +0.000 A 
ATOM     10  C   UNL     1      -1.669  13.654  22.775  0.00  0.00    +0.000 A 
ATOM     11  N   UNL     1      -1.765  12.347  22.651  0.00  0.00    +0.000 NA
ATOM     12  C   UNL     1      -1.403  11.815  21.470  0.00  0.00    +0.000 A 
ATOM     13  C   UNL     1      -0.369  10.885  21.268  0.00  0.00    +0.000 A 
ATOM     14  C   UNL     1      -0.189  10.316  19.999  0.00  0.00    +0.000 A 
ATOM     15  C   UNL     1      -1.076  10.621  18.973  0.00  0.00    +0.000 A 
ATOM     16  C   UNL     1      -1.891  11.727  19.138  0.00  0.00    +0.000 A 
ATOM     17  C   UNL     1      -1.747  12.473  20.323  0.00  0.00    +0.000 A 
BRANCH  13  18
ATOM     18  O   UNL     1       0.625  10.562  22.162  0.00  0.00    +0.000 OA
ATOM     19  C   UNL     1       0.926   9.188  22.371  0.00  0.00    +0.000 C 
ENDBRANCH  13  18
ENDBRANCH   1   3
BRANCH   1  25
ATOM     20  C   UNL     1       1.140  15.819  18.716  0.00  0.00    +0.000 A 
ATOM     21  C   UNL     1       2.457  15.877  18.227  0.00  0.00    +0.000 A 
ATOM     22  C   UNL     1       3.241  14.733  18.042  0.00  0.00    +0.000 A 
ATOM     23  C   UNL     1       2.682  13.487  18.321  0.00  0.00    +0.000 A 
ATOM     24  C   UNL     1       1.372  13.389  18.760  0.00  0.00    +0.000 A 
ATOM     25  C   UNL     1       0.567  14.529  18.864  0.00  0.00    +0.000 A 
BRANCH  22  26
ATOM     26  N   UNL     1       4.569  14.789  17.560  0.00  0.00    +0.000 N 
ATOM     27  C   UNL     1       5.693  14.940  18.322  0.00  0.00    +0.000 C 
ATOM     28  O   UNL     1       5.777  14.987  19.533  0.00  0.00    +0.000 OA
ATOM     29  H   UNL     1       4.728  14.669  16.574  0.00  0.00    +0.000 HD
BRANCH  27  30
ATOM     30  O   UNL     1       6.770  15.032  17.486  0.00  0.00    +0.000 OA
ATOM     31  C   UNL     1       7.811  15.842  18.042  0.00  0.00    +0.000 C 
ENDBRANCH  27  30
ENDBRANCH  22  26
BRANCH  20  33
ATOM     32  C   UNL     1      -0.097  17.662  17.651  0.00  0.00    +0.000 C 
ATOM     33  N   UNL     1       0.371  16.997  18.875  0.00  0.00    +0.000 N 
ATOM     34  H   UNL     1       0.883  17.661  19.455  0.00  0.00    +0.000 HD
ENDBRANCH  20  33
ENDBRANCH   1  25
TORSDOF 6
ENDMDL
MODEL 7
REMARK VINA RESULT:      -6.9      3.719      9.525
REMARK  Name = 
REMARK  9 active torsions:
REMARK  status: ('A' for Active; 'I' for Inactive)
REMARK    1  A    between atoms: C_1  and  N_2
REMARK    2  A    between atoms: N_2  and  C_3
REMARK    3  A    between atoms: C_5  and  N_6
REMARK    4  A    between atoms: C_7  and  O_9
REMARK    5  A    between atoms: O_9  and  C_10
REMARK    6  A    between atoms: C_13  and  N_14
REMARK    7  A    between atoms: N_14  and  C_15
REMARK    8  A    between atoms: C_25  and  O_26
REMARK    9  A    between atoms: O_26  and  C_27
REMARK                            x       y       z     vdW  Elec       q    Type
REMARK                         _______ _______ _______ _____ _____    ______ ____
ROOT
ATOM      1  N   UNL     1       0.693  10.880  18.608  0.00  0.00    +0.000 N 
ATOM      2  H   UNL     1       0.334  10.851  17.647  0.00  0.00    +0.000 HD
ENDROOT
BRANCH   1   3
ATOM      3  C   UNL     1      -0.298  11.621  19.371  0.00  0.00    +0.000 A 
ATOM      4  C   UNL     1      -1.701  11.639  19.049  0.00  0.00    +0.000 A 
ATOM      5  C   UNL     1      -2.400  10.907  18.052  0.00  0.00    +0.000 A 
ATOM      6  C   UNL     1      -3.784  11.025  17.891  0.00  0.00    +0.000 A 
ATOM      7  C   UNL     1      -4.511  11.828  18.757  0.00  0.00    +0.000 A 
ATOM      8 BR   UNL     1      -6.379  11.996  18.562  0.00  0.00    +0.000 Br
ATOM      9  C   UNL     1      -3.847  12.600  19.692  0.00  0.00    +0.000 A 
ATOM     10  C   UNL     1      -2.466  12.596  19.737  0.00  0.00    +0.000 A 
ATOM     11  N   UNL     1      -1.895  13.675  20.229  0.00  0.00    +0.000 NA
ATOM     12  C   UNL     1      -0.574  13.820  20.019  0.00  0.00    +0.000 A 
ATOM     13  C   UNL     1       0.038  14.873  19.318  0.00  0.00    +0.000 A 
ATOM     14  C   UNL     1       1.437  14.964  19.290  0.00  0.00    +0.000 A 
ATOM     15  C   UNL     1       2.203  14.057  20.013  0.00  0.00    +0.000 A 
ATOM     16  C   UNL     1       1.583  12.899  20.450  0.00  0.00    +0.000 A 
ATOM     17  C   UNL     1       0.228  12.717  20.113  0.00  0.00    +0.000 A 
BRANCH  13  18
ATOM     18  O   UNL     1      -0.590  15.780  18.497  0.00  0.00    +0.000 OA
ATOM     19  C   UNL     1      -1.064  16.994  19.067  0.00  0.00    +0.000 C 
ENDBRANCH  13  18
ENDBRANCH   1   3
BRANCH   1  25
ATOM     20  C   UNL     1       1.031   8.986  20.152  0.00  0.00    +0.000 A 
ATOM     21  C   UNL     1       1.726   7.789  20.403  0.00  0.00    +0.000 A 
ATOM     22  C   UNL     1       2.437   7.110  19.409  0.00  0.00    +0.000 A 
ATOM     23  C   UNL     1       2.488   7.660  18.129  0.00  0.00    +0.000 A 
ATOM     24  C   UNL     1       1.855   8.861  17.857  0.00  0.00    +0.000 A 
ATOM     25  C   UNL     1       1.215   9.578  18.875  0.00  0.00    +0.000 A 
BRANCH  22  26
ATOM     26  N   UNL     1       3.127   5.902  19.656  0.00  0.00    +0.000 N 
ATOM     27  C   UNL     1       2.676   4.645  19.364  0.00  0.00    +0.000 C 
ATOM     28  O   UNL     1       1.652   4.332  18.788  0.00  0.00    +0.000 OA
ATOM     29  H   UNL     1       4.054   5.947  20.046  0.00  0.00    +0.000 HD
BRANCH  27  30
ATOM     30  O   UNL     1       3.588   3.740  19.829  0.00  0.00    +0.000 OA
ATOM     31  C   UNL     1       2.995   2.795  20.724  0.00  0.00    +0.000 C 
ENDBRANCH  27  30
ENDBRANCH  22  26
BRANCH  20  33
ATOM     32  C   UNL     1       0.756   9.372  22.567  0.00  0.00    +0.000 C 
ATOM     33  N   UNL     1       0.335   9.654  21.188  0.00  0.00    +0.000 N 
ATOM     34  H   UNL     1      -0.665   9.482  21.089  0.00  0.00    +0.000 HD
ENDBRANCH  20  33
ENDBRANCH   1  25
TORSDOF 6
ENDMDL
MODEL 8
REMARK VINA RESULT:      -6.7      3.486      8.592
REMARK  Name = 
REMARK  9 active torsions:
REMARK  status: ('A' for Active; 'I' for Inactive)
REMARK    1  A    between atoms: C_1  and  N_2
REMARK    2  A    between atoms: N_2  and  C_3
REMARK    3  A    between atoms: C_5  and  N_6
REMARK    4  A    between atoms: C_7  and  O_9
REMARK    5  A    between atoms: O_9  and  C_10
REMARK    6  A    between atoms: C_13  and  N_14
REMARK    7  A    between atoms: N_14  and  C_15
REMARK    8  A    between atoms: C_25  and  O_26
REMARK    9  A    between atoms: O_26  and  C_27
REMARK                            x       y       z     vdW  Elec       q    Type
REMARK                         _______ _______ _______ _____ _____    ______ ____
ROOT
ATOM      1  N   UNL     1       0.592   9.676  19.434  0.00  0.00    +0.000 N 
ATOM      2  H   UNL     1       0.777   9.870  20.424  0.00  0.00    +0.000 HD
ENDROOT
BRANCH   1   3
ATOM      3  C   UNL     1       0.379  10.975  18.816  0.00  0.00    +0.000 A 
ATOM      4  C   UNL     1       0.881  12.208  19.361  0.00  0.00    +0.000 A 
ATOM      5  C   UNL     1       1.726  12.412  20.485  0.00  0.00    +0.000 A 
ATOM      6  C   UNL     1       2.146  13.691  20.865  0.00  0.00    +0.000 A 
ATOM      7  C   UNL     1       1.783  14.789  20.100  0.00  0.00    +0.000 A 
ATOM      8 BR   UNL     1       2.344  16.521  20.590  0.00  0.00    +0.000 Br
ATOM      9  C   UNL     1       0.909  14.625  19.042  0.00  0.00    +0.000 A 
ATOM     10  C   UNL     1       0.375  13.379  18.772  0.00  0.00    +0.000 A 
ATOM     11  N   UNL     1      -0.787  13.364  18.155  0.00  0.00    +0.000 NA
ATOM     12  C   UNL     1      -1.459  12.198  18.141  0.00  0.00    +0.000 A 
ATOM     13  C   UNL     1      -2.731  11.975  18.693  0.00  0.00    +0.000 A 
ATOM     14  C   UNL     1      -3.367  10.741  18.490  0.00  0.00    +0.000 A 
ATOM     15  C   UNL     1      -2.766   9.779  17.686  0.00  0.00    +0.000 A 
ATOM     16  C   UNL     1      -1.421   9.933  17.398  0.00  0.00    +0.000 A 
ATOM     17  C   UNL     1      -0.757  11.041  17.959  0.00  0.00    +0.000 A 
BRANCH  13  18
ATOM     18  O   UNL     1      -3.396  12.798  19.572  0.00  0.00    +0.000 OA
ATOM     19  C   UNL     1      -2.994  12.796  20.937  0.00  0.00    +0.000 C 
ENDBRANCH  13  18
ENDBRANCH   1   3
BRANCH   1  25
ATOM     20  C   UNL     1       1.874   7.637  19.967  0.00  0.00    +0.000 A 
ATOM     21  C   UNL     1       2.925   6.782  19.590  0.00  0.00    +0.000 A 
ATOM     22  C   UNL     1       3.499   6.814  18.315  0.00  0.00    +0.000 A 
ATOM     23  C   UNL     1       3.035   7.753  17.395  0.00  0.00    +0.000 A 
ATOM     24  C   UNL     1       2.033   8.642  17.748  0.00  0.00    +0.000 A 
ATOM     25  C   UNL     1       1.519   8.661  19.050  0.00  0.00    +0.000 A 
BRANCH  22  26
ATOM     26  N   UNL     1       4.548   5.949  17.930  0.00  0.00    +0.000 N 
ATOM     27  C   UNL     1       4.404   4.684  17.434  0.00  0.00    +0.000 C 
ATOM     28  O   UNL     1       3.374   4.095  17.170  0.00  0.00    +0.000 OA
ATOM     29  H   UNL     1       5.494   6.288  17.980  0.00  0.00    +0.000 HD
BRANCH  27  30
ATOM     30  O   UNL     1       5.648   4.144  17.262  0.00  0.00    +0.000 OA
ATOM     31  C   UNL     1       6.493   4.990  16.476  0.00  0.00    +0.000 C 
ENDBRANCH  27  30
ENDBRANCH  22  26
BRANCH  20  33
ATOM     32  C   UNL     1       1.460   8.792  22.100  0.00  0.00    +0.000 C 
ATOM     33  N   UNL     1       1.328   7.586  21.272  0.00  0.00    +0.000 N 
ATOM     34  H   UNL     1       1.709   6.782  21.769  0.00  0.00    +0.000 HD
ENDBRANCH  20  33
ENDBRANCH   1  25
TORSDOF 6
ENDMDL
MODEL 9
REMARK VINA RESULT:      -6.6      4.010      9.755
REMARK  Name = 
REMARK  9 active torsions:
REMARK  status: ('A' for Active; 'I' for Inactive)
REMARK    1  A    between atoms: C_1  and  N_2
REMARK    2  A    between atoms: N_2  and  C_3
REMARK    3  A    between atoms: C_5  and  N_6
REMARK    4  A    between atoms: C_7  and  O_9
REMARK    5  A    between atoms: O_9  and  C_10
REMARK    6  A    between atoms: C_13  and  N_14
REMARK    7  A    between atoms: N_14  and  C_15
REMARK    8  A    between atoms: C_25  and  O_26
REMARK    9  A    between atoms: O_26  and  C_27
REMARK                            x       y       z     vdW  Elec       q    Type
REMARK                         _______ _______ _______ _____ _____    ______ ____
ROOT
ATOM      1  N   UNL     1       0.140  11.195  19.629  0.00  0.00    +0.000 N 
ATOM      2  H   UNL     1      -0.858  10.974  19.713  0.00  0.00    +0.000 HD
ENDROOT
BRANCH   1   3
ATOM      3  C   UNL     1       0.392  12.229  20.620  0.00  0.00    +0.000 A 
ATOM      4  C   UNL     1      -0.594  12.687  21.562  0.00  0.00    +0.000 A 
ATOM      5  C   UNL     1      -1.907  12.198  21.793  0.00  0.00    +0.000 A 
ATOM      6  C   UNL     1      -2.733  12.748  22.778  0.00  0.00    +0.000 A 
ATOM      7  C   UNL     1      -2.247  13.758  23.596  0.00  0.00    +0.000 A 
ATOM      8 BR   UNL     1      -3.341  14.510  24.935  0.00  0.00    +0.000 Br
ATOM      9  C   UNL     1      -0.998  14.295  23.350  0.00  0.00    +0.000 A 
ATOM     10  C   UNL     1      -0.255  13.851  22.273  0.00  0.00    +0.000 A 
ATOM     11  N   UNL     1       0.620  14.701  21.778  0.00  0.00    +0.000 NA
ATOM     12  C   UNL     1       1.141  14.412  20.571  0.00  0.00    +0.000 A 
ATOM     13  C   UNL     1       1.025  15.201  19.415  0.00  0.00    +0.000 A 
ATOM     14  C   UNL     1       1.731  14.840  18.257  0.00  0.00    +0.000 A 
ATOM     15  C   UNL     1       2.592  13.750  18.286  0.00  0.00    +0.000 A 
ATOM     16  C   UNL     1       2.465  12.860  19.338  0.00  0.00    +0.000 A 
ATOM     17  C   UNL     1       1.459  13.114  20.290  0.00  0.00    +0.000 A 
BRANCH  13  18
ATOM     18  O   UNL     1       0.151  16.245  19.223  0.00  0.00    +0.000 OA
ATOM     19  C   UNL     1       0.598  17.376  18.484  0.00  0.00    +0.000 C 
ENDBRANCH  13  18
ENDBRANCH   1   3
BRANCH   1  25
ATOM     20  C   UNL     1       0.719   8.956  20.486  0.00  0.00    +0.000 A 
ATOM     21  C   UNL     1       1.549   7.829  20.350  0.00  0.00    +0.000 A 
ATOM     22  C   UNL     1       2.314   7.591  19.204  0.00  0.00    +0.000 A 
ATOM     23  C   UNL     1       2.279   8.527  18.171  0.00  0.00    +0.000 A 
ATOM     24  C   UNL     1       1.509   9.672  18.289  0.00  0.00    +0.000 A 
ATOM     25  C   UNL     1       0.810   9.945  19.472  0.00  0.00    +0.000 A 
BRANCH  22  26
ATOM     26  N   UNL     1       3.141   6.454  19.061  0.00  0.00    +0.000 N 
ATOM     27  C   UNL     1       2.811   5.299  18.411  0.00  0.00    +0.000 C 
ATOM     28  O   UNL     1       1.798   5.053  17.787  0.00  0.00    +0.000 OA
ATOM     29  H   UNL     1       4.077   6.491  19.429  0.00  0.00    +0.000 HD
BRANCH  27  30
ATOM     30  O   UNL     1       3.838   4.410  18.564  0.00  0.00    +0.000 OA
ATOM     31  C   UNL     1       4.993   5.023  19.147  0.00  0.00    +0.000 C 
ENDBRANCH  27  30
ENDBRANCH  22  26
BRANCH  20  33
ATOM     32  C   UNL     1       0.726   9.359  22.913  0.00  0.00    +0.000 C 
ATOM     33  N   UNL     1      -0.030   9.170  21.668  0.00  0.00    +0.000 N 
ATOM     34  H   UNL     1      -0.704   8.415  21.784  0.00  0.00    +0.000 HD
ENDBRANCH  20  33
ENDBRANCH   1  25
TORSDOF 6
ENDMDL
