MODEL 1
REMARK VINA RESULT:      -6.2      0.000      0.000
REMARK  Name = 
REMARK  11 active torsions:
REMARK  status: ('A' for Active; 'I' for Inactive)
REMARK    1  A    between atoms: C_1  and  C_2
REMARK    2  A    between atoms: C_2  and  O_3
REMARK    3  A    between atoms: O_3  and  C_4
REMARK    4  A    between atoms: C_8  and  O_9
REMARK    5  A    between atoms: O_9  and  C_10
REMARK    6  A    between atoms: C_10  and  C_11
REMARK    7  A    between atoms: C_12  and  C_13
REMARK    8  A    between atoms: N_15  and  C_16
REMARK    9  A    between atoms: C_16  and  C_17
REMARK   10  A    between atoms: N_21  and  C_22
REMARK   11  A    between atoms: C_22  and  C_23
REMARK                            x       y       z     vdW  Elec       q    Type
REMARK                         _______ _______ _______ _____ _____    ______ ____
ROOT
ATOM      1  C   UNL     1       3.787   2.607  20.617  0.00  0.00    +0.000 A 
ATOM      2  C   UNL     1       2.764   2.443  21.565  0.00  0.00    +0.000 A 
ATOM      3  C   UNL     1       1.516   2.982  21.374  0.00  0.00    +0.000 A 
ATOM      4  C   UNL     1       1.243   3.706  20.239  0.00  0.00    +0.000 A 
ATOM      5  C   UNL     1       2.217   3.911  19.232  0.00  0.00    +0.000 A 
ATOM      6  C   UNL     1       3.542   3.365  19.407  0.00  0.00    +0.000 A 
ENDROOT
BRANCH   6   7
ATOM      7  C   UNL     1       4.592   3.546  18.299  0.00  0.00    +0.000 C 
ATOM      8  O   UNL     1       4.295   3.235  17.154  0.00  0.00    +0.000 OA
ATOM      9  N   UNL     1       5.860   4.017  18.536  0.00  0.00    +0.000 N 
ATOM     10  H   UNL     1       6.154   4.278  19.471  0.00  0.00    +0.000 HD
BRANCH   9  11
ATOM     11  C   UNL     1       6.903   4.149  17.525  0.00  0.00    +0.000 C 
BRANCH  11  12
ATOM     12  C   UNL     1       7.612   5.529  17.685  0.00  0.00    +0.000 C 
ATOM     13  C   UNL     1       7.639   6.107  19.094  0.00  0.00    +0.000 C 
ATOM     14  C   UNL     1       8.315   7.434  18.807  0.00  0.00    +0.000 C 
ATOM     15  C   UNL     1       7.787   7.826  17.420  0.00  0.00    +0.000 C 
ATOM     16  N   UNL     1       7.115   6.641  16.839  0.00  0.00    +0.000 NA
BRANCH  16  17
ATOM     17  C   UNL     1       5.633   6.807  16.873  0.00  0.00    +0.000 C 
ATOM     18  C   UNL     1       4.990   6.540  15.505  0.00  0.00    +0.000 C 
ENDBRANCH  16  17
ENDBRANCH  11  12
ENDBRANCH   9  11
ENDBRANCH   6   7
BRANCH   1  19
ATOM     19  O   UNL     1       4.997   2.049  20.891  0.00  0.00    +0.000 OA
BRANCH  19  21
ATOM     20  C   UNL     1       6.099   0.255  22.064  0.00  0.00    +0.000 C 
ATOM     21  C   UNL     1       5.295   0.695  20.851  0.00  0.00    +0.000 C 
ENDBRANCH  19  21
ENDBRANCH   1  19
BRANCH   5  22
ATOM     22  O   UNL     1       1.854   4.587  18.095  0.00  0.00    +0.000 OA
BRANCH  22  23
ATOM     23  C   UNL     1       1.715   5.975  18.048  0.00  0.00    +0.000 C 
ATOM     24  C   UNL     1       2.782   6.710  18.840  0.00  0.00    +0.000 C 
ENDBRANCH  22  23
ENDBRANCH   5  22
TORSDOF 8
ENDMDL
MODEL 2
REMARK VINA RESULT:      -6.2      0.668      3.715
REMARK  Name = 
REMARK  11 active torsions:
REMARK  status: ('A' for Active; 'I' for Inactive)
REMARK    1  A    between atoms: C_1  and  C_2
REMARK    2  A    between atoms: C_2  and  O_3
REMARK    3  A    between atoms: O_3  and  C_4
REMARK    4  A    between atoms: C_8  and  O_9
REMARK    5  A    between atoms: O_9  and  C_10
REMARK    6  A    between atoms: C_10  and  C_11
REMARK    7  A    between atoms: C_12  and  C_13
REMARK    8  A    between atoms: N_15  and  C_16
REMARK    9  A    between atoms: C_16  and  C_17
REMARK   10  A    between atoms: N_21  and  C_22
REMARK   11  A    between atoms: C_22  and  C_23
REMARK                            x       y       z     vdW  Elec       q    Type
REMARK                         _______ _______ _______ _____ _____    ______ ____
ROOT
ATOM      1  C   UNL     1       2.437   4.467  19.802  0.00  0.00    +0.000 A 
ATOM      2  C   UNL     1       1.616   4.193  20.908  0.00  0.00    +0.000 A 
ATOM      3  C   UNL     1       1.844   3.109  21.719  0.00  0.00    +0.000 A 
ATOM      4  C   UNL     1       2.891   2.259  21.457  0.00  0.00    +0.000 A 
ATOM      5  C   UNL     1       3.768   2.469  20.366  0.00  0.00    +0.000 A 
ATOM      6  C   UNL     1       3.549   3.595  19.488  0.00  0.00    +0.000 A 
ENDROOT
BRANCH   6   7
ATOM      7  C   UNL     1       4.523   3.855  18.328  0.00  0.00    +0.000 C 
ATOM      8  O   UNL     1       4.091   3.835  17.184  0.00  0.00    +0.000 OA
ATOM      9  N   UNL     1       5.865   4.083  18.511  0.00  0.00    +0.000 N 
ATOM     10  H   UNL     1       6.270   4.100  19.441  0.00  0.00    +0.000 HD
BRANCH   9  11
ATOM     11  C   UNL     1       6.832   4.276  17.436  0.00  0.00    +0.000 C 
BRANCH  11  12
ATOM     12  C   UNL     1       7.581   5.629  17.645  0.00  0.00    +0.000 C 
ATOM     13  C   UNL     1       7.676   6.125  19.082  0.00  0.00    +0.000 C 
ATOM     14  C   UNL     1       8.372   7.451  18.843  0.00  0.00    +0.000 C 
ATOM     15  C   UNL     1       7.799   7.933  17.502  0.00  0.00    +0.000 C 
ATOM     16  N   UNL     1       7.077   6.798  16.883  0.00  0.00    +0.000 NA
BRANCH  16  17
ATOM     17  C   UNL     1       5.602   6.994  16.987  0.00  0.00    +0.000 C 
ATOM     18  C   UNL     1       4.892   6.750  15.647  0.00  0.00    +0.000 C 
ENDBRANCH  16  17
ENDBRANCH  11  12
ENDBRANCH   9  11
ENDBRANCH   6   7
BRANCH   1  19
ATOM     19  O   UNL     1       2.132   5.555  19.045  0.00  0.00    +0.000 OA
BRANCH  19  21
ATOM     20  C   UNL     1       2.379   7.781  18.154  0.00  0.00    +0.000 C 
ATOM     21  C   UNL     1       2.401   6.876  19.375  0.00  0.00    +0.000 C 
ENDBRANCH  19  21
ENDBRANCH   1  19
BRANCH   5  22
ATOM     22  O   UNL     1       4.831   1.618  20.203  0.00  0.00    +0.000 OA
BRANCH  22  23
ATOM     23  C   UNL     1       5.657   1.223  21.257  0.00  0.00    +0.000 C 
ATOM     24  C   UNL     1       5.878  -0.279  21.313  0.00  0.00    +0.000 C 
ENDBRANCH  22  23
ENDBRANCH   5  22
TORSDOF 8
ENDMDL
MODEL 3
REMARK VINA RESULT:      -6.1      3.794      6.293
REMARK  Name = 
REMARK  11 active torsions:
REMARK  status: ('A' for Active; 'I' for Inactive)
REMARK    1  A    between atoms: C_1  and  C_2
REMARK    2  A    between atoms: C_2  and  O_3
REMARK    3  A    between atoms: O_3  and  C_4
REMARK    4  A    between atoms: C_8  and  O_9
REMARK    5  A    between atoms: O_9  and  C_10
REMARK    6  A    between atoms: C_10  and  C_11
REMARK    7  A    between atoms: C_12  and  C_13
REMARK    8  A    between atoms: N_15  and  C_16
REMARK    9  A    between atoms: C_16  and  C_17
REMARK   10  A    between atoms: N_21  and  C_22
REMARK   11  A    between atoms: C_22  and  C_23
REMARK                            x       y       z     vdW  Elec       q    Type
REMARK                         _______ _______ _______ _____ _____    ______ ____
ROOT
ATOM      1  C   UNL     1       2.180   4.079  18.310  0.00  0.00    +0.000 A 
ATOM      2  C   UNL     1       2.652   3.178  17.343  0.00  0.00    +0.000 A 
ATOM      3  C   UNL     1       3.772   3.448  16.596  0.00  0.00    +0.000 A 
ATOM      4  C   UNL     1       4.457   4.625  16.781  0.00  0.00    +0.000 A 
ATOM      5  C   UNL     1       4.050   5.583  17.740  0.00  0.00    +0.000 A 
ATOM      6  C   UNL     1       2.870   5.332  18.535  0.00  0.00    +0.000 A 
ENDROOT
BRANCH   6   7
ATOM      7  C   UNL     1       2.447   6.347  19.609  0.00  0.00    +0.000 C 
ATOM      8  O   UNL     1       2.345   5.967  20.767  0.00  0.00    +0.000 OA
ATOM      9  N   UNL     1       2.152   7.659  19.327  0.00  0.00    +0.000 N 
ATOM     10  H   UNL     1       2.214   8.016  18.380  0.00  0.00    +0.000 HD
BRANCH   9  11
ATOM     11  C   UNL     1       1.692   8.638  20.304  0.00  0.00    +0.000 C 
BRANCH  11  12
ATOM     12  C   UNL     1       0.621   9.565  19.650  0.00  0.00    +0.000 C 
ATOM     13  C   UNL     1       1.151  10.820  18.967  0.00  0.00    +0.000 C 
ATOM     14  C   UNL     1      -0.164  11.454  18.555  0.00  0.00    +0.000 C 
ATOM     15  C   UNL     1      -1.123  11.092  19.697  0.00  0.00    +0.000 C 
ATOM     16  N   UNL     1      -0.469  10.055  20.527  0.00  0.00    +0.000 NA
BRANCH  16  17
ATOM     17  C   UNL     1       0.010  10.636  21.815  0.00  0.00    +0.000 C 
ATOM     18  C   UNL     1      -0.434   9.804  23.026  0.00  0.00    +0.000 C 
ENDBRANCH  16  17
ENDBRANCH  11  12
ENDBRANCH   9  11
ENDBRANCH   6   7
BRANCH   1  19
ATOM     19  O   UNL     1       1.057   3.737  18.997  0.00  0.00    +0.000 OA
BRANCH  19  21
ATOM     20  C   UNL     1       1.366   2.747  21.173  0.00  0.00    +0.000 C 
ATOM     21  C   UNL     1       0.881   2.579  19.742  0.00  0.00    +0.000 C 
ENDBRANCH  19  21
ENDBRANCH   1  19
BRANCH   5  22
ATOM     22  O   UNL     1       4.819   6.705  17.917  0.00  0.00    +0.000 OA
BRANCH  22  23
ATOM     23  C   UNL     1       5.942   6.987  17.136  0.00  0.00    +0.000 C 
ATOM     24  C   UNL     1       7.252   6.724  17.857  0.00  0.00    +0.000 C 
ENDBRANCH  22  23
ENDBRANCH   5  22
TORSDOF 8
ENDMDL
MODEL 4
REMARK VINA RESULT:      -6.0      3.892      6.547
REMARK  Name = 
REMARK  11 active torsions:
REMARK  status: ('A' for Active; 'I' for Inactive)
REMARK    1  A    between atoms: C_1  and  C_2
REMARK    2  A    between atoms: C_2  and  O_3
REMARK    3  A    between atoms: O_3  and  C_4
REMARK    4  A    between atoms: C_8  and  O_9
REMARK    5  A    between atoms: O_9  and  C_10
REMARK    6  A    between atoms: C_10  and  C_11
REMARK    7  A    between atoms: C_12  and  C_13
REMARK    8  A    between atoms: N_15  and  C_16
REMARK    9  A    between atoms: C_16  and  C_17
REMARK   10  A    between atoms: N_21  and  C_22
REMARK   11  A    between atoms: C_22  and  C_23
REMARK                            x       y       z     vdW  Elec       q    Type
REMARK                         _______ _______ _______ _____ _____    ______ ____
ROOT
ATOM      1  C   UNL     1       4.977   5.800  18.192  0.00  0.00    +0.000 A 
ATOM      2  C   UNL     1       5.629   4.565  18.342  0.00  0.00    +0.000 A 
ATOM      3  C   UNL     1       5.016   3.500  18.953  0.00  0.00    +0.000 A 
ATOM      4  C   UNL     1       3.738   3.627  19.442  0.00  0.00    +0.000 A 
ATOM      5  C   UNL     1       3.010   4.835  19.324  0.00  0.00    +0.000 A 
ATOM      6  C   UNL     1       3.631   5.977  18.694  0.00  0.00    +0.000 A 
ENDROOT
BRANCH   6   7
ATOM      7  C   UNL     1       2.832   7.279  18.524  0.00  0.00    +0.000 C 
ATOM      8  O   UNL     1       2.911   7.881  17.463  0.00  0.00    +0.000 OA
ATOM      9  N   UNL     1       2.051   7.815  19.519  0.00  0.00    +0.000 N 
ATOM     10  H   UNL     1       1.962   7.356  20.419  0.00  0.00    +0.000 HD
BRANCH   9  11
ATOM     11  C   UNL     1       1.324   9.076  19.420  0.00  0.00    +0.000 C 
BRANCH  11  12
ATOM     12  C   UNL     1       0.848   9.516  20.839  0.00  0.00    +0.000 C 
ATOM     13  C   UNL     1      -0.106   8.564  21.549  0.00  0.00    +0.000 C 
ATOM     14  C   UNL     1      -0.376   9.373  22.804  0.00  0.00    +0.000 C 
ATOM     15  C   UNL     1      -0.367  10.828  22.316  0.00  0.00    +0.000 C 
ATOM     16  N   UNL     1       0.192  10.842  20.945  0.00  0.00    +0.000 NA
BRANCH  16  17
ATOM     17  C   UNL     1      -0.887  11.062  19.938  0.00  0.00    +0.000 C 
ATOM     18  C   UNL     1      -0.841  12.476  19.342  0.00  0.00    +0.000 C 
ENDBRANCH  16  17
ENDBRANCH  11  12
ENDBRANCH   9  11
ENDBRANCH   6   7
BRANCH   1  19
ATOM     19  O   UNL     1       5.663   6.805  17.584  0.00  0.00    +0.000 OA
BRANCH  19  21
ATOM     20  C   UNL     1       7.607   8.229  17.622  0.00  0.00    +0.000 C 
ATOM     21  C   UNL     1       7.034   6.843  17.373  0.00  0.00    +0.000 C 
ENDBRANCH  19  21
ENDBRANCH   1  19
BRANCH   5  22
ATOM     22  O   UNL     1       1.715   4.869  19.775  0.00  0.00    +0.000 OA
BRANCH  22  23
ATOM     23  C   UNL     1       0.943   3.721  19.959  0.00  0.00    +0.000 C 
ATOM     24  C   UNL     1       1.238   3.005  21.266  0.00  0.00    +0.000 C 
ENDBRANCH  22  23
ENDBRANCH   5  22
TORSDOF 8
ENDMDL
MODEL 5
REMARK VINA RESULT:      -5.9      3.108      6.318
REMARK  Name = 
REMARK  11 active torsions:
REMARK  status: ('A' for Active; 'I' for Inactive)
REMARK    1  A    between atoms: C_1  and  C_2
REMARK    2  A    between atoms: C_2  and  O_3
REMARK    3  A    between atoms: O_3  and  C_4
REMARK    4  A    between atoms: C_8  and  O_9
REMARK    5  A    between atoms: O_9  and  C_10
REMARK    6  A    between atoms: C_10  and  C_11
REMARK    7  A    between atoms: C_12  and  C_13
REMARK    8  A    between atoms: N_15  and  C_16
REMARK    9  A    between atoms: C_16  and  C_17
REMARK   10  A    between atoms: N_21  and  C_22
REMARK   11  A    between atoms: C_22  and  C_23
REMARK                            x       y       z     vdW  Elec       q    Type
REMARK                         _______ _______ _______ _____ _____    ______ ____
ROOT
ATOM      1  C   UNL     1       6.182   6.040  16.681  0.00  0.00    +0.000 A 
ATOM      2  C   UNL     1       6.808   5.495  15.549  0.00  0.00    +0.000 A 
ATOM      3  C   UNL     1       6.484   4.245  15.082  0.00  0.00    +0.000 A 
ATOM      4  C   UNL     1       5.533   3.492  15.728  0.00  0.00    +0.000 A 
ATOM      5  C   UNL     1       4.851   3.972  16.871  0.00  0.00    +0.000 A 
ATOM      6  C   UNL     1       5.175   5.280  17.392  0.00  0.00    +0.000 A 
ENDROOT
BRANCH   6   7
ATOM      7  C   UNL     1       4.408   5.825  18.608  0.00  0.00    +0.000 C 
ATOM      8  O   UNL     1       4.783   5.507  19.727  0.00  0.00    +0.000 OA
ATOM      9  N   UNL     1       3.304   6.634  18.497  0.00  0.00    +0.000 N 
ATOM     10  H   UNL     1       2.952   6.916  17.588  0.00  0.00    +0.000 HD
BRANCH   9  11
ATOM     11  C   UNL     1       2.514   7.125  19.620  0.00  0.00    +0.000 C 
BRANCH  11  12
ATOM     12  C   UNL     1       1.512   8.211  19.119  0.00  0.00    +0.000 C 
ATOM     13  C   UNL     1       2.112   9.340  18.290  0.00  0.00    +0.000 C 
ATOM     14  C   UNL     1       0.869  10.185  18.085  0.00  0.00    +0.000 C 
ATOM     15  C   UNL     1       0.088  10.020  19.397  0.00  0.00    +0.000 C 
ATOM     16  N   UNL     1       0.700   8.901  20.150  0.00  0.00    +0.000 NA
BRANCH  16  17
ATOM     17  C   UNL     1       1.498   9.415  21.301  0.00  0.00    +0.000 C 
ATOM     18  C   UNL     1       0.753   9.263  22.634  0.00  0.00    +0.000 C 
ENDBRANCH  16  17
ENDBRANCH  11  12
ENDBRANCH   9  11
ENDBRANCH   6   7
BRANCH   1  19
ATOM     19  O   UNL     1       6.571   7.280  17.082  0.00  0.00    +0.000 OA
BRANCH  19  21
ATOM     20  C   UNL     1       8.009   9.082  17.786  0.00  0.00    +0.000 C 
ATOM     21  C   UNL     1       7.743   7.585  17.759  0.00  0.00    +0.000 C 
ENDBRANCH  19  21
ENDBRANCH   1  19
BRANCH   5  22
ATOM     22  O   UNL     1       3.866   3.194  17.424  0.00  0.00    +0.000 OA
BRANCH  22  23
ATOM     23  C   UNL     1       2.523   3.291  17.057  0.00  0.00    +0.000 C 
ATOM     24  C   UNL     1       1.579   3.325  18.246  0.00  0.00    +0.000 C 
ENDBRANCH  22  23
ENDBRANCH   5  22
TORSDOF 8
ENDMDL
MODEL 6
REMARK VINA RESULT:      -5.9      3.986      6.449
REMARK  Name = 
REMARK  11 active torsions:
REMARK  status: ('A' for Active; 'I' for Inactive)
REMARK    1  A    between atoms: C_1  and  C_2
REMARK    2  A    between atoms: C_2  and  O_3
REMARK    3  A    between atoms: O_3  and  C_4
REMARK    4  A    between atoms: C_8  and  O_9
REMARK    5  A    between atoms: O_9  and  C_10
REMARK    6  A    between atoms: C_10  and  C_11
REMARK    7  A    between atoms: C_12  and  C_13
REMARK    8  A    between atoms: N_15  and  C_16
REMARK    9  A    between atoms: C_16  and  C_17
REMARK   10  A    between atoms: N_21  and  C_22
REMARK   11  A    between atoms: C_22  and  C_23
REMARK                            x       y       z     vdW  Elec       q    Type
REMARK                         _______ _______ _______ _____ _____    ______ ____
ROOT
ATOM      1  C   UNL     1       2.887   4.674  19.657  0.00  0.00    +0.000 A 
ATOM      2  C   UNL     1       3.734   3.565  19.814  0.00  0.00    +0.000 A 
ATOM      3  C   UNL     1       4.988   3.535  19.258  0.00  0.00    +0.000 A 
ATOM      4  C   UNL     1       5.442   4.603  18.521  0.00  0.00    +0.000 A 
ATOM      5  C   UNL     1       4.654   5.761  18.322  0.00  0.00    +0.000 A 
ATOM      6  C   UNL     1       3.326   5.820  18.888  0.00  0.00    +0.000 A 
ENDROOT
BRANCH   6   7
ATOM      7  C   UNL     1       2.481   7.092  18.712  0.00  0.00    +0.000 C 
ATOM      8  O   UNL     1       2.182   7.445  17.580  0.00  0.00    +0.000 OA
ATOM      9  N   UNL     1       2.065   7.868  19.766  0.00  0.00    +0.000 N 
ATOM     10  H   UNL     1       2.297   7.619  20.722  0.00  0.00    +0.000 HD
BRANCH   9  11
ATOM     11  C   UNL     1       1.313   9.111  19.640  0.00  0.00    +0.000 C 
BRANCH  11  12
ATOM     12  C   UNL     1       0.774   9.539  21.041  0.00  0.00    +0.000 C 
ATOM     13  C   UNL     1      -0.222   8.588  21.692  0.00  0.00    +0.000 C 
ATOM     14  C   UNL     1      -0.545   9.383  22.943  0.00  0.00    +0.000 C 
ATOM     15  C   UNL     1      -0.497  10.844  22.475  0.00  0.00    +0.000 C 
ATOM     16  N   UNL     1       0.127  10.870  21.133  0.00  0.00    +0.000 NA
BRANCH  16  17
ATOM     17  C   UNL     1      -0.900  11.114  20.079  0.00  0.00    +0.000 C 
ATOM     18  C   UNL     1      -1.251  12.603  19.948  0.00  0.00    +0.000 C 
ENDBRANCH  16  17
ENDBRANCH  11  12
ENDBRANCH   9  11
ENDBRANCH   6   7
BRANCH   1  19
ATOM     19  O   UNL     1       1.657   4.616  20.233  0.00  0.00    +0.000 OA
BRANCH  19  21
ATOM     20  C   UNL     1       0.595   2.804  19.049  0.00  0.00    +0.000 C 
ATOM     21  C   UNL     1       0.883   3.473  20.384  0.00  0.00    +0.000 C 
ENDBRANCH  19  21
ENDBRANCH   1  19
BRANCH   5  22
ATOM     22  O   UNL     1       5.197   6.815  17.632  0.00  0.00    +0.000 OA
BRANCH  22  23
ATOM     23  C   UNL     1       6.386   6.719  16.909  0.00  0.00    +0.000 C 
ATOM     24  C   UNL     1       7.538   7.474  17.550  0.00  0.00    +0.000 C 
ENDBRANCH  22  23
ENDBRANCH   5  22
TORSDOF 8
ENDMDL
MODEL 7
REMARK VINA RESULT:      -5.9      3.789      6.541
REMARK  Name = 
REMARK  11 active torsions:
REMARK  status: ('A' for Active; 'I' for Inactive)
REMARK    1  A    between atoms: C_1  and  C_2
REMARK    2  A    between atoms: C_2  and  O_3
REMARK    3  A    between atoms: O_3  and  C_4
REMARK    4  A    between atoms: C_8  and  O_9
REMARK    5  A    between atoms: O_9  and  C_10
REMARK    6  A    between atoms: C_10  and  C_11
REMARK    7  A    between atoms: C_12  and  C_13
REMARK    8  A    between atoms: N_15  and  C_16
REMARK    9  A    between atoms: C_16  and  C_17
REMARK   10  A    between atoms: N_21  and  C_22
REMARK   11  A    between atoms: C_22  and  C_23
REMARK                            x       y       z     vdW  Elec       q    Type
REMARK                         _______ _______ _______ _____ _____    ______ ____
ROOT
ATOM      1  C   UNL     1       2.876   4.763  17.954  0.00  0.00    +0.000 A 
ATOM      2  C   UNL     1       3.588   3.571  17.741  0.00  0.00    +0.000 A 
ATOM      3  C   UNL     1       4.915   3.582  17.390  0.00  0.00    +0.000 A 
ATOM      4  C   UNL     1       5.579   4.775  17.235  0.00  0.00    +0.000 A 
ATOM      5  C   UNL     1       4.935   6.019  17.439  0.00  0.00    +0.000 A 
ATOM      6  C   UNL     1       3.536   6.042  17.799  0.00  0.00    +0.000 A 
ENDROOT
BRANCH   6   7
ATOM      7  C   UNL     1       2.842   7.387  18.065  0.00  0.00    +0.000 C 
ATOM      8  O   UNL     1       2.862   8.240  17.189  0.00  0.00    +0.000 OA
ATOM      9  N   UNL     1       2.220   7.690  19.252  0.00  0.00    +0.000 N 
ATOM     10  H   UNL     1       2.186   7.017  20.010  0.00  0.00    +0.000 HD
BRANCH   9  11
ATOM     11  C   UNL     1       1.601   8.972  19.565  0.00  0.00    +0.000 C 
BRANCH  11  12
ATOM     12  C   UNL     1       1.046   8.941  21.023  0.00  0.00    +0.000 C 
ATOM     13  C   UNL     1      -0.385   8.443  21.183  0.00  0.00    +0.000 C 
ATOM     14  C   UNL     1      -0.554   8.643  22.677  0.00  0.00    +0.000 C 
ATOM     15  C   UNL     1       0.253   9.915  22.973  0.00  0.00    +0.000 C 
ATOM     16  N   UNL     1       1.079  10.215  21.781  0.00  0.00    +0.000 NA
BRANCH  16  17
ATOM     17  C   UNL     1       0.518  11.377  21.031  0.00  0.00    +0.000 C 
ATOM     18  C   UNL     1      -0.447  12.206  21.889  0.00  0.00    +0.000 C 
ENDBRANCH  16  17
ENDBRANCH  11  12
ENDBRANCH   9  11
ENDBRANCH   6   7
BRANCH   1  19
ATOM     19  O   UNL     1       1.561   4.661  18.288  0.00  0.00    +0.000 OA
BRANCH  19  21
ATOM     20  C   UNL     1       1.537   4.470  20.691  0.00  0.00    +0.000 C 
ATOM     21  C   UNL     1       1.047   3.936  19.354  0.00  0.00    +0.000 C 
ENDBRANCH  19  21
ENDBRANCH   1  19
BRANCH   5  22
ATOM     22  O   UNL     1       5.676   7.169  17.331  0.00  0.00    +0.000 OA
BRANCH  22  23
ATOM     23  C   UNL     1       7.062   7.167  17.164  0.00  0.00    +0.000 C 
ATOM     24  C   UNL     1       7.726   8.436  17.668  0.00  0.00    +0.000 C 
ENDBRANCH  22  23
ENDBRANCH   5  22
TORSDOF 8
ENDMDL
MODEL 8
REMARK VINA RESULT:      -5.9      3.879      6.528
REMARK  Name = 
REMARK  11 active torsions:
REMARK  status: ('A' for Active; 'I' for Inactive)
REMARK    1  A    between atoms: C_1  and  C_2
REMARK    2  A    between atoms: C_2  and  O_3
REMARK    3  A    between atoms: O_3  and  C_4
REMARK    4  A    between atoms: C_8  and  O_9
REMARK    5  A    between atoms: O_9  and  C_10
REMARK    6  A    between atoms: C_10  and  C_11
REMARK    7  A    between atoms: C_12  and  C_13
REMARK    8  A    between atoms: N_15  and  C_16
REMARK    9  A    between atoms: C_16  and  C_17
REMARK   10  A    between atoms: N_21  and  C_22
REMARK   11  A    between atoms: C_22  and  C_23
REMARK                            x       y       z     vdW  Elec       q    Type
REMARK                         _______ _______ _______ _____ _____    ______ ____
ROOT
ATOM      1  C   UNL     1       4.103   5.616  17.722  0.00  0.00    +0.000 A 
ATOM      2  C   UNL     1       4.456   4.691  16.726  0.00  0.00    +0.000 A 
ATOM      3  C   UNL     1       3.742   3.535  16.536  0.00  0.00    +0.000 A 
ATOM      4  C   UNL     1       2.658   3.254  17.331  0.00  0.00    +0.000 A 
ATOM      5  C   UNL     1       2.233   4.137  18.352  0.00  0.00    +0.000 A 
ATOM      6  C   UNL     1       2.969   5.359  18.584  0.00  0.00    +0.000 A 
ENDROOT
BRANCH   6   7
ATOM      7  C   UNL     1       2.488   6.343  19.662  0.00  0.00    +0.000 C 
ATOM      8  O   UNL     1       2.374   5.943  20.812  0.00  0.00    +0.000 OA
ATOM      9  N   UNL     1       2.152   7.647  19.392  0.00  0.00    +0.000 N 
ATOM     10  H   UNL     1       2.222   8.020  18.451  0.00  0.00    +0.000 HD
BRANCH   9  11
ATOM     11  C   UNL     1       1.638   8.596  20.373  0.00  0.00    +0.000 C 
BRANCH  11  12
ATOM     12  C   UNL     1       0.580   9.522  19.696  0.00  0.00    +0.000 C 
ATOM     13  C   UNL     1       1.125  10.769  19.011  0.00  0.00    +0.000 C 
ATOM     14  C   UNL     1      -0.181  11.406  18.576  0.00  0.00    +0.000 C 
ATOM     15  C   UNL     1      -1.157  11.059  19.710  0.00  0.00    +0.000 C 
ATOM     16  N   UNL     1      -0.519  10.025  20.556  0.00  0.00    +0.000 NA
BRANCH  16  17
ATOM     17  C   UNL     1      -0.052  10.615  21.845  0.00  0.00    +0.000 C 
ATOM     18  C   UNL     1      -1.007  11.700  22.363  0.00  0.00    +0.000 C 
ENDBRANCH  16  17
ENDBRANCH  11  12
ENDBRANCH   9  11
ENDBRANCH   6   7
BRANCH   1  19
ATOM     19  O   UNL     1       4.872   6.731  17.850  0.00  0.00    +0.000 OA
BRANCH  19  21
ATOM     20  C   UNL     1       7.271   6.549  18.002  0.00  0.00    +0.000 C 
ATOM     21  C   UNL     1       6.064   6.977  17.182  0.00  0.00    +0.000 C 
ENDBRANCH  19  21
ENDBRANCH   1  19
BRANCH   5  22
ATOM     22  O   UNL     1       1.102   3.824  19.064  0.00  0.00    +0.000 OA
BRANCH  22  23
ATOM     23  C   UNL     1       0.958   2.633  19.777  0.00  0.00    +0.000 C 
ATOM     24  C   UNL     1       1.374   2.754  21.233  0.00  0.00    +0.000 C 
ENDBRANCH  22  23
ENDBRANCH   5  22
TORSDOF 8
ENDMDL
MODEL 9
REMARK VINA RESULT:      -5.8      2.112      3.384
REMARK  Name = 
REMARK  11 active torsions:
REMARK  status: ('A' for Active; 'I' for Inactive)
REMARK    1  A    between atoms: C_1  and  C_2
REMARK    2  A    between atoms: C_2  and  O_3
REMARK    3  A    between atoms: O_3  and  C_4
REMARK    4  A    between atoms: C_8  and  O_9
REMARK    5  A    between atoms: O_9  and  C_10
REMARK    6  A    between atoms: C_10  and  C_11
REMARK    7  A    between atoms: C_12  and  C_13
REMARK    8  A    between atoms: N_15  and  C_16
REMARK    9  A    between atoms: C_16  and  C_17
REMARK   10  A    between atoms: N_21  and  C_22
REMARK   11  A    between atoms: C_22  and  C_23
REMARK                            x       y       z     vdW  Elec       q    Type
REMARK                         _______ _______ _______ _____ _____    ______ ____
ROOT
ATOM      1  C   UNL     1       1.798   3.414  18.738  0.00  0.00    +0.000 A 
ATOM      2  C   UNL     1       1.250   2.557  19.707  0.00  0.00    +0.000 A 
ATOM      3  C   UNL     1       1.049   2.972  21.000  0.00  0.00    +0.000 A 
ATOM      4  C   UNL     1       1.390   4.249  21.376  0.00  0.00    +0.000 A 
ATOM      5  C   UNL     1       1.941   5.175  20.459  0.00  0.00    +0.000 A 
ATOM      6  C   UNL     1       2.173   4.767  19.093  0.00  0.00    +0.000 A 
ENDROOT
BRANCH   6   7
ATOM      7  C   UNL     1       2.731   5.781  18.081  0.00  0.00    +0.000 C 
ATOM      8  O   UNL     1       1.959   6.574  17.561  0.00  0.00    +0.000 OA
ATOM      9  N   UNL     1       4.053   5.823  17.711  0.00  0.00    +0.000 N 
ATOM     10  H   UNL     1       4.727   5.178  18.109  0.00  0.00    +0.000 HD
BRANCH   9  11
ATOM     11  C   UNL     1       4.611   6.728  16.713  0.00  0.00    +0.000 C 
BRANCH  11  12
ATOM     12  C   UNL     1       5.474   5.917  15.698  0.00  0.00    +0.000 C 
ATOM     13  C   UNL     1       5.122   4.442  15.551  0.00  0.00    +0.000 C 
ATOM     14  C   UNL     1       6.206   4.024  14.575  0.00  0.00    +0.000 C 
ATOM     15  C   UNL     1       7.417   4.875  14.979  0.00  0.00    +0.000 C 
ATOM     16  N   UNL     1       6.942   5.928  15.907  0.00  0.00    +0.000 NA
BRANCH  16  17
ATOM     17  C   UNL     1       7.353   5.619  17.308  0.00  0.00    +0.000 C 
ATOM     18  C   UNL     1       7.782   6.878  18.074  0.00  0.00    +0.000 C 
ENDBRANCH  16  17
ENDBRANCH  11  12
ENDBRANCH   9  11
ENDBRANCH   6   7
BRANCH   1  19
ATOM     19  O   UNL     1       1.974   2.919  17.484  0.00  0.00    +0.000 OA
BRANCH  19  21
ATOM     20  C   UNL     1       3.762   1.483  18.228  0.00  0.00    +0.000 C 
ATOM     21  C   UNL     1       3.040   2.137  17.061  0.00  0.00    +0.000 C 
ENDBRANCH  19  21
ENDBRANCH   1  19
BRANCH   5  22
ATOM     22  O   UNL     1       2.196   6.453  20.888  0.00  0.00    +0.000 OA
BRANCH  22  23
ATOM     23  C   UNL     1       1.190   7.395  21.110  0.00  0.00    +0.000 C 
ATOM     24  C   UNL     1       1.390   8.679  20.322  0.00  0.00    +0.000 C 
ENDBRANCH  22  23
ENDBRANCH   5  22
TORSDOF 8
ENDMDL
