MODEL 1
REMARK VINA RESULT:      -7.5      0.000      0.000
REMARK  Name = 
REMARK  10 active torsions:
REMARK  status: ('A' for Active; 'I' for Inactive)
REMARK    1  A    between atoms: C_1  and  N_2
REMARK    2  A    between atoms: N_2  and  C_3
REMARK    3  A    between atoms: C_3  and  C_4
REMARK    4  A    between atoms: C_3  and  C_5
REMARK    5  A    between atoms: N_7  and  C_8
REMARK    6  A    between atoms: C_8  and  C_9
REMARK    7  A    between atoms: C_8  and  C_25
REMARK    8  A    between atoms: N_11  and  C_12
REMARK    9  A    between atoms: N_16  and  C_17
REMARK   10  A    between atoms: C_17  and  C_18
REMARK                            x       y       z     vdW  Elec       q    Type
REMARK                         _______ _______ _______ _____ _____    ______ ____
ROOT
ATOM      1  C   UNL     1       2.709   7.804  17.938  0.00  0.00    +0.000 C 
ATOM      2  O   UNL     1       2.966   8.464  16.941  0.00  0.00    +0.000 OA
ATOM      3  N   UNL     1       1.922   8.251  18.966  0.00  0.00    +0.000 N 
ATOM      4  H   UNL     1       1.965   7.701  19.827  0.00  0.00    +0.000 HD
ENDROOT
BRANCH   3   5
ATOM      5  C   UNL     1       1.293   9.567  19.031  0.00  0.00    +0.000 C 
ATOM      6  C   UNL     1       0.106   9.692  18.068  0.00  0.00    +0.000 C 
ATOM      7  C   UNL     1      -0.701  10.958  18.356  0.00  0.00    +0.000 C 
ATOM      8  C   UNL     1      -1.138  11.044  19.824  0.00  0.00    +0.000 C 
ATOM      9  N   UNL     1       0.005  10.972  20.748  0.00  0.00    +0.000 NA
ATOM     10  C   UNL     1       0.812   9.771  20.473  0.00  0.00    +0.000 C 
BRANCH   9  11
ATOM     11  C   UNL     1      -0.416  10.838  22.160  0.00  0.00    +0.000 C 
BRANCH  11  12
ATOM     12  C   UNL     1      -1.239  11.955  22.739  0.00  0.00    +0.000 A 
ATOM     13  C   UNL     1      -2.517  11.673  23.245  0.00  0.00    +0.000 A 
ATOM     14  C   UNL     1      -3.264  12.672  23.869  0.00  0.00    +0.000 A 
ATOM     15  C   UNL     1      -2.730  13.949  24.001  0.00  0.00    +0.000 A 
ATOM     16  C   UNL     1      -1.462  14.239  23.494  0.00  0.00    +0.000 A 
ATOM     17  C   UNL     1      -0.721  13.248  22.860  0.00  0.00    +0.000 A 
ENDBRANCH  11  12
ENDBRANCH   9  11
ENDBRANCH   3   5
BRANCH   1  18
ATOM     18  C   UNL     1       3.202   6.334  18.109  0.00  0.00    +0.000 C 
BRANCH  18  19
ATOM     19  C   UNL     1       2.459   5.659  19.309  0.00  0.00    +0.000 C 
ATOM     20  C   UNL     1       1.310   4.749  18.800  0.00  0.00    +0.000 C 
ATOM     21  C   UNL     1       1.819   3.480  18.114  0.00  0.00    +0.000 C 
ATOM     22  C   UNL     1       2.779   2.702  19.008  0.00  0.00    +0.000 C 
ATOM     23  C   UNL     1       3.903   3.575  19.562  0.00  0.00    +0.000 C 
ATOM     24  C   UNL     1       3.359   4.829  20.239  0.00  0.00    +0.000 C 
ENDBRANCH  18  19
BRANCH  18  27
ATOM     25  C   UNL     1       5.466   5.778  17.084  0.00  0.00    +0.000 C 
ATOM     26  O   UNL     1       4.979   5.344  16.032  0.00  0.00    +0.000 OA
ATOM     27  N   UNL     1       4.673   6.262  18.096  0.00  0.00    +0.000 N 
ATOM     28  H   UNL     1       5.167   6.516  18.953  0.00  0.00    +0.000 HD
BRANCH  25  29
ATOM     29  C   UNL     1       7.002   5.748  17.360  0.00  0.00    +0.000 C 
ATOM     30  C   UNL     1       7.301   5.690  18.860  0.00  0.00    +0.000 C 
BRANCH  29  32
ATOM     31  C   UNL     1       7.811   8.034  17.673  0.00  0.00    +0.000 C 
ATOM     32  N   UNL     1       7.669   6.920  16.725  0.00  0.00    +0.000 NA
ATOM     33  H   UNL     1       8.610   6.629  16.455  0.00  0.00    +0.000 HD
ENDBRANCH  29  32
ENDBRANCH  25  29
ENDBRANCH  18  27
ENDBRANCH   1  18
TORSDOF 8
ENDMDL
MODEL 2
REMARK VINA RESULT:      -7.5      2.293      3.633
REMARK  Name = 
REMARK  10 active torsions:
REMARK  status: ('A' for Active; 'I' for Inactive)
REMARK    1  A    between atoms: C_1  and  N_2
REMARK    2  A    between atoms: N_2  and  C_3
REMARK    3  A    between atoms: C_3  and  C_4
REMARK    4  A    between atoms: C_3  and  C_5
REMARK    5  A    between atoms: N_7  and  C_8
REMARK    6  A    between atoms: C_8  and  C_9
REMARK    7  A    between atoms: C_8  and  C_25
REMARK    8  A    between atoms: N_11  and  C_12
REMARK    9  A    between atoms: N_16  and  C_17
REMARK   10  A    between atoms: C_17  and  C_18
REMARK                            x       y       z     vdW  Elec       q    Type
REMARK                         _______ _______ _______ _____ _____    ______ ____
ROOT
ATOM      1  C   UNL     1       2.298   6.813  19.726  0.00  0.00    +0.000 C 
ATOM      2  O   UNL     1       2.436   7.720  18.918  0.00  0.00    +0.000 OA
ATOM      3  N   UNL     1       1.515   6.903  20.847  0.00  0.00    +0.000 N 
ATOM      4  H   UNL     1       1.656   6.169  21.545  0.00  0.00    +0.000 HD
ENDROOT
BRANCH   3   5
ATOM      5  C   UNL     1       0.752   8.083  21.246  0.00  0.00    +0.000 C 
ATOM      6  C   UNL     1       1.535   8.982  22.211  0.00  0.00    +0.000 C 
ATOM      7  C   UNL     1       0.839  10.331  22.387  0.00  0.00    +0.000 C 
ATOM      8  C   UNL     1       0.571  11.023  21.044  0.00  0.00    +0.000 C 
ATOM      9  N   UNL     1      -0.222  10.179  20.135  0.00  0.00    +0.000 NA
ATOM     10  C   UNL     1       0.418   8.863  19.969  0.00  0.00    +0.000 C 
BRANCH   9  11
ATOM     11  C   UNL     1      -0.305  10.741  18.769  0.00  0.00    +0.000 C 
BRANCH  11  12
ATOM     12  C   UNL     1      -1.646  10.701  18.091  0.00  0.00    +0.000 A 
ATOM     13  C   UNL     1      -2.675  11.533  18.558  0.00  0.00    +0.000 A 
ATOM     14  C   UNL     1      -3.899  11.582  17.891  0.00  0.00    +0.000 A 
ATOM     15  C   UNL     1      -4.092  10.810  16.750  0.00  0.00    +0.000 A 
ATOM     16  C   UNL     1      -3.075   9.975  16.283  0.00  0.00    +0.000 A 
ATOM     17  C   UNL     1      -1.859   9.915  16.954  0.00  0.00    +0.000 A 
ENDBRANCH  11  12
ENDBRANCH   9  11
ENDBRANCH   3   5
BRANCH   1  18
ATOM     18  C   UNL     1       2.952   5.413  19.521  0.00  0.00    +0.000 C 
BRANCH  18  19
ATOM     19  C   UNL     1       2.334   4.383  20.524  0.00  0.00    +0.000 C 
ATOM     20  C   UNL     1       0.905   3.974  20.078  0.00  0.00    +0.000 C 
ATOM     21  C   UNL     1       0.904   3.093  18.828  0.00  0.00    +0.000 C 
ATOM     22  C   UNL     1       1.795   1.867  19.001  0.00  0.00    +0.000 C 
ATOM     23  C   UNL     1       3.200   2.226  19.479  0.00  0.00    +0.000 C 
ATOM     24  C   UNL     1       3.163   3.103  20.725  0.00  0.00    +0.000 C 
ENDBRANCH  18  19
BRANCH  18  27
ATOM     25  C   UNL     1       5.195   5.773  18.369  0.00  0.00    +0.000 C 
ATOM     26  O   UNL     1       4.688   5.962  17.255  0.00  0.00    +0.000 OA
ATOM     27  N   UNL     1       4.420   5.514  19.474  0.00  0.00    +0.000 N 
ATOM     28  H   UNL     1       4.939   5.290  20.326  0.00  0.00    +0.000 HD
BRANCH  25  29
ATOM     29  C   UNL     1       6.741   5.753  18.583  0.00  0.00    +0.000 C 
ATOM     30  C   UNL     1       7.421   6.919  17.862  0.00  0.00    +0.000 C 
BRANCH  29  32
ATOM     31  C   UNL     1       7.524   4.413  16.694  0.00  0.00    +0.000 C 
ATOM     32  N   UNL     1       7.310   4.446  18.148  0.00  0.00    +0.000 NA
ATOM     33  H   UNL     1       8.225   4.347  18.592  0.00  0.00    +0.000 HD
ENDBRANCH  29  32
ENDBRANCH  25  29
ENDBRANCH  18  27
ENDBRANCH   1  18
TORSDOF 8
ENDMDL
MODEL 3
REMARK VINA RESULT:      -7.4      0.476      1.002
REMARK  Name = 
REMARK  10 active torsions:
REMARK  status: ('A' for Active; 'I' for Inactive)
REMARK    1  A    between atoms: C_1  and  N_2
REMARK    2  A    between atoms: N_2  and  C_3
REMARK    3  A    between atoms: C_3  and  C_4
REMARK    4  A    between atoms: C_3  and  C_5
REMARK    5  A    between atoms: N_7  and  C_8
REMARK    6  A    between atoms: C_8  and  C_9
REMARK    7  A    between atoms: C_8  and  C_25
REMARK    8  A    between atoms: N_11  and  C_12
REMARK    9  A    between atoms: N_16  and  C_17
REMARK   10  A    between atoms: C_17  and  C_18
REMARK                            x       y       z     vdW  Elec       q    Type
REMARK                         _______ _______ _______ _____ _____    ______ ____
ROOT
ATOM      1  C   UNL     1       2.756   7.938  17.791  0.00  0.00    +0.000 C 
ATOM      2  O   UNL     1       2.910   8.604  16.778  0.00  0.00    +0.000 OA
ATOM      3  N   UNL     1       1.991   8.335  18.856  0.00  0.00    +0.000 N 
ATOM      4  H   UNL     1       2.120   7.799  19.717  0.00  0.00    +0.000 HD
ENDROOT
BRANCH   3   5
ATOM      5  C   UNL     1       1.268   9.601  18.945  0.00  0.00    +0.000 C 
ATOM      6  C   UNL     1       0.068   9.653  17.991  0.00  0.00    +0.000 C 
ATOM      7  C   UNL     1      -0.826  10.853  18.303  0.00  0.00    +0.000 C 
ATOM      8  C   UNL     1      -1.258  10.886  19.775  0.00  0.00    +0.000 C 
ATOM      9  N   UNL     1      -0.105  10.884  20.691  0.00  0.00    +0.000 NA
ATOM     10  C   UNL     1       0.785   9.749  20.393  0.00  0.00    +0.000 C 
BRANCH   9  11
ATOM     11  C   UNL     1      -0.504  10.699  22.103  0.00  0.00    +0.000 C 
BRANCH  11  12
ATOM     12  C   UNL     1      -1.217  11.842  22.770  0.00  0.00    +0.000 A 
ATOM     13  C   UNL     1      -0.612  13.108  22.793  0.00  0.00    +0.000 A 
ATOM     14  C   UNL     1      -1.291  14.204  23.323  0.00  0.00    +0.000 A 
ATOM     15  C   UNL     1      -2.579  14.041  23.821  0.00  0.00    +0.000 A 
ATOM     16  C   UNL     1      -3.185  12.784  23.809  0.00  0.00    +0.000 A 
ATOM     17  C   UNL     1      -2.506  11.686  23.292  0.00  0.00    +0.000 A 
ENDBRANCH  11  12
ENDBRANCH   9  11
ENDBRANCH   3   5
BRANCH   1  18
ATOM     18  C   UNL     1       3.366   6.511  17.946  0.00  0.00    +0.000 C 
BRANCH  18  19
ATOM     19  C   UNL     1       2.627   5.736  19.088  0.00  0.00    +0.000 C 
ATOM     20  C   UNL     1       1.530   4.810  18.499  0.00  0.00    +0.000 C 
ATOM     21  C   UNL     1       2.109   3.606  17.754  0.00  0.00    +0.000 C 
ATOM     22  C   UNL     1       3.082   2.817  18.625  0.00  0.00    +0.000 C 
ATOM     23  C   UNL     1       4.155   3.703  19.255  0.00  0.00    +0.000 C 
ATOM     24  C   UNL     1       3.542   4.891  19.989  0.00  0.00    +0.000 C 
ENDBRANCH  18  19
BRANCH  18  27
ATOM     25  C   UNL     1       5.707   6.550  16.945  0.00  0.00    +0.000 C 
ATOM     26  O   UNL     1       5.300   6.492  15.777  0.00  0.00    +0.000 OA
ATOM     27  N   UNL     1       4.836   6.566  18.007  0.00  0.00    +0.000 N 
ATOM     28  H   UNL     1       5.275   6.528  18.930  0.00  0.00    +0.000 HD
BRANCH  25  29
ATOM     29  C   UNL     1       7.229   6.543  17.293  0.00  0.00    +0.000 C 
ATOM     30  C   UNL     1       7.478   6.002  18.703  0.00  0.00    +0.000 C 
BRANCH  29  32
ATOM     31  C   UNL     1       8.406   8.387  18.386  0.00  0.00    +0.000 C 
ATOM     32  N   UNL     1       7.806   7.908  17.133  0.00  0.00    +0.000 NA
ATOM     33  H   UNL     1       8.554   7.846  16.441  0.00  0.00    +0.000 HD
ENDBRANCH  29  32
ENDBRANCH  25  29
ENDBRANCH  18  27
ENDBRANCH   1  18
TORSDOF 8
ENDMDL
MODEL 4
REMARK VINA RESULT:      -7.3      1.579      3.689
REMARK  Name = 
REMARK  10 active torsions:
REMARK  status: ('A' for Active; 'I' for Inactive)
REMARK    1  A    between atoms: C_1  and  N_2
REMARK    2  A    between atoms: N_2  and  C_3
REMARK    3  A    between atoms: C_3  and  C_4
REMARK    4  A    between atoms: C_3  and  C_5
REMARK    5  A    between atoms: N_7  and  C_8
REMARK    6  A    between atoms: C_8  and  C_9
REMARK    7  A    between atoms: C_8  and  C_25
REMARK    8  A    between atoms: N_11  and  C_12
REMARK    9  A    between atoms: N_16  and  C_17
REMARK   10  A    between atoms: C_17  and  C_18
REMARK                            x       y       z     vdW  Elec       q    Type
REMARK                         _______ _______ _______ _____ _____    ______ ____
ROOT
ATOM      1  C   UNL     1       2.852   7.963  17.916  0.00  0.00    +0.000 C 
ATOM      2  O   UNL     1       2.984   8.606  16.884  0.00  0.00    +0.000 OA
ATOM      3  N   UNL     1       2.077   8.365  18.971  0.00  0.00    +0.000 N 
ATOM      4  H   UNL     1       2.223   7.857  19.846  0.00  0.00    +0.000 HD
ENDROOT
BRANCH   3   5
ATOM      5  C   UNL     1       1.315   9.610  19.028  0.00  0.00    +0.000 C 
ATOM      6  C   UNL     1       0.109   9.596  18.080  0.00  0.00    +0.000 C 
ATOM      7  C   UNL     1      -0.821  10.776  18.362  0.00  0.00    +0.000 C 
ATOM      8  C   UNL     1      -1.246  10.839  19.835  0.00  0.00    +0.000 C 
ATOM      9  N   UNL     1      -0.089  10.900  20.744  0.00  0.00    +0.000 NA
ATOM     10  C   UNL     1       0.834   9.785  20.473  0.00  0.00    +0.000 C 
BRANCH   9  11
ATOM     11  C   UNL     1      -0.475  10.744  22.163  0.00  0.00    +0.000 C 
BRANCH  11  12
ATOM     12  C   UNL     1      -1.257  11.866  22.788  0.00  0.00    +0.000 A 
ATOM     13  C   UNL     1      -0.740  13.170  22.746  0.00  0.00    +0.000 A 
ATOM     14  C   UNL     1      -1.487  14.240  23.237  0.00  0.00    +0.000 A 
ATOM     15  C   UNL     1      -2.755  14.012  23.760  0.00  0.00    +0.000 A 
ATOM     16  C   UNL     1      -3.273  12.717  23.812  0.00  0.00    +0.000 A 
ATOM     17  C   UNL     1      -2.526  11.646  23.335  0.00  0.00    +0.000 A 
ENDBRANCH  11  12
ENDBRANCH   9  11
ENDBRANCH   3   5
BRANCH   1  18
ATOM     18  C   UNL     1       3.507   6.561  18.108  0.00  0.00    +0.000 C 
BRANCH  18  19
ATOM     19  C   UNL     1       4.521   6.283  16.949  0.00  0.00    +0.000 C 
ATOM     20  C   UNL     1       5.912   6.884  17.283  0.00  0.00    +0.000 C 
ATOM     21  C   UNL     1       6.635   6.124  18.396  0.00  0.00    +0.000 C 
ATOM     22  C   UNL     1       6.743   4.634  18.083  0.00  0.00    +0.000 C 
ATOM     23  C   UNL     1       5.398   4.015  17.710  0.00  0.00    +0.000 C 
ATOM     24  C   UNL     1       4.707   4.797  16.599  0.00  0.00    +0.000 C 
ENDBRANCH  18  19
BRANCH  18  27
ATOM     25  C   UNL     1       2.060   5.100  19.610  0.00  0.00    +0.000 C 
ATOM     26  O   UNL     1       2.516   5.577  20.658  0.00  0.00    +0.000 OA
ATOM     27  N   UNL     1       2.489   5.532  18.379  0.00  0.00    +0.000 N 
ATOM     28  H   UNL     1       2.113   5.015  17.581  0.00  0.00    +0.000 HD
BRANCH  25  29
ATOM     29  C   UNL     1       1.017   3.938  19.614  0.00  0.00    +0.000 C 
ATOM     30  C   UNL     1       1.254   2.977  20.783  0.00  0.00    +0.000 C 
BRANCH  29  32
ATOM     31  C   UNL     1       1.914   2.033  18.369  0.00  0.00    +0.000 C 
ATOM     32  N   UNL     1       1.039   3.213  18.312  0.00  0.00    +0.000 NA
ATOM     33  H   UNL     1       0.091   2.881  18.129  0.00  0.00    +0.000 HD
ENDBRANCH  29  32
ENDBRANCH  25  29
ENDBRANCH  18  27
ENDBRANCH   1  18
TORSDOF 8
ENDMDL
MODEL 5
REMARK VINA RESULT:      -7.3      1.286      1.345
REMARK  Name = 
REMARK  10 active torsions:
REMARK  status: ('A' for Active; 'I' for Inactive)
REMARK    1  A    between atoms: C_1  and  N_2
REMARK    2  A    between atoms: N_2  and  C_3
REMARK    3  A    between atoms: C_3  and  C_4
REMARK    4  A    between atoms: C_3  and  C_5
REMARK    5  A    between atoms: N_7  and  C_8
REMARK    6  A    between atoms: C_8  and  C_9
REMARK    7  A    between atoms: C_8  and  C_25
REMARK    8  A    between atoms: N_11  and  C_12
REMARK    9  A    between atoms: N_16  and  C_17
REMARK   10  A    between atoms: C_17  and  C_18
REMARK                            x       y       z     vdW  Elec       q    Type
REMARK                         _______ _______ _______ _____ _____    ______ ____
ROOT
ATOM      1  C   UNL     1       2.442   7.262  18.906  0.00  0.00    +0.000 C 
ATOM      2  O   UNL     1       2.702   7.766  17.823  0.00  0.00    +0.000 OA
ATOM      3  N   UNL     1       1.800   7.922  19.920  0.00  0.00    +0.000 N 
ATOM      4  H   UNL     1       1.840   7.470  20.836  0.00  0.00    +0.000 HD
ENDROOT
BRANCH   3   5
ATOM      5  C   UNL     1       1.350   9.310  19.866  0.00  0.00    +0.000 C 
ATOM      6  C   UNL     1       0.431   9.577  18.667  0.00  0.00    +0.000 C 
ATOM      7  C   UNL     1      -0.246  10.942  18.791  0.00  0.00    +0.000 C 
ATOM      8  C   UNL     1      -0.980  11.104  20.128  0.00  0.00    +0.000 C 
ATOM      9  N   UNL     1      -0.087  10.896  21.280  0.00  0.00    +0.000 NA
ATOM     10  C   UNL     1       0.595   9.595  21.170  0.00  0.00    +0.000 C 
BRANCH   9  11
ATOM     11  C   UNL     1      -0.822  10.837  22.562  0.00  0.00    +0.000 C 
BRANCH  11  12
ATOM     12  C   UNL     1      -1.545  12.082  22.996  0.00  0.00    +0.000 A 
ATOM     13  C   UNL     1      -2.868  11.983  23.452  0.00  0.00    +0.000 A 
ATOM     14  C   UNL     1      -3.529  13.108  23.945  0.00  0.00    +0.000 A 
ATOM     15  C   UNL     1      -2.867  14.329  23.995  0.00  0.00    +0.000 A 
ATOM     16  C   UNL     1      -1.552  14.437  23.537  0.00  0.00    +0.000 A 
ATOM     17  C   UNL     1      -0.895  13.320  23.033  0.00  0.00    +0.000 A 
ENDBRANCH  11  12
ENDBRANCH   9  11
ENDBRANCH   3   5
BRANCH   1  18
ATOM     18  C   UNL     1       2.756   5.767  19.221  0.00  0.00    +0.000 C 
BRANCH  18  19
ATOM     19  C   UNL     1       2.031   5.337  20.539  0.00  0.00    +0.000 C 
ATOM     20  C   UNL     1       0.623   4.762  20.228  0.00  0.00    +0.000 C 
ATOM     21  C   UNL     1       0.679   3.393  19.549  0.00  0.00    +0.000 C 
ATOM     22  C   UNL     1       1.510   2.398  20.354  0.00  0.00    +0.000 C 
ATOM     23  C   UNL     1       2.890   2.944  20.714  0.00  0.00    +0.000 C 
ATOM     24  C   UNL     1       2.797   4.308  21.388  0.00  0.00    +0.000 C 
ENDBRANCH  18  19
BRANCH  18  27
ATOM     25  C   UNL     1       4.818   4.627  18.254  0.00  0.00    +0.000 C 
ATOM     26  O   UNL     1       4.172   3.969  17.428  0.00  0.00    +0.000 OA
ATOM     27  N   UNL     1       4.199   5.495  19.122  0.00  0.00    +0.000 N 
ATOM     28  H   UNL     1       4.812   5.924  19.818  0.00  0.00    +0.000 HD
BRANCH  25  29
ATOM     29  C   UNL     1       6.363   4.472  18.411  0.00  0.00    +0.000 C 
ATOM     30  C   UNL     1       6.970   5.653  19.174  0.00  0.00    +0.000 C 
BRANCH  29  32
ATOM     31  C   UNL     1       6.935   5.545  16.289  0.00  0.00    +0.000 C 
ATOM     32  N   UNL     1       7.008   4.307  17.077  0.00  0.00    +0.000 NA
ATOM     33  H   UNL     1       7.997   4.106  17.237  0.00  0.00    +0.000 HD
ENDBRANCH  29  32
ENDBRANCH  25  29
ENDBRANCH  18  27
ENDBRANCH   1  18
TORSDOF 8
ENDMDL
MODEL 6
REMARK VINA RESULT:      -7.2      2.462      4.807
REMARK  Name = 
REMARK  10 active torsions:
REMARK  status: ('A' for Active; 'I' for Inactive)
REMARK    1  A    between atoms: C_1  and  N_2
REMARK    2  A    between atoms: N_2  and  C_3
REMARK    3  A    between atoms: C_3  and  C_4
REMARK    4  A    between atoms: C_3  and  C_5
REMARK    5  A    between atoms: N_7  and  C_8
REMARK    6  A    between atoms: C_8  and  C_9
REMARK    7  A    between atoms: C_8  and  C_25
REMARK    8  A    between atoms: N_11  and  C_12
REMARK    9  A    between atoms: N_16  and  C_17
REMARK   10  A    between atoms: C_17  and  C_18
REMARK                            x       y       z     vdW  Elec       q    Type
REMARK                         _______ _______ _______ _____ _____    ______ ____
ROOT
ATOM      1  C   UNL     1       2.579   7.132  19.030  0.00  0.00    +0.000 C 
ATOM      2  O   UNL     1       1.961   7.642  18.106  0.00  0.00    +0.000 OA
ATOM      3  N   UNL     1       2.238   7.279  20.348  0.00  0.00    +0.000 N 
ATOM      4  H   UNL     1       2.950   6.992  21.024  0.00  0.00    +0.000 HD
ENDROOT
BRANCH   3   5
ATOM      5  C   UNL     1       1.112   8.067  20.842  0.00  0.00    +0.000 C 
ATOM      6  C   UNL     1       1.476   8.884  22.088  0.00  0.00    +0.000 C 
ATOM      7  C   UNL     1       0.384   9.903  22.412  0.00  0.00    +0.000 C 
ATOM      8  C   UNL     1       0.053  10.799  21.211  0.00  0.00    +0.000 C 
ATOM      9  N   UNL     1      -0.342  10.017  20.028  0.00  0.00    +0.000 NA
ATOM     10  C   UNL     1       0.685   9.011  19.711  0.00  0.00    +0.000 C 
BRANCH   9  11
ATOM     11  C   UNL     1      -0.455  10.849  18.811  0.00  0.00    +0.000 C 
BRANCH  11  12
ATOM     12  C   UNL     1      -1.747  10.776  18.046  0.00  0.00    +0.000 A 
ATOM     13  C   UNL     1      -2.822  11.590  18.435  0.00  0.00    +0.000 A 
ATOM     14  C   UNL     1      -3.999  11.608  17.689  0.00  0.00    +0.000 A 
ATOM     15  C   UNL     1      -4.101  10.823  16.546  0.00  0.00    +0.000 A 
ATOM     16  C   UNL     1      -3.039  10.004  16.156  0.00  0.00    +0.000 A 
ATOM     17  C   UNL     1      -1.869   9.975  16.906  0.00  0.00    +0.000 A 
ENDBRANCH  11  12
ENDBRANCH   9  11
ENDBRANCH   3   5
BRANCH   1  18
ATOM     18  C   UNL     1       3.797   6.187  18.791  0.00  0.00    +0.000 C 
BRANCH  18  19
ATOM     19  C   UNL     1       4.201   6.210  17.279  0.00  0.00    +0.000 C 
ATOM     20  C   UNL     1       5.347   7.227  17.035  0.00  0.00    +0.000 C 
ATOM     21  C   UNL     1       6.685   6.764  17.614  0.00  0.00    +0.000 C 
ATOM     22  C   UNL     1       7.067   5.376  17.109  0.00  0.00    +0.000 C 
ATOM     23  C   UNL     1       5.948   4.355  17.296  0.00  0.00    +0.000 C 
ATOM     24  C   UNL     1       4.631   4.849  16.707  0.00  0.00    +0.000 C 
ENDBRANCH  18  19
BRANCH  18  27
ATOM     25  C   UNL     1       2.500   4.039  19.226  0.00  0.00    +0.000 C 
ATOM     26  O   UNL     1       1.572   4.344  18.464  0.00  0.00    +0.000 OA
ATOM     27  N   UNL     1       3.577   4.871  19.413  0.00  0.00    +0.000 N 
ATOM     28  H   UNL     1       4.244   4.565  20.125  0.00  0.00    +0.000 HD
BRANCH  25  29
ATOM     29  C   UNL     1       2.481   2.725  20.069  0.00  0.00    +0.000 C 
ATOM     30  C   UNL     1       2.311   3.021  21.561  0.00  0.00    +0.000 C 
BRANCH  29  32
ATOM     31  C   UNL     1       3.725   1.375  18.454  0.00  0.00    +0.000 C 
ATOM     32  N   UNL     1       3.713   1.926  19.817  0.00  0.00    +0.000 NA
ATOM     33  H   UNL     1       4.511   2.559  19.896  0.00  0.00    +0.000 HD
ENDBRANCH  29  32
ENDBRANCH  25  29
ENDBRANCH  18  27
ENDBRANCH   1  18
TORSDOF 8
ENDMDL
MODEL 7
REMARK VINA RESULT:      -7.2      1.391      1.873
REMARK  Name = 
REMARK  10 active torsions:
REMARK  status: ('A' for Active; 'I' for Inactive)
REMARK    1  A    between atoms: C_1  and  N_2
REMARK    2  A    between atoms: N_2  and  C_3
REMARK    3  A    between atoms: C_3  and  C_4
REMARK    4  A    between atoms: C_3  and  C_5
REMARK    5  A    between atoms: N_7  and  C_8
REMARK    6  A    between atoms: C_8  and  C_9
REMARK    7  A    between atoms: C_8  and  C_25
REMARK    8  A    between atoms: N_11  and  C_12
REMARK    9  A    between atoms: N_16  and  C_17
REMARK   10  A    between atoms: C_17  and  C_18
REMARK                            x       y       z     vdW  Elec       q    Type
REMARK                         _______ _______ _______ _____ _____    ______ ____
ROOT
ATOM      1  C   UNL     1       2.069   6.962  20.083  0.00  0.00    +0.000 C 
ATOM      2  O   UNL     1       1.709   7.244  21.218  0.00  0.00    +0.000 OA
ATOM      3  N   UNL     1       2.021   7.837  19.030  0.00  0.00    +0.000 N 
ATOM      4  H   UNL     1       2.139   7.420  18.104  0.00  0.00    +0.000 HD
ENDROOT
BRANCH   3   5
ATOM      5  C   UNL     1       1.527   9.209  19.099  0.00  0.00    +0.000 C 
ATOM      6  C   UNL     1       0.481   9.506  18.017  0.00  0.00    +0.000 C 
ATOM      7  C   UNL     1      -0.219  10.838  18.284  0.00  0.00    +0.000 C 
ATOM      8  C   UNL     1      -0.815  10.905  19.696  0.00  0.00    +0.000 C 
ATOM      9  N   UNL     1       0.198  10.668  20.737  0.00  0.00    +0.000 NA
ATOM     10  C   UNL     1       0.903   9.400  20.487  0.00  0.00    +0.000 C 
BRANCH   9  11
ATOM     11  C   UNL     1      -0.398  10.518  22.083  0.00  0.00    +0.000 C 
BRANCH  11  12
ATOM     12  C   UNL     1      -1.105  11.714  22.658  0.00  0.00    +0.000 A 
ATOM     13  C   UNL     1      -0.516  12.982  22.538  0.00  0.00    +0.000 A 
ATOM     14  C   UNL     1      -1.192  14.118  22.981  0.00  0.00    +0.000 A 
ATOM     15  C   UNL     1      -2.462  13.991  23.534  0.00  0.00    +0.000 A 
ATOM     16  C   UNL     1      -3.052  12.732  23.663  0.00  0.00    +0.000 A 
ATOM     17  C   UNL     1      -2.374  11.596  23.234  0.00  0.00    +0.000 A 
ENDBRANCH  11  12
ENDBRANCH   9  11
ENDBRANCH   3   5
BRANCH   1  18
ATOM     18  C   UNL     1       2.697   5.579  19.732  0.00  0.00    +0.000 C 
BRANCH  18  19
ATOM     19  C   UNL     1       2.151   4.483  20.706  0.00  0.00    +0.000 C 
ATOM     20  C   UNL     1       0.760   3.978  20.238  0.00  0.00    +0.000 C 
ATOM     21  C   UNL     1       0.835   3.127  18.969  0.00  0.00    +0.000 C 
ATOM     22  C   UNL     1       1.815   1.969  19.123  0.00  0.00    +0.000 C 
ATOM     23  C   UNL     1       3.185   2.422  19.621  0.00  0.00    +0.000 C 
ATOM     24  C   UNL     1       3.073   3.265  20.886  0.00  0.00    +0.000 C 
ENDBRANCH  18  19
BRANCH  18  27
ATOM     25  C   UNL     1       4.865   5.694  18.401  0.00  0.00    +0.000 C 
ATOM     26  O   UNL     1       4.295   5.623  17.304  0.00  0.00    +0.000 OA
ATOM     27  N   UNL     1       4.157   5.682  19.579  0.00  0.00    +0.000 N 
ATOM     28  H   UNL     1       4.726   5.660  20.427  0.00  0.00    +0.000 HD
BRANCH  25  29
ATOM     29  C   UNL     1       6.420   5.738  18.525  0.00  0.00    +0.000 C 
ATOM     30  C   UNL     1       7.018   6.867  17.682  0.00  0.00    +0.000 C 
BRANCH  29  32
ATOM     31  C   UNL     1       7.401   4.390  16.736  0.00  0.00    +0.000 C 
ATOM     32  N   UNL     1       7.010   4.421  18.152  0.00  0.00    +0.000 NA
ATOM     33  H   UNL     1       7.860   4.298  18.705  0.00  0.00    +0.000 HD
ENDBRANCH  29  32
ENDBRANCH  25  29
ENDBRANCH  18  27
ENDBRANCH   1  18
TORSDOF 8
ENDMDL
MODEL 8
REMARK VINA RESULT:      -7.2      2.522      3.679
REMARK  Name = 
REMARK  10 active torsions:
REMARK  status: ('A' for Active; 'I' for Inactive)
REMARK    1  A    between atoms: C_1  and  N_2
REMARK    2  A    between atoms: N_2  and  C_3
REMARK    3  A    between atoms: C_3  and  C_4
REMARK    4  A    between atoms: C_3  and  C_5
REMARK    5  A    between atoms: N_7  and  C_8
REMARK    6  A    between atoms: C_8  and  C_9
REMARK    7  A    between atoms: C_8  and  C_25
REMARK    8  A    between atoms: N_11  and  C_12
REMARK    9  A    between atoms: N_16  and  C_17
REMARK   10  A    between atoms: C_17  and  C_18
REMARK                            x       y       z     vdW  Elec       q    Type
REMARK                         _______ _______ _______ _____ _____    ______ ____
ROOT
ATOM      1  C   UNL     1       2.332   7.267  19.325  0.00  0.00    +0.000 C 
ATOM      2  O   UNL     1       2.186   7.282  20.539  0.00  0.00    +0.000 OA
ATOM      3  N   UNL     1       2.171   8.367  18.525  0.00  0.00    +0.000 N 
ATOM      4  H   UNL     1       2.105   8.178  17.522  0.00  0.00    +0.000 HD
ENDROOT
BRANCH   3   5
ATOM      5  C   UNL     1       1.791   9.698  18.992  0.00  0.00    +0.000 C 
ATOM      6  C   UNL     1       2.231  10.801  18.022  0.00  0.00    +0.000 C 
ATOM      7  C   UNL     1       1.582  12.137  18.384  0.00  0.00    +0.000 C 
ATOM      8  C   UNL     1       0.055  12.031  18.482  0.00  0.00    +0.000 C 
ATOM      9  N   UNL     1      -0.368  11.005  19.449  0.00  0.00    +0.000 NA
ATOM     10  C   UNL     1       0.264   9.712  19.134  0.00  0.00    +0.000 C 
BRANCH   9  11
ATOM     11  C   UNL     1      -1.823  10.743  19.397  0.00  0.00    +0.000 C 
BRANCH  11  12
ATOM     12  C   UNL     1      -2.478  10.774  18.044  0.00  0.00    +0.000 A 
ATOM     13  C   UNL     1      -2.014   9.912  17.038  0.00  0.00    +0.000 A 
ATOM     14  C   UNL     1      -2.661   9.856  15.805  0.00  0.00    +0.000 A 
ATOM     15  C   UNL     1      -3.780  10.650  15.577  0.00  0.00    +0.000 A 
ATOM     16  C   UNL     1      -4.244  11.515  16.571  0.00  0.00    +0.000 A 
ATOM     17  C   UNL     1      -3.592  11.583  17.797  0.00  0.00    +0.000 A 
ENDBRANCH  11  12
ENDBRANCH   9  11
ENDBRANCH   3   5
BRANCH   1  18
ATOM     18  C   UNL     1       2.797   5.989  18.561  0.00  0.00    +0.000 C 
BRANCH  18  19
ATOM     19  C   UNL     1       1.953   4.756  19.025  0.00  0.00    +0.000 C 
ATOM     20  C   UNL     1       1.498   3.914  17.803  0.00  0.00    +0.000 C 
ATOM     21  C   UNL     1       2.651   3.157  17.142  0.00  0.00    +0.000 C 
ATOM     22  C   UNL     1       3.411   2.297  18.147  0.00  0.00    +0.000 C 
ATOM     23  C   UNL     1       3.841   3.083  19.384  0.00  0.00    +0.000 C 
ATOM     24  C   UNL     1       2.668   3.823  20.016  0.00  0.00    +0.000 C 
ENDBRANCH  18  19
BRANCH  18  27
ATOM     25  C   UNL     1       5.115   5.884  17.514  0.00  0.00    +0.000 C 
ATOM     26  O   UNL     1       4.694   6.041  16.360  0.00  0.00    +0.000 OA
ATOM     27  N   UNL     1       4.263   5.857  18.591  0.00  0.00    +0.000 N 
ATOM     28  H   UNL     1       4.701   5.637  19.487  0.00  0.00    +0.000 HD
BRANCH  25  29
ATOM     29  C   UNL     1       6.627   5.644  17.818  0.00  0.00    +0.000 C 
ATOM     30  C   UNL     1       7.240   4.630  16.849  0.00  0.00    +0.000 C 
BRANCH  29  32
ATOM     31  C   UNL     1       8.085   5.705  19.781  0.00  0.00    +0.000 C 
ATOM     32  N   UNL     1       6.812   5.214  19.233  0.00  0.00    +0.000 NA
ATOM     33  H   UNL     1       6.061   5.635  19.783  0.00  0.00    +0.000 HD
ENDBRANCH  29  32
ENDBRANCH  25  29
ENDBRANCH  18  27
ENDBRANCH   1  18
TORSDOF 8
ENDMDL
MODEL 9
REMARK VINA RESULT:      -7.1      0.828      1.216
REMARK  Name = 
REMARK  10 active torsions:
REMARK  status: ('A' for Active; 'I' for Inactive)
REMARK    1  A    between atoms: C_1  and  N_2
REMARK    2  A    between atoms: N_2  and  C_3
REMARK    3  A    between atoms: C_3  and  C_4
REMARK    4  A    between atoms: C_3  and  C_5
REMARK    5  A    between atoms: N_7  and  C_8
REMARK    6  A    between atoms: C_8  and  C_9
REMARK    7  A    between atoms: C_8  and  C_25
REMARK    8  A    between atoms: N_11  and  C_12
REMARK    9  A    between atoms: N_16  and  C_17
REMARK   10  A    between atoms: C_17  and  C_18
REMARK                            x       y       z     vdW  Elec       q    Type
REMARK                         _______ _______ _______ _____ _____    ______ ____
ROOT
ATOM      1  C   UNL     1       2.554   7.313  18.659  0.00  0.00    +0.000 C 
ATOM      2  O   UNL     1       2.818   7.856  17.597  0.00  0.00    +0.000 OA
ATOM      3  N   UNL     1       1.851   7.915  19.669  0.00  0.00    +0.000 N 
ATOM      4  H   UNL     1       1.888   7.443  20.576  0.00  0.00    +0.000 HD
ENDROOT
BRANCH   3   5
ATOM      5  C   UNL     1       1.335   9.281  19.635  0.00  0.00    +0.000 C 
ATOM      6  C   UNL     1       0.328   9.492  18.496  0.00  0.00    +0.000 C 
ATOM      7  C   UNL     1      -0.402  10.826  18.654  0.00  0.00    +0.000 C 
ATOM      8  C   UNL     1      -1.056  10.968  20.035  0.00  0.00    +0.000 C 
ATOM      9  N   UNL     1      -0.082  10.812  21.128  0.00  0.00    +0.000 NA
ATOM     10  C   UNL     1       0.652   9.544  20.983  0.00  0.00    +0.000 C 
BRANCH   9  11
ATOM     11  C   UNL     1      -0.729  10.733  22.456  0.00  0.00    +0.000 C 
BRANCH  11  12
ATOM     12  C   UNL     1      -1.424  11.969  22.955  0.00  0.00    +0.000 A 
ATOM     13  C   UNL     1      -0.763  13.204  22.884  0.00  0.00    +0.000 A 
ATOM     14  C   UNL     1      -1.419  14.377  23.255  0.00  0.00    +0.000 A 
ATOM     15  C   UNL     1      -2.739  14.320  23.687  0.00  0.00    +0.000 A 
ATOM     16  C   UNL     1      -3.402  13.094  23.767  0.00  0.00    +0.000 A 
ATOM     17  C   UNL     1      -2.746  11.921  23.409  0.00  0.00    +0.000 A 
ENDBRANCH  11  12
ENDBRANCH   9  11
ENDBRANCH   3   5
BRANCH   1  18
ATOM     18  C   UNL     1       2.933   5.828  18.948  0.00  0.00    +0.000 C 
BRANCH  18  19
ATOM     19  C   UNL     1       2.175   5.322  20.220  0.00  0.00    +0.000 C 
ATOM     20  C   UNL     1       0.823   4.669  19.829  0.00  0.00    +0.000 C 
ATOM     21  C   UNL     1       0.997   3.322  19.126  0.00  0.00    +0.000 C 
ATOM     22  C   UNL     1       1.851   2.362  19.949  0.00  0.00    +0.000 C 
ATOM     23  C   UNL     1       3.175   2.984  20.388  0.00  0.00    +0.000 C 
ATOM     24  C   UNL     1       2.963   4.324  21.084  0.00  0.00    +0.000 C 
ENDBRANCH  18  19
BRANCH  18  27
ATOM     25  C   UNL     1       5.138   5.210  17.835  0.00  0.00    +0.000 C 
ATOM     26  O   UNL     1       4.612   4.947  16.746  0.00  0.00    +0.000 OA
ATOM     27  N   UNL     1       4.392   5.635  18.908  0.00  0.00    +0.000 N 
ATOM     28  H   UNL     1       4.909   5.743  19.782  0.00  0.00    +0.000 HD
BRANCH  25  29
ATOM     29  C   UNL     1       6.667   5.018  18.085  0.00  0.00    +0.000 C 
ATOM     30  C   UNL     1       7.056   5.421  19.510  0.00  0.00    +0.000 C 
BRANCH  29  32
ATOM     31  C   UNL     1       7.544   7.203  17.426  0.00  0.00    +0.000 C 
ATOM     32  N   UNL     1       7.459   5.778  17.077  0.00  0.00    +0.000 NA
ATOM     33  H   UNL     1       8.410   5.405  17.089  0.00  0.00    +0.000 HD
ENDBRANCH  29  32
ENDBRANCH  25  29
ENDBRANCH  18  27
ENDBRANCH   1  18
TORSDOF 8
ENDMDL
