MODEL 1
REMARK VINA RESULT:      -7.0      0.000      0.000
REMARK  Name = 
REMARK  7 active torsions:
REMARK  status: ('A' for Active; 'I' for Inactive)
REMARK    1  A    between atoms: C_1  and  C_2
REMARK    2  A    between atoms: C_7  and  S_8
REMARK    3  A    between atoms: S_8  and  N_11
REMARK    4  A    between atoms: C_16  and  C_17
REMARK    5  A    between atoms: C_17  and  N_18
REMARK    6  A    between atoms: N_18  and  C_19
REMARK    7  A    between atoms: N_18  and  C_20
REMARK                            x       y       z     vdW  Elec       q    Type
REMARK                         _______ _______ _______ _____ _____    ______ ____
ROOT
ATOM      1  N   UNL     1       5.152   4.183  17.638  0.00  0.00    +0.000 NA
ATOM      2  C   UNL     1       6.353   4.682  18.360  0.00  0.00    +0.000 C 
ATOM      3  C   UNL     1       7.365   5.467  17.529  0.00  0.00    +0.000 C 
ATOM      4  O   UNL     1       7.982   4.612  16.573  0.00  0.00    +0.000 OA
ATOM      5  C   UNL     1       7.398   4.688  15.278  0.00  0.00    +0.000 C 
ATOM      6  C   UNL     1       5.860   4.711  15.260  0.00  0.00    +0.000 C 
ATOM      7  C   UNL     1       5.288   3.679  16.242  0.00  0.00    +0.000 C 
ENDROOT
BRANCH   1   8
ATOM      8  S   UNL     1       4.071   3.263  18.620  0.00  0.00    +0.000 S 
ATOM      9  O   UNL     1       4.844   2.709  19.710  0.00  0.00    +0.000 OA
ATOM     10  O   UNL     1       3.320   2.371  17.749  0.00  0.00    +0.000 OA
BRANCH   8  17
ATOM     11  C   UNL     1       1.521   2.807  20.752  0.00  0.00    +0.000 C 
ATOM     12  C   UNL     1       1.941   4.177  20.310  0.00  0.00    +0.000 A 
ATOM     13  C   UNL     1       1.222   5.259  20.873  0.00  0.00    +0.000 A 
ATOM     14  C   UNL     1       1.483   6.584  20.519  0.00  0.00    +0.000 A 
ATOM     15  C   UNL     1       2.464   6.861  19.582  0.00  0.00    +0.000 A 
ATOM     16  C   UNL     1       3.190   5.814  19.015  0.00  0.00    +0.000 A 
ATOM     17  C   UNL     1       2.934   4.467  19.353  0.00  0.00    +0.000 A 
ENDBRANCH   8  17
ENDBRANCH   1   8
BRANCH   6  18
ATOM     18  C   UNL     1       5.389   4.457  13.807  0.00  0.00    +0.000 C 
BRANCH  18  19
ATOM     19  N   UNL     1       6.333   3.672  12.996  0.00  0.00    +0.000 NA
ATOM     20  C   UNL     1       5.660   2.660  12.177  0.00  0.00    +0.000 C 
ATOM     21  C   UNL     1       7.147   4.542  12.147  0.00  0.00    +0.000 C 
ENDBRANCH  18  19
ENDBRANCH   6  18
TORSDOF 4
ENDMDL
MODEL 2
REMARK VINA RESULT:      -6.8      2.096      2.785
REMARK  Name = 
REMARK  7 active torsions:
REMARK  status: ('A' for Active; 'I' for Inactive)
REMARK    1  A    between atoms: C_1  and  C_2
REMARK    2  A    between atoms: C_7  and  S_8
REMARK    3  A    between atoms: S_8  and  N_11
REMARK    4  A    between atoms: C_16  and  C_17
REMARK    5  A    between atoms: C_17  and  N_18
REMARK    6  A    between atoms: N_18  and  C_19
REMARK    7  A    between atoms: N_18  and  C_20
REMARK                            x       y       z     vdW  Elec       q    Type
REMARK                         _______ _______ _______ _____ _____    ______ ____
ROOT
ATOM      1  N   UNL     1       4.345   5.962  18.295  0.00  0.00    +0.000 NA
ATOM      2  C   UNL     1       5.265   5.581  19.401  0.00  0.00    +0.000 C 
ATOM      3  C   UNL     1       6.731   5.377  19.023  0.00  0.00    +0.000 C 
ATOM      4  O   UNL     1       6.864   4.238  18.179  0.00  0.00    +0.000 OA
ATOM      5  C   UNL     1       6.922   4.558  16.794  0.00  0.00    +0.000 C 
ATOM      6  C   UNL     1       5.911   5.619  16.330  0.00  0.00    +0.000 C 
ATOM      7  C   UNL     1       4.528   5.361  16.944  0.00  0.00    +0.000 C 
ENDROOT
BRANCH   1   8
ATOM      8  S   UNL     1       2.696   6.131  18.778  0.00  0.00    +0.000 S 
ATOM      9  O   UNL     1       1.899   6.197  17.574  0.00  0.00    +0.000 OA
ATOM     10  O   UNL     1       2.621   7.214  19.747  0.00  0.00    +0.000 OA
BRANCH   8  17
ATOM     11  C   UNL     1       2.149   3.086  17.481  0.00  0.00    +0.000 C 
ATOM     12  C   UNL     1       2.139   3.323  18.962  0.00  0.00    +0.000 A 
ATOM     13  C   UNL     1       1.922   2.183  19.773  0.00  0.00    +0.000 A 
ATOM     14  C   UNL     1       1.849   2.269  21.164  0.00  0.00    +0.000 A 
ATOM     15  C   UNL     1       1.981   3.501  21.782  0.00  0.00    +0.000 A 
ATOM     16  C   UNL     1       2.200   4.640  21.007  0.00  0.00    +0.000 A 
ATOM     17  C   UNL     1       2.267   4.575  19.598  0.00  0.00    +0.000 A 
ENDBRANCH   8  17
ENDBRANCH   1   8
BRANCH   6  18
ATOM     18  C   UNL     1       5.872   5.605  14.781  0.00  0.00    +0.000 C 
BRANCH  18  19
ATOM     19  N   UNL     1       6.761   4.609  14.165  0.00  0.00    +0.000 NA
ATOM     20  C   UNL     1       6.030   3.631  13.355  0.00  0.00    +0.000 C 
ATOM     21  C   UNL     1       7.795   5.256  13.356  0.00  0.00    +0.000 C 
ENDBRANCH  18  19
ENDBRANCH   6  18
TORSDOF 4
ENDMDL
MODEL 3
REMARK VINA RESULT:      -6.8      1.918      2.658
REMARK  Name = 
REMARK  7 active torsions:
REMARK  status: ('A' for Active; 'I' for Inactive)
REMARK    1  A    between atoms: C_1  and  C_2
REMARK    2  A    between atoms: C_7  and  S_8
REMARK    3  A    between atoms: S_8  and  N_11
REMARK    4  A    between atoms: C_16  and  C_17
REMARK    5  A    between atoms: C_17  and  N_18
REMARK    6  A    between atoms: N_18  and  C_19
REMARK    7  A    between atoms: N_18  and  C_20
REMARK                            x       y       z     vdW  Elec       q    Type
REMARK                         _______ _______ _______ _____ _____    ______ ____
ROOT
ATOM      1  N   UNL     1       4.384   5.415  18.390  0.00  0.00    +0.000 NA
ATOM      2  C   UNL     1       5.423   5.289  19.447  0.00  0.00    +0.000 C 
ATOM      3  C   UNL     1       6.874   5.441  18.993  0.00  0.00    +0.000 C 
ATOM      4  O   UNL     1       7.238   4.354  18.149  0.00  0.00    +0.000 OA
ATOM      5  C   UNL     1       7.147   4.654  16.761  0.00  0.00    +0.000 C 
ATOM      6  C   UNL     1       5.886   5.429  16.346  0.00  0.00    +0.000 C 
ATOM      7  C   UNL     1       4.640   4.853  17.034  0.00  0.00    +0.000 C 
ENDROOT
BRANCH   1   8
ATOM      8  S   UNL     1       2.770   5.186  18.958  0.00  0.00    +0.000 S 
ATOM      9  O   UNL     1       2.844   4.373  20.151  0.00  0.00    +0.000 OA
ATOM     10  O   UNL     1       1.958   4.741  17.836  0.00  0.00    +0.000 OA
BRANCH   8  17
ATOM     11  C   UNL     1       2.815   8.116  17.325  0.00  0.00    +0.000 C 
ATOM     12  C   UNL     1       2.191   7.982  18.682  0.00  0.00    +0.000 A 
ATOM     13  C   UNL     1       1.595   9.152  19.210  0.00  0.00    +0.000 A 
ATOM     14  C   UNL     1       1.014   9.178  20.479  0.00  0.00    +0.000 A 
ATOM     15  C   UNL     1       1.023   8.034  21.259  0.00  0.00    +0.000 A 
ATOM     16  C   UNL     1       1.600   6.866  20.761  0.00  0.00    +0.000 A 
ATOM     17  C   UNL     1       2.202   6.823  19.484  0.00  0.00    +0.000 A 
ENDBRANCH   8  17
ENDBRANCH   1   8
BRANCH   6  18
ATOM     18  C   UNL     1       5.774   5.378  14.802  0.00  0.00    +0.000 C 
BRANCH  18  19
ATOM     19  N   UNL     1       6.740   4.478  14.157  0.00  0.00    +0.000 NA
ATOM     20  C   UNL     1       6.092   3.486  13.294  0.00  0.00    +0.000 C 
ATOM     21  C   UNL     1       7.734   5.232  13.392  0.00  0.00    +0.000 C 
ENDBRANCH  18  19
ENDBRANCH   6  18
TORSDOF 4
ENDMDL
MODEL 4
REMARK VINA RESULT:      -6.7      1.052      1.900
REMARK  Name = 
REMARK  7 active torsions:
REMARK  status: ('A' for Active; 'I' for Inactive)
REMARK    1  A    between atoms: C_1  and  C_2
REMARK    2  A    between atoms: C_7  and  S_8
REMARK    3  A    between atoms: S_8  and  N_11
REMARK    4  A    between atoms: C_16  and  C_17
REMARK    5  A    between atoms: C_17  and  N_18
REMARK    6  A    between atoms: N_18  and  C_19
REMARK    7  A    between atoms: N_18  and  C_20
REMARK                            x       y       z     vdW  Elec       q    Type
REMARK                         _______ _______ _______ _____ _____    ______ ____
ROOT
ATOM      1  N   UNL     1       4.713   3.943  17.096  0.00  0.00    +0.000 NA
ATOM      2  C   UNL     1       5.701   4.204  18.178  0.00  0.00    +0.000 C 
ATOM      3  C   UNL     1       6.907   5.063  17.803  0.00  0.00    +0.000 C 
ATOM      4  O   UNL     1       7.729   4.370  16.871  0.00  0.00    +0.000 OA
ATOM      5  C   UNL     1       7.495   4.740  15.517  0.00  0.00    +0.000 C 
ATOM      6  C   UNL     1       6.013   4.877  15.129  0.00  0.00    +0.000 C 
ATOM      7  C   UNL     1       5.190   3.716  15.703  0.00  0.00    +0.000 C 
ENDROOT
BRANCH   1   8
ATOM      8  S   UNL     1       3.400   2.928  17.571  0.00  0.00    +0.000 S 
ATOM      9  O   UNL     1       3.924   1.589  17.724  0.00  0.00    +0.000 OA
ATOM     10  O   UNL     1       2.295   3.164  16.654  0.00  0.00    +0.000 OA
BRANCH   8  17
ATOM     11  C   UNL     1       2.349   5.938  18.613  0.00  0.00    +0.000 C 
ATOM     12  C   UNL     1       2.414   4.763  19.542  0.00  0.00    +0.000 A 
ATOM     13  C   UNL     1       1.972   4.993  20.868  0.00  0.00    +0.000 A 
ATOM     14  C   UNL     1       2.016   3.998  21.845  0.00  0.00    +0.000 A 
ATOM     15  C   UNL     1       2.514   2.746  21.524  0.00  0.00    +0.000 A 
ATOM     16  C   UNL     1       2.951   2.490  20.226  0.00  0.00    +0.000 A 
ATOM     17  C   UNL     1       2.924   3.488  19.226  0.00  0.00    +0.000 A 
ENDBRANCH   8  17
ENDBRANCH   1   8
BRANCH   6  18
ATOM     18  C   UNL     1       5.923   4.947  13.584  0.00  0.00    +0.000 C 
BRANCH  18  19
ATOM     19  N   UNL     1       5.972   3.638  12.917  0.00  0.00    +0.000 NA
ATOM     20  C   UNL     1       4.766   3.365  12.130  0.00  0.00    +0.000 C 
ATOM     21  C   UNL     1       7.159   3.523  12.069  0.00  0.00    +0.000 C 
ENDBRANCH  18  19
ENDBRANCH   6  18
TORSDOF 4
ENDMDL
MODEL 5
REMARK VINA RESULT:      -6.4      2.093      2.547
REMARK  Name = 
REMARK  7 active torsions:
REMARK  status: ('A' for Active; 'I' for Inactive)
REMARK    1  A    between atoms: C_1  and  C_2
REMARK    2  A    between atoms: C_7  and  S_8
REMARK    3  A    between atoms: S_8  and  N_11
REMARK    4  A    between atoms: C_16  and  C_17
REMARK    5  A    between atoms: C_17  and  N_18
REMARK    6  A    between atoms: N_18  and  C_19
REMARK    7  A    between atoms: N_18  and  C_20
REMARK                            x       y       z     vdW  Elec       q    Type
REMARK                         _______ _______ _______ _____ _____    ______ ____
ROOT
ATOM      1  N   UNL     1       4.504   5.623  18.332  0.00  0.00    +0.000 NA
ATOM      2  C   UNL     1       5.575   5.471  19.354  0.00  0.00    +0.000 C 
ATOM      3  C   UNL     1       7.013   5.512  18.840  0.00  0.00    +0.000 C 
ATOM      4  O   UNL     1       7.275   4.373  18.028  0.00  0.00    +0.000 OA
ATOM      5  C   UNL     1       7.147   4.625  16.633  0.00  0.00    +0.000 C 
ATOM      6  C   UNL     1       5.921   5.463  16.234  0.00  0.00    +0.000 C 
ATOM      7  C   UNL     1       4.671   4.994  16.991  0.00  0.00    +0.000 C 
ENDROOT
BRANCH   1   8
ATOM      8  S   UNL     1       2.903   5.520  18.969  0.00  0.00    +0.000 S 
ATOM      9  O   UNL     1       3.016   5.155  20.364  0.00  0.00    +0.000 OA
ATOM     10  O   UNL     1       2.116   4.687  18.073  0.00  0.00    +0.000 OA
BRANCH   8  17
ATOM     11  C   UNL     1       1.162   7.220  21.279  0.00  0.00    +0.000 C 
ATOM     12  C   UNL     1       1.601   7.860  19.995  0.00  0.00    +0.000 A 
ATOM     13  C   UNL     1       1.268   9.227  19.837  0.00  0.00    +0.000 A 
ATOM     14  C   UNL     1       1.580   9.935  18.676  0.00  0.00    +0.000 A 
ATOM     15  C   UNL     1       2.226   9.289  17.634  0.00  0.00    +0.000 A 
ATOM     16  C   UNL     1       2.569   7.944  17.765  0.00  0.00    +0.000 A 
ATOM     17  C   UNL     1       2.253   7.209  18.929  0.00  0.00    +0.000 A 
ENDBRANCH   8  17
ENDBRANCH   1   8
BRANCH   6  18
ATOM     18  C   UNL     1       5.744   5.361  14.699  0.00  0.00    +0.000 C 
BRANCH  18  19
ATOM     19  N   UNL     1       6.720   4.482  14.037  0.00  0.00    +0.000 NA
ATOM     20  C   UNL     1       6.083   3.525  13.127  0.00  0.00    +0.000 C 
ATOM     21  C   UNL     1       7.728   5.261  13.318  0.00  0.00    +0.000 C 
ENDBRANCH  18  19
ENDBRANCH   6  18
TORSDOF 4
ENDMDL
MODEL 6
REMARK VINA RESULT:      -6.4      1.713      2.546
REMARK  Name = 
REMARK  7 active torsions:
REMARK  status: ('A' for Active; 'I' for Inactive)
REMARK    1  A    between atoms: C_1  and  C_2
REMARK    2  A    between atoms: C_7  and  S_8
REMARK    3  A    between atoms: S_8  and  N_11
REMARK    4  A    between atoms: C_16  and  C_17
REMARK    5  A    between atoms: C_17  and  N_18
REMARK    6  A    between atoms: N_18  and  C_19
REMARK    7  A    between atoms: N_18  and  C_20
REMARK                            x       y       z     vdW  Elec       q    Type
REMARK                         _______ _______ _______ _____ _____    ______ ____
ROOT
ATOM      1  N   UNL     1       4.140   4.904  17.402  0.00  0.00    +0.000 NA
ATOM      2  C   UNL     1       4.743   5.587  18.577  0.00  0.00    +0.000 C 
ATOM      3  C   UNL     1       6.220   5.959  18.460  0.00  0.00    +0.000 C 
ATOM      4  O   UNL     1       7.019   4.782  18.414  0.00  0.00    +0.000 OA
ATOM      5  C   UNL     1       7.381   4.389  17.096  0.00  0.00    +0.000 C 
ATOM      6  C   UNL     1       6.247   4.468  16.060  0.00  0.00    +0.000 C 
ATOM      7  C   UNL     1       4.941   3.906  16.637  0.00  0.00    +0.000 C 
ENDROOT
BRANCH   1   8
ATOM      8  S   UNL     1       2.483   4.467  17.615  0.00  0.00    +0.000 S 
ATOM      9  O   UNL     1       2.172   3.459  16.627  0.00  0.00    +0.000 OA
ATOM     10  O   UNL     1       1.698   5.691  17.661  0.00  0.00    +0.000 OA
BRANCH   8  17
ATOM     11  C   UNL     1       3.641   1.472  18.585  0.00  0.00    +0.000 C 
ATOM     12  C   UNL     1       2.995   2.416  19.554  0.00  0.00    +0.000 A 
ATOM     13  C   UNL     1       2.937   1.982  20.900  0.00  0.00    +0.000 A 
ATOM     14  C   UNL     1       2.328   2.745  21.898  0.00  0.00    +0.000 A 
ATOM     15  C   UNL     1       1.748   3.960  21.571  0.00  0.00    +0.000 A 
ATOM     16  C   UNL     1       1.794   4.414  20.254  0.00  0.00    +0.000 A 
ATOM     17  C   UNL     1       2.398   3.651  19.229  0.00  0.00    +0.000 A 
ENDBRANCH   8  17
ENDBRANCH   1   8
BRANCH   6  18
ATOM     18  C   UNL     1       6.699   3.705  14.790  0.00  0.00    +0.000 C 
BRANCH  18  19
ATOM     19  N   UNL     1       6.486   4.442  13.536  0.00  0.00    +0.000 NA
ATOM     20  C   UNL     1       7.678   5.182  13.112  0.00  0.00    +0.000 C 
ATOM     21  C   UNL     1       6.046   3.546  12.466  0.00  0.00    +0.000 C 
ENDBRANCH  18  19
ENDBRANCH   6  18
TORSDOF 4
ENDMDL
MODEL 7
REMARK VINA RESULT:      -6.4      2.711      6.475
REMARK  Name = 
REMARK  7 active torsions:
REMARK  status: ('A' for Active; 'I' for Inactive)
REMARK    1  A    between atoms: C_1  and  C_2
REMARK    2  A    between atoms: C_7  and  S_8
REMARK    3  A    between atoms: S_8  and  N_11
REMARK    4  A    between atoms: C_16  and  C_17
REMARK    5  A    between atoms: C_17  and  N_18
REMARK    6  A    between atoms: N_18  and  C_19
REMARK    7  A    between atoms: N_18  and  C_20
REMARK                            x       y       z     vdW  Elec       q    Type
REMARK                         _______ _______ _______ _____ _____    ______ ____
ROOT
ATOM      1  N   UNL     1       3.014   5.145  18.690  0.00  0.00    +0.000 NA
ATOM      2  C   UNL     1       2.431   4.621  19.954  0.00  0.00    +0.000 C 
ATOM      3  C   UNL     1       1.350   5.479  20.609  0.00  0.00    +0.000 C 
ATOM      4  O   UNL     1       1.912   6.700  21.077  0.00  0.00    +0.000 OA
ATOM      5  C   UNL     1       1.733   7.791  20.181  0.00  0.00    +0.000 C 
ATOM      6  C   UNL     1       1.984   7.463  18.700  0.00  0.00    +0.000 C 
ATOM      7  C   UNL     1       3.249   6.609  18.538  0.00  0.00    +0.000 C 
ENDROOT
BRANCH   1   8
ATOM      8  S   UNL     1       4.262   4.154  18.026  0.00  0.00    +0.000 S 
ATOM      9  O   UNL     1       3.915   3.889  16.647  0.00  0.00    +0.000 OA
ATOM     10  O   UNL     1       4.484   3.041  18.935  0.00  0.00    +0.000 OA
BRANCH   8  17
ATOM     11  C   UNL     1       5.340   6.309  15.691  0.00  0.00    +0.000 C 
ATOM     12  C   UNL     1       6.063   6.134  16.993  0.00  0.00    +0.000 A 
ATOM     13  C   UNL     1       7.200   6.955  17.188  0.00  0.00    +0.000 A 
ATOM     14  C   UNL     1       7.988   6.866  18.337  0.00  0.00    +0.000 A 
ATOM     15  C   UNL     1       7.665   5.944  19.318  0.00  0.00    +0.000 A 
ATOM     16  C   UNL     1       6.548   5.126  19.154  0.00  0.00    +0.000 A 
ATOM     17  C   UNL     1       5.744   5.194  17.994  0.00  0.00    +0.000 A 
ENDBRANCH   8  17
ENDBRANCH   1   8
BRANCH   6  18
ATOM     18  C   UNL     1       2.079   8.797  17.919  0.00  0.00    +0.000 C 
BRANCH  18  19
ATOM     19  N   UNL     1       1.319   9.903  18.521  0.00  0.00    +0.000 NA
ATOM     20  C   UNL     1       1.980  11.199  18.342  0.00  0.00    +0.000 C 
ATOM     21  C   UNL     1      -0.043   9.959  17.987  0.00  0.00    +0.000 C 
ENDBRANCH  18  19
ENDBRANCH   6  18
TORSDOF 4
ENDMDL
MODEL 8
REMARK VINA RESULT:      -6.4      2.740      6.397
REMARK  Name = 
REMARK  7 active torsions:
REMARK  status: ('A' for Active; 'I' for Inactive)
REMARK    1  A    between atoms: C_1  and  C_2
REMARK    2  A    between atoms: C_7  and  S_8
REMARK    3  A    between atoms: S_8  and  N_11
REMARK    4  A    between atoms: C_16  and  C_17
REMARK    5  A    between atoms: C_17  and  N_18
REMARK    6  A    between atoms: N_18  and  C_19
REMARK    7  A    between atoms: N_18  and  C_20
REMARK                            x       y       z     vdW  Elec       q    Type
REMARK                         _______ _______ _______ _____ _____    ______ ____
ROOT
ATOM      1  N   UNL     1       3.448   4.453  18.714  0.00  0.00    +0.000 NA
ATOM      2  C   UNL     1       2.470   3.412  19.129  0.00  0.00    +0.000 C 
ATOM      3  C   UNL     1       1.112   3.913  19.618  0.00  0.00    +0.000 C 
ATOM      4  O   UNL     1       1.264   4.620  20.844  0.00  0.00    +0.000 OA
ATOM      5  C   UNL     1       1.328   6.032  20.684  0.00  0.00    +0.000 C 
ATOM      6  C   UNL     1       2.210   6.515  19.520  0.00  0.00    +0.000 C 
ATOM      7  C   UNL     1       3.529   5.732  19.475  0.00  0.00    +0.000 C 
ENDROOT
BRANCH   1   8
ATOM      8  S   UNL     1       4.977   3.825  18.218  0.00  0.00    +0.000 S 
ATOM      9  O   UNL     1       4.801   3.247  16.904  0.00  0.00    +0.000 OA
ATOM     10  O   UNL     1       5.496   3.001  19.299  0.00  0.00    +0.000 OA
BRANCH   8  17
ATOM     11  C   UNL     1       4.726   6.416  16.102  0.00  0.00    +0.000 C 
ATOM     12  C   UNL     1       5.808   6.349  17.138  0.00  0.00    +0.000 A 
ATOM     13  C   UNL     1       6.687   7.457  17.191  0.00  0.00    +0.000 A 
ATOM     14  C   UNL     1       7.762   7.507  18.080  0.00  0.00    +0.000 A 
ATOM     15  C   UNL     1       7.991   6.442  18.935  0.00  0.00    +0.000 A 
ATOM     16  C   UNL     1       7.138   5.340  18.908  0.00  0.00    +0.000 A 
ATOM     17  C   UNL     1       6.052   5.267  18.008  0.00  0.00    +0.000 A 
ENDBRANCH   8  17
ENDBRANCH   1   8
BRANCH   6  18
ATOM     18  C   UNL     1       2.441   8.037  19.688  0.00  0.00    +0.000 C 
BRANCH  18  19
ATOM     19  N   UNL     1       1.426   8.877  19.036  0.00  0.00    +0.000 NA
ATOM     20  C   UNL     1       0.874   9.891  19.939  0.00  0.00    +0.000 C 
ATOM     21  C   UNL     1       1.963   9.516  17.834  0.00  0.00    +0.000 C 
ENDBRANCH  18  19
ENDBRANCH   6  18
TORSDOF 4
ENDMDL
MODEL 9
REMARK VINA RESULT:      -6.3      1.147      1.463
REMARK  Name = 
REMARK  7 active torsions:
REMARK  status: ('A' for Active; 'I' for Inactive)
REMARK    1  A    between atoms: C_1  and  C_2
REMARK    2  A    between atoms: C_7  and  S_8
REMARK    3  A    between atoms: S_8  and  N_11
REMARK    4  A    between atoms: C_16  and  C_17
REMARK    5  A    between atoms: C_17  and  N_18
REMARK    6  A    between atoms: N_18  and  C_19
REMARK    7  A    between atoms: N_18  and  C_20
REMARK                            x       y       z     vdW  Elec       q    Type
REMARK                         _______ _______ _______ _____ _____    ______ ____
ROOT
ATOM      1  N   UNL     1       4.446   4.799  17.065  0.00  0.00    +0.000 NA
ATOM      2  C   UNL     1       5.270   5.854  17.716  0.00  0.00    +0.000 C 
ATOM      3  C   UNL     1       6.436   6.404  16.898  0.00  0.00    +0.000 C 
ATOM      4  O   UNL     1       7.421   5.394  16.710  0.00  0.00    +0.000 OA
ATOM      5  C   UNL     1       7.323   4.727  15.457  0.00  0.00    +0.000 C 
ATOM      6  C   UNL     1       5.894   4.355  15.030  0.00  0.00    +0.000 C 
ATOM      7  C   UNL     1       5.107   3.771  16.211  0.00  0.00    +0.000 C 
ENDROOT
BRANCH   1   8
ATOM      8  S   UNL     1       3.175   4.185  18.058  0.00  0.00    +0.000 S 
ATOM      9  O   UNL     1       3.784   3.363  19.079  0.00  0.00    +0.000 OA
ATOM     10  O   UNL     1       2.162   3.611  17.186  0.00  0.00    +0.000 OA
BRANCH   8  17
ATOM     11  C   UNL     1       1.858   4.460  21.131  0.00  0.00    +0.000 C 
ATOM     12  C   UNL     1       2.022   5.652  20.236  0.00  0.00    +0.000 A 
ATOM     13  C   UNL     1       1.623   6.897  20.780  0.00  0.00    +0.000 A 
ATOM     14  C   UNL     1       1.684   8.080  20.043  0.00  0.00    +0.000 A 
ATOM     15  C   UNL     1       2.138   8.047  18.734  0.00  0.00    +0.000 A 
ATOM     16  C   UNL     1       2.541   6.836  18.175  0.00  0.00    +0.000 A 
ATOM     17  C   UNL     1       2.477   5.627  18.903  0.00  0.00    +0.000 A 
ENDBRANCH   8  17
ENDBRANCH   1   8
BRANCH   6  18
ATOM     18  C   UNL     1       5.987   3.362  13.844  0.00  0.00    +0.000 C 
BRANCH  18  19
ATOM     19  N   UNL     1       5.803   3.982  12.524  0.00  0.00    +0.000 NA
ATOM     20  C   UNL     1       7.059   4.088  11.775  0.00  0.00    +0.000 C 
ATOM     21  C   UNL     1       4.810   3.253  11.733  0.00  0.00    +0.000 C 
ENDBRANCH  18  19
ENDBRANCH   6  18
TORSDOF 4
ENDMDL
