MODEL 1
REMARK VINA RESULT:      -6.3      0.000      0.000
REMARK  Name = 
REMARK  11 active torsions:
REMARK  status: ('A' for Active; 'I' for Inactive)
REMARK    1  A    between atoms: C_1  and  N_2
REMARK    2  A    between atoms: C_3  and  N_4
REMARK    3  A    between atoms: C_9  and  C_10
REMARK    4  A    between atoms: C_10  and  O_11
REMARK    5  A    between atoms: O_11  and  P_12
REMARK    6  A    between atoms: P_12  and  N_14
REMARK    7  A    between atoms: P_12  and  N_18
REMARK    8  A    between atoms: N_14  and  C_15
REMARK    9  A    between atoms: C_15  and  C_16
REMARK   10  A    between atoms: N_18  and  C_19
REMARK   11  A    between atoms: C_19  and  C_20
REMARK                            x       y       z     vdW  Elec       q    Type
REMARK                         _______ _______ _______ _____ _____    ______ ____
ROOT
ATOM      1  P   UNL     1       6.613   5.304  16.658  0.00  0.00    +0.000 P 
ATOM      2  O   UNL     1       7.915   4.500  16.618  0.00  0.00    +0.000 OA
ENDROOT
BRANCH   1   3
ATOM      3  N   UNL     1       6.121   5.512  15.047  0.00  0.00    +0.000 NA
ATOM      4  H   UNL     1       6.118   6.513  14.880  0.00  0.00    +0.000 HD
BRANCH   3   5
ATOM      5  C   UNL     1       6.866   4.885  13.942  0.00  0.00    +0.000 C 
BRANCH   5   6
ATOM      6  C   UNL     1       6.370   3.503  13.539  0.00  0.00    +0.000 C 
ATOM      7 BR   UNL     1       5.043   3.622  12.122  0.00  0.00    +0.000 Br
ENDBRANCH   5   6
ENDBRANCH   3   5
ENDBRANCH   1   3
BRANCH   1   8
ATOM      8  N   UNL     1       7.613   6.771  16.530  0.00  0.00    +0.000 NA
ATOM      9  H   UNL     1       7.586   7.038  15.551  0.00  0.00    +0.000 HD
BRANCH   8  10
ATOM     10  C   UNL     1       7.313   7.910  17.403  0.00  0.00    +0.000 C 
BRANCH  10  11
ATOM     11  C   UNL     1       8.397   8.142  18.448  0.00  0.00    +0.000 C 
ATOM     12 BR   UNL     1       8.881  10.028  18.502  0.00  0.00    +0.000 Br
ENDBRANCH  10  11
ENDBRANCH   8  10
ENDBRANCH   1   8
BRANCH   1  13
ATOM     13  O   UNL     1       5.642   3.878  16.784  0.00  0.00    +0.000 OA
BRANCH  13  14
ATOM     14  C   UNL     1       4.244   4.126  16.661  0.00  0.00    +0.000 C 
BRANCH  14  20
ATOM     15  C   UNL     1       3.730   5.250  19.447  0.00  0.00    +0.000 C 
ATOM     16  N   UNL     1       3.322   3.923  19.048  0.00  0.00    +0.000 N 
ATOM     17  C   UNL     1       2.694   2.935  19.766  0.00  0.00    +0.000 A 
ATOM     18  C   UNL     1       2.585   1.858  18.922  0.00  0.00    +0.000 A 
ATOM     19  N   UNL     1       3.111   2.160  17.698  0.00  0.00    +0.000 NA
ATOM     20  C   UNL     1       3.547   3.407  17.774  0.00  0.00    +0.000 A 
BRANCH  17  21
ATOM     21  N   UNL     1       2.236   3.002  21.116  0.00  0.00    +0.000 N 
ATOM     22  O   UNL     1       2.892   2.422  21.984  0.00  0.00    +0.000 OA
ATOM     23  O   UNL     1       1.205   3.656  21.312  0.00  0.00    +0.000 OA
ENDBRANCH  17  21
ENDBRANCH  14  20
ENDBRANCH  13  14
ENDBRANCH   1  13
TORSDOF 10
ENDMDL
MODEL 2
REMARK VINA RESULT:      -6.2      1.574      4.344
REMARK  Name = 
REMARK  11 active torsions:
REMARK  status: ('A' for Active; 'I' for Inactive)
REMARK    1  A    between atoms: C_1  and  N_2
REMARK    2  A    between atoms: C_3  and  N_4
REMARK    3  A    between atoms: C_9  and  C_10
REMARK    4  A    between atoms: C_10  and  O_11
REMARK    5  A    between atoms: O_11  and  P_12
REMARK    6  A    between atoms: P_12  and  N_14
REMARK    7  A    between atoms: P_12  and  N_18
REMARK    8  A    between atoms: N_14  and  C_15
REMARK    9  A    between atoms: C_15  and  C_16
REMARK   10  A    between atoms: N_18  and  C_19
REMARK   11  A    between atoms: C_19  and  C_20
REMARK                            x       y       z     vdW  Elec       q    Type
REMARK                         _______ _______ _______ _____ _____    ______ ____
ROOT
ATOM      1  P   UNL     1       6.398   4.459  15.182  0.00  0.00    +0.000 P 
ATOM      2  O   UNL     1       5.363   5.538  14.855  0.00  0.00    +0.000 OA
ENDROOT
BRANCH   1   3
ATOM      3  N   UNL     1       7.543   5.180  16.209  0.00  0.00    +0.000 NA
ATOM      4  H   UNL     1       7.276   6.156  16.286  0.00  0.00    +0.000 HD
BRANCH   3   5
ATOM      5  C   UNL     1       7.757   4.673  17.576  0.00  0.00    +0.000 C 
BRANCH   5   6
ATOM      6  C   UNL     1       7.523   5.695  18.679  0.00  0.00    +0.000 C 
ATOM      7 BR   UNL     1       7.826   7.505  18.033  0.00  0.00    +0.000 Br
ENDBRANCH   5   6
ENDBRANCH   3   5
ENDBRANCH   1   3
BRANCH   1   8
ATOM      8  N   UNL     1       7.319   5.033  13.771  0.00  0.00    +0.000 NA
ATOM      9  H   UNL     1       8.286   4.778  13.951  0.00  0.00    +0.000 HD
BRANCH   8  10
ATOM     10  C   UNL     1       6.896   4.613  12.432  0.00  0.00    +0.000 C 
BRANCH  10  11
ATOM     11  C   UNL     1       6.314   3.206  12.420  0.00  0.00    +0.000 C 
ATOM     12 BR   UNL     1       4.596   3.199  11.502  0.00  0.00    +0.000 Br
ENDBRANCH  10  11
ENDBRANCH   8  10
ENDBRANCH   1   8
BRANCH   1  13
ATOM     13  O   UNL     1       5.502   3.902  16.553  0.00  0.00    +0.000 OA
BRANCH  13  14
ATOM     14  C   UNL     1       4.154   4.363  16.581  0.00  0.00    +0.000 C 
BRANCH  14  20
ATOM     15  C   UNL     1       2.964   2.011  18.109  0.00  0.00    +0.000 C 
ATOM     16  N   UNL     1       3.153   3.315  18.699  0.00  0.00    +0.000 N 
ATOM     17  C   UNL     1       2.845   3.773  19.957  0.00  0.00    +0.000 A 
ATOM     18  C   UNL     1       3.190   5.102  19.977  0.00  0.00    +0.000 A 
ATOM     19  N   UNL     1       3.720   5.472  18.774  0.00  0.00    +0.000 NA
ATOM     20  C   UNL     1       3.704   4.392  18.008  0.00  0.00    +0.000 A 
BRANCH  17  21
ATOM     21  N   UNL     1       2.284   3.028  21.037  0.00  0.00    +0.000 N 
ATOM     22  O   UNL     1       1.056   2.955  21.119  0.00  0.00    +0.000 OA
ATOM     23  O   UNL     1       3.088   2.498  21.812  0.00  0.00    +0.000 OA
ENDBRANCH  17  21
ENDBRANCH  14  20
ENDBRANCH  13  14
ENDBRANCH   1  13
TORSDOF 10
ENDMDL
MODEL 3
REMARK VINA RESULT:      -6.1      1.580      4.504
REMARK  Name = 
REMARK  11 active torsions:
REMARK  status: ('A' for Active; 'I' for Inactive)
REMARK    1  A    between atoms: C_1  and  N_2
REMARK    2  A    between atoms: C_3  and  N_4
REMARK    3  A    between atoms: C_9  and  C_10
REMARK    4  A    between atoms: C_10  and  O_11
REMARK    5  A    between atoms: O_11  and  P_12
REMARK    6  A    between atoms: P_12  and  N_14
REMARK    7  A    between atoms: P_12  and  N_18
REMARK    8  A    between atoms: N_14  and  C_15
REMARK    9  A    between atoms: C_15  and  C_16
REMARK   10  A    between atoms: N_18  and  C_19
REMARK   11  A    between atoms: C_19  and  C_20
REMARK                            x       y       z     vdW  Elec       q    Type
REMARK                         _______ _______ _______ _____ _____    ______ ____
ROOT
ATOM      1  P   UNL     1       6.158   5.569  16.542  0.00  0.00    +0.000 P 
ATOM      2  O   UNL     1       5.388   6.487  15.589  0.00  0.00    +0.000 OA
ENDROOT
BRANCH   1   3
ATOM      3  N   UNL     1       7.571   6.400  16.982  0.00  0.00    +0.000 NA
ATOM      4  H   UNL     1       8.218   6.286  16.209  0.00  0.00    +0.000 HD
BRANCH   3   5
ATOM      5  C   UNL     1       7.531   7.836  17.313  0.00  0.00    +0.000 C 
BRANCH   5   6
ATOM      6  C   UNL     1       8.399   8.243  18.495  0.00  0.00    +0.000 C 
ATOM      7 BR   UNL     1       8.880  10.125  18.393  0.00  0.00    +0.000 Br
ENDBRANCH   5   6
ENDBRANCH   3   5
ENDBRANCH   1   3
BRANCH   1   8
ATOM      8  N   UNL     1       6.997   4.924  15.110  0.00  0.00    +0.000 NA
ATOM      9  H   UNL     1       7.915   4.638  15.435  0.00  0.00    +0.000 HD
BRANCH   8  10
ATOM     10  C   UNL     1       6.351   3.866  14.328  0.00  0.00    +0.000 C 
BRANCH  10  11
ATOM     11  C   UNL     1       6.586   4.022  12.832  0.00  0.00    +0.000 C 
ATOM     12 BR   UNL     1       5.214   3.065  11.835  0.00  0.00    +0.000 Br
ENDBRANCH  10  11
ENDBRANCH   8  10
ENDBRANCH   1   8
BRANCH   1  13
ATOM     13  O   UNL     1       5.342   6.194  17.933  0.00  0.00    +0.000 OA
BRANCH  13  14
ATOM     14  C   UNL     1       5.675   5.519  19.143  0.00  0.00    +0.000 C 
BRANCH  14  20
ATOM     15  C   UNL     1       2.717   5.879  19.780  0.00  0.00    +0.000 C 
ATOM     16  N   UNL     1       3.338   4.582  19.641  0.00  0.00    +0.000 N 
ATOM     17  C   UNL     1       2.805   3.324  19.780  0.00  0.00    +0.000 A 
ATOM     18  C   UNL     1       3.843   2.445  19.589  0.00  0.00    +0.000 A 
ATOM     19  N   UNL     1       4.996   3.125  19.319  0.00  0.00    +0.000 NA
ATOM     20  C   UNL     1       4.688   4.412  19.342  0.00  0.00    +0.000 A 
BRANCH  17  21
ATOM     21  N   UNL     1       1.448   2.984  20.059  0.00  0.00    +0.000 N 
ATOM     22  O   UNL     1       0.707   2.714  19.111  0.00  0.00    +0.000 OA
ATOM     23  O   UNL     1       1.120   2.976  21.251  0.00  0.00    +0.000 OA
ENDBRANCH  17  21
ENDBRANCH  14  20
ENDBRANCH  13  14
ENDBRANCH   1  13
TORSDOF 10
ENDMDL
MODEL 4
REMARK VINA RESULT:      -6.1      1.769      2.014
REMARK  Name = 
REMARK  11 active torsions:
REMARK  status: ('A' for Active; 'I' for Inactive)
REMARK    1  A    between atoms: C_1  and  N_2
REMARK    2  A    between atoms: C_3  and  N_4
REMARK    3  A    between atoms: C_9  and  C_10
REMARK    4  A    between atoms: C_10  and  O_11
REMARK    5  A    between atoms: O_11  and  P_12
REMARK    6  A    between atoms: P_12  and  N_14
REMARK    7  A    between atoms: P_12  and  N_18
REMARK    8  A    between atoms: N_14  and  C_15
REMARK    9  A    between atoms: C_15  and  C_16
REMARK   10  A    between atoms: N_18  and  C_19
REMARK   11  A    between atoms: C_19  and  C_20
REMARK                            x       y       z     vdW  Elec       q    Type
REMARK                         _______ _______ _______ _____ _____    ______ ____
ROOT
ATOM      1  P   UNL     1       6.980   6.808  17.515  0.00  0.00    +0.000 P 
ATOM      2  O   UNL     1       7.961   6.384  18.610  0.00  0.00    +0.000 OA
ENDROOT
BRANCH   1   3
ATOM      3  N   UNL     1       7.497   6.059  16.082  0.00  0.00    +0.000 NA
ATOM      4  H   UNL     1       8.505   5.972  16.157  0.00  0.00    +0.000 HD
BRANCH   3   5
ATOM      5  C   UNL     1       6.970   4.741  15.686  0.00  0.00    +0.000 C 
BRANCH   5   6
ATOM      6  C   UNL     1       5.792   4.786  14.723  0.00  0.00    +0.000 C 
ATOM      7 BR   UNL     1       6.182   3.796  13.094  0.00  0.00    +0.000 Br
ENDBRANCH   5   6
ENDBRANCH   3   5
ENDBRANCH   1   3
BRANCH   1   8
ATOM      8  N   UNL     1       8.071   8.174  17.181  0.00  0.00    +0.000 NA
ATOM      9  H   UNL     1       8.015   8.334  16.180  0.00  0.00    +0.000 HD
BRANCH   8  10
ATOM     10  C   UNL     1       7.894   9.421  17.932  0.00  0.00    +0.000 C 
BRANCH  10  11
ATOM     11  C   UNL     1       9.098   9.749  18.805  0.00  0.00    +0.000 C 
ATOM     12 BR   UNL     1       9.719  11.558  18.437  0.00  0.00    +0.000 Br
ENDBRANCH  10  11
ENDBRANCH   8  10
ENDBRANCH   1   8
BRANCH   1  13
ATOM     13  O   UNL     1       5.919   5.481  17.840  0.00  0.00    +0.000 OA
BRANCH  13  14
ATOM     14  C   UNL     1       5.799   5.172  19.226  0.00  0.00    +0.000 C 
BRANCH  14  20
ATOM     15  C   UNL     1       2.803   5.656  18.955  0.00  0.00    +0.000 C 
ATOM     16  N   UNL     1       3.364   4.361  19.260  0.00  0.00    +0.000 N 
ATOM     17  C   UNL     1       2.743   3.161  19.509  0.00  0.00    +0.000 A 
ATOM     18  C   UNL     1       3.743   2.263  19.791  0.00  0.00    +0.000 A 
ATOM     19  N   UNL     1       4.963   2.871  19.706  0.00  0.00    +0.000 NA
ATOM     20  C   UNL     1       4.733   4.132  19.378  0.00  0.00    +0.000 A 
BRANCH  17  21
ATOM     21  N   UNL     1       1.343   2.887  19.477  0.00  0.00    +0.000 N 
ATOM     22  O   UNL     1       0.705   2.988  20.527  0.00  0.00    +0.000 OA
ATOM     23  O   UNL     1       0.871   2.574  18.378  0.00  0.00    +0.000 OA
ENDBRANCH  17  21
ENDBRANCH  14  20
ENDBRANCH  13  14
ENDBRANCH   1  13
TORSDOF 10
ENDMDL
MODEL 5
REMARK VINA RESULT:      -6.0      1.629      2.055
REMARK  Name = 
REMARK  11 active torsions:
REMARK  status: ('A' for Active; 'I' for Inactive)
REMARK    1  A    between atoms: C_1  and  N_2
REMARK    2  A    between atoms: C_3  and  N_4
REMARK    3  A    between atoms: C_9  and  C_10
REMARK    4  A    between atoms: C_10  and  O_11
REMARK    5  A    between atoms: O_11  and  P_12
REMARK    6  A    between atoms: P_12  and  N_14
REMARK    7  A    between atoms: P_12  and  N_18
REMARK    8  A    between atoms: N_14  and  C_15
REMARK    9  A    between atoms: C_15  and  C_16
REMARK   10  A    between atoms: N_18  and  C_19
REMARK   11  A    between atoms: C_19  and  C_20
REMARK                            x       y       z     vdW  Elec       q    Type
REMARK                         _______ _______ _______ _____ _____    ______ ____
ROOT
ATOM      1  P   UNL     1       6.897   6.368  17.391  0.00  0.00    +0.000 P 
ATOM      2  O   UNL     1       7.795   6.108  18.603  0.00  0.00    +0.000 OA
ENDROOT
BRANCH   1   3
ATOM      3  N   UNL     1       7.548   5.473  16.103  0.00  0.00    +0.000 NA
ATOM      4  H   UNL     1       7.739   4.548  16.472  0.00  0.00    +0.000 HD
BRANCH   3   5
ATOM      5  C   UNL     1       6.797   5.300  14.848  0.00  0.00    +0.000 C 
BRANCH   5   6
ATOM      6  C   UNL     1       6.284   3.888  14.600  0.00  0.00    +0.000 C 
ATOM      7 BR   UNL     1       6.130   3.525  12.695  0.00  0.00    +0.000 Br
ENDBRANCH   5   6
ENDBRANCH   3   5
ENDBRANCH   1   3
BRANCH   1   8
ATOM      8  N   UNL     1       7.979   7.721  16.984  0.00  0.00    +0.000 NA
ATOM      9  H   UNL     1       7.956   7.797  15.972  0.00  0.00    +0.000 HD
BRANCH   8  10
ATOM     10  C   UNL     1       7.758   9.021  17.624  0.00  0.00    +0.000 C 
BRANCH  10  11
ATOM     11  C   UNL     1       8.808   9.334  18.681  0.00  0.00    +0.000 C 
ATOM     12 BR   UNL     1       9.426  11.171  18.488  0.00  0.00    +0.000 Br
ENDBRANCH  10  11
ENDBRANCH   8  10
ENDBRANCH   1   8
BRANCH   1  13
ATOM     13  O   UNL     1       5.844   5.053  17.788  0.00  0.00    +0.000 OA
BRANCH  13  14
ATOM     14  C   UNL     1       5.740   4.808  19.188  0.00  0.00    +0.000 C 
BRANCH  14  20
ATOM     15  C   UNL     1       4.225   2.234  19.793  0.00  0.00    +0.000 C 
ATOM     16  N   UNL     1       3.597   3.535  19.802  0.00  0.00    +0.000 N 
ATOM     17  C   UNL     1       2.289   3.887  20.031  0.00  0.00    +0.000 A 
ATOM     18  C   UNL     1       2.225   5.249  19.871  0.00  0.00    +0.000 A 
ATOM     19  N   UNL     1       3.460   5.748  19.566  0.00  0.00    +0.000 NA
ATOM     20  C   UNL     1       4.286   4.715  19.534  0.00  0.00    +0.000 A 
BRANCH  17  21
ATOM     21  N   UNL     1       1.207   3.023  20.375  0.00  0.00    +0.000 N 
ATOM     22  O   UNL     1       1.068   2.704  21.558  0.00  0.00    +0.000 OA
ATOM     23  O   UNL     1       0.475   2.665  19.444  0.00  0.00    +0.000 OA
ENDBRANCH  17  21
ENDBRANCH  14  20
ENDBRANCH  13  14
ENDBRANCH   1  13
TORSDOF 10
ENDMDL
MODEL 6
REMARK VINA RESULT:      -6.0      1.613      4.028
REMARK  Name = 
REMARK  11 active torsions:
REMARK  status: ('A' for Active; 'I' for Inactive)
REMARK    1  A    between atoms: C_1  and  N_2
REMARK    2  A    between atoms: C_3  and  N_4
REMARK    3  A    between atoms: C_9  and  C_10
REMARK    4  A    between atoms: C_10  and  O_11
REMARK    5  A    between atoms: O_11  and  P_12
REMARK    6  A    between atoms: P_12  and  N_14
REMARK    7  A    between atoms: P_12  and  N_18
REMARK    8  A    between atoms: N_14  and  C_15
REMARK    9  A    between atoms: C_15  and  C_16
REMARK   10  A    between atoms: N_18  and  C_19
REMARK   11  A    between atoms: C_19  and  C_20
REMARK                            x       y       z     vdW  Elec       q    Type
REMARK                         _______ _______ _______ _____ _____    ______ ____
ROOT
ATOM      1  P   UNL     1       5.692   4.404  15.822  0.00  0.00    +0.000 P 
ATOM      2  O   UNL     1       5.220   5.520  14.887  0.00  0.00    +0.000 OA
ENDROOT
BRANCH   1   3
ATOM      3  N   UNL     1       7.235   4.850  16.372  0.00  0.00    +0.000 NA
ATOM      4  H   UNL     1       7.314   5.848  16.209  0.00  0.00    +0.000 HD
BRANCH   3   5
ATOM      5  C   UNL     1       7.642   4.599  17.765  0.00  0.00    +0.000 C 
BRANCH   5   6
ATOM      6  C   UNL     1       7.553   5.808  18.685  0.00  0.00    +0.000 C 
ATOM      7 BR   UNL     1       7.666   7.466  17.673  0.00  0.00    +0.000 Br
ENDBRANCH   5   6
ENDBRANCH   3   5
ENDBRANCH   1   3
BRANCH   1   8
ATOM      8  N   UNL     1       6.434   3.638  14.396  0.00  0.00    +0.000 NA
ATOM      9  H   UNL     1       5.726   3.015  14.019  0.00  0.00    +0.000 HD
BRANCH   8  10
ATOM     10  C   UNL     1       7.007   4.492  13.352  0.00  0.00    +0.000 C 
BRANCH  10  11
ATOM     11  C   UNL     1       6.836   3.901  11.959  0.00  0.00    +0.000 C 
ATOM     12 BR   UNL     1       5.072   3.094  11.786  0.00  0.00    +0.000 Br
ENDBRANCH  10  11
ENDBRANCH   8  10
ENDBRANCH   1   8
BRANCH   1  13
ATOM     13  O   UNL     1       4.969   5.148  17.206  0.00  0.00    +0.000 OA
BRANCH  13  14
ATOM     14  C   UNL     1       3.547   5.074  17.218  0.00  0.00    +0.000 C 
BRANCH  14  20
ATOM     15  C   UNL     1       2.734   5.483  20.126  0.00  0.00    +0.000 C 
ATOM     16  N   UNL     1       2.784   4.182  19.500  0.00  0.00    +0.000 N 
ATOM     17  C   UNL     1       2.533   2.936  20.022  0.00  0.00    +0.000 A 
ATOM     18  C   UNL     1       2.774   2.041  19.010  0.00  0.00    +0.000 A 
ATOM     19  N   UNL     1       3.150   2.700  17.874  0.00  0.00    +0.000 NA
ATOM     20  C   UNL     1       3.147   3.990  18.170  0.00  0.00    +0.000 A 
BRANCH  17  21
ATOM     21  N   UNL     1       2.101   2.622  21.345  0.00  0.00    +0.000 N 
ATOM     22  O   UNL     1       2.953   2.303  22.177  0.00  0.00    +0.000 OA
ATOM     23  O   UNL     1       0.885   2.705  21.559  0.00  0.00    +0.000 OA
ENDBRANCH  17  21
ENDBRANCH  14  20
ENDBRANCH  13  14
ENDBRANCH   1  13
TORSDOF 10
ENDMDL
MODEL 7
REMARK VINA RESULT:      -6.0      0.933      1.686
REMARK  Name = 
REMARK  11 active torsions:
REMARK  status: ('A' for Active; 'I' for Inactive)
REMARK    1  A    between atoms: C_1  and  N_2
REMARK    2  A    between atoms: C_3  and  N_4
REMARK    3  A    between atoms: C_9  and  C_10
REMARK    4  A    between atoms: C_10  and  O_11
REMARK    5  A    between atoms: O_11  and  P_12
REMARK    6  A    between atoms: P_12  and  N_14
REMARK    7  A    between atoms: P_12  and  N_18
REMARK    8  A    between atoms: N_14  and  C_15
REMARK    9  A    between atoms: C_15  and  C_16
REMARK   10  A    between atoms: N_18  and  C_19
REMARK   11  A    between atoms: C_19  and  C_20
REMARK                            x       y       z     vdW  Elec       q    Type
REMARK                         _______ _______ _______ _____ _____    ______ ____
ROOT
ATOM      1  P   UNL     1       6.575   5.495  16.886  0.00  0.00    +0.000 P 
ATOM      2  O   UNL     1       7.433   5.022  18.063  0.00  0.00    +0.000 OA
ENDROOT
BRANCH   1   3
ATOM      3  N   UNL     1       7.237   4.792  15.490  0.00  0.00    +0.000 NA
ATOM      4  H   UNL     1       8.013   4.218  15.804  0.00  0.00    +0.000 HD
BRANCH   3   5
ATOM      5  C   UNL     1       6.410   3.960  14.598  0.00  0.00    +0.000 C 
BRANCH   5   6
ATOM      6  C   UNL     1       6.665   4.169  13.112  0.00  0.00    +0.000 C 
ATOM      7 BR   UNL     1       5.503   3.037  12.038  0.00  0.00    +0.000 Br
ENDBRANCH   5   6
ENDBRANCH   3   5
ENDBRANCH   1   3
BRANCH   1   8
ATOM      8  N   UNL     1       7.705   6.861  16.720  0.00  0.00    +0.000 NA
ATOM      9  H   UNL     1       7.805   7.015  15.721  0.00  0.00    +0.000 HD
BRANCH   8  10
ATOM     10  C   UNL     1       7.412   8.111  17.428  0.00  0.00    +0.000 C 
BRANCH  10  11
ATOM     11  C   UNL     1       8.467   8.447  18.473  0.00  0.00    +0.000 C 
ATOM     12 BR   UNL     1       8.975  10.322  18.333  0.00  0.00    +0.000 Br
ENDBRANCH  10  11
ENDBRANCH   8  10
ENDBRANCH   1   8
BRANCH   1  13
ATOM     13  O   UNL     1       5.478   4.168  17.049  0.00  0.00    +0.000 OA
BRANCH  13  14
ATOM     14  C   UNL     1       4.107   4.547  16.970  0.00  0.00    +0.000 C 
BRANCH  14  20
ATOM     15  C   UNL     1       2.747   2.192  18.344  0.00  0.00    +0.000 C 
ATOM     16  N   UNL     1       2.920   3.478  18.979  0.00  0.00    +0.000 N 
ATOM     17  C   UNL     1       2.525   3.915  20.220  0.00  0.00    +0.000 A 
ATOM     18  C   UNL     1       2.898   5.234  20.298  0.00  0.00    +0.000 A 
ATOM     19  N   UNL     1       3.528   5.617  19.148  0.00  0.00    +0.000 NA
ATOM     20  C   UNL     1       3.547   4.555  18.358  0.00  0.00    +0.000 A 
BRANCH  17  21
ATOM     21  N   UNL     1       1.865   3.160  21.235  0.00  0.00    +0.000 N 
ATOM     22  O   UNL     1       0.715   2.770  21.017  0.00  0.00    +0.000 OA
ATOM     23  O   UNL     1       2.513   2.945  22.266  0.00  0.00    +0.000 OA
ENDBRANCH  17  21
ENDBRANCH  14  20
ENDBRANCH  13  14
ENDBRANCH   1  13
TORSDOF 10
ENDMDL
MODEL 8
REMARK VINA RESULT:      -5.9      1.607      4.600
REMARK  Name = 
REMARK  11 active torsions:
REMARK  status: ('A' for Active; 'I' for Inactive)
REMARK    1  A    between atoms: C_1  and  N_2
REMARK    2  A    between atoms: C_3  and  N_4
REMARK    3  A    between atoms: C_9  and  C_10
REMARK    4  A    between atoms: C_10  and  O_11
REMARK    5  A    between atoms: O_11  and  P_12
REMARK    6  A    between atoms: P_12  and  N_14
REMARK    7  A    between atoms: P_12  and  N_18
REMARK    8  A    between atoms: N_14  and  C_15
REMARK    9  A    between atoms: C_15  and  C_16
REMARK   10  A    between atoms: N_18  and  C_19
REMARK   11  A    between atoms: C_19  and  C_20
REMARK                            x       y       z     vdW  Elec       q    Type
REMARK                         _______ _______ _______ _____ _____    ______ ____
ROOT
ATOM      1  P   UNL     1       6.134   5.778  17.026  0.00  0.00    +0.000 P 
ATOM      2  O   UNL     1       5.055   5.698  15.943  0.00  0.00    +0.000 OA
ENDROOT
BRANCH   1   3
ATOM      3  N   UNL     1       7.031   7.185  16.714  0.00  0.00    +0.000 NA
ATOM      4  H   UNL     1       6.365   7.878  16.390  0.00  0.00    +0.000 HD
BRANCH   3   5
ATOM      5  C   UNL     1       7.841   7.816  17.771  0.00  0.00    +0.000 C 
BRANCH   5   6
ATOM      6  C   UNL     1       7.966   9.329  17.664  0.00  0.00    +0.000 C 
ATOM      7 BR   UNL     1       9.156  10.030  19.034  0.00  0.00    +0.000 Br
ENDBRANCH   5   6
ENDBRANCH   3   5
ENDBRANCH   1   3
BRANCH   1   8
ATOM      8  N   UNL     1       7.194   4.871  15.921  0.00  0.00    +0.000 NA
ATOM      9  H   UNL     1       7.830   4.350  16.515  0.00  0.00    +0.000 HD
BRANCH   8  10
ATOM     10  C   UNL     1       6.583   4.008  14.905  0.00  0.00    +0.000 C 
BRANCH  10  11
ATOM     11  C   UNL     1       6.832   4.512  13.489  0.00  0.00    +0.000 C 
ATOM     12 BR   UNL     1       5.989   3.322  12.198  0.00  0.00    +0.000 Br
ENDBRANCH  10  11
ENDBRANCH   8  10
ENDBRANCH   1   8
BRANCH   1  13
ATOM     13  O   UNL     1       5.103   6.660  18.100  0.00  0.00    +0.000 OA
BRANCH  13  14
ATOM     14  C   UNL     1       3.722   6.582  17.760  0.00  0.00    +0.000 C 
BRANCH  14  20
ATOM     15  C   UNL     1       3.493   3.641  18.526  0.00  0.00    +0.000 C 
ATOM     16  N   UNL     1       2.875   4.701  19.287  0.00  0.00    +0.000 N 
ATOM     17  C   UNL     1       2.086   4.642  20.410  0.00  0.00    +0.000 A 
ATOM     18  C   UNL     1       1.725   5.936  20.693  0.00  0.00    +0.000 A 
ATOM     19  N   UNL     1       2.283   6.793  19.787  0.00  0.00    +0.000 NA
ATOM     20  C   UNL     1       2.982   6.047  18.946  0.00  0.00    +0.000 A 
BRANCH  17  21
ATOM     21  N   UNL     1       1.714   3.479  21.148  0.00  0.00    +0.000 N 
ATOM     22  O   UNL     1       2.197   3.323  22.272  0.00  0.00    +0.000 OA
ATOM     23  O   UNL     1       0.917   2.712  20.596  0.00  0.00    +0.000 OA
ENDBRANCH  17  21
ENDBRANCH  14  20
ENDBRANCH  13  14
ENDBRANCH   1  13
TORSDOF 10
ENDMDL
MODEL 9
REMARK VINA RESULT:      -5.9      1.659      4.387
REMARK  Name = 
REMARK  11 active torsions:
REMARK  status: ('A' for Active; 'I' for Inactive)
REMARK    1  A    between atoms: C_1  and  N_2
REMARK    2  A    between atoms: C_3  and  N_4
REMARK    3  A    between atoms: C_9  and  C_10
REMARK    4  A    between atoms: C_10  and  O_11
REMARK    5  A    between atoms: O_11  and  P_12
REMARK    6  A    between atoms: P_12  and  N_14
REMARK    7  A    between atoms: P_12  and  N_18
REMARK    8  A    between atoms: N_14  and  C_15
REMARK    9  A    between atoms: C_15  and  C_16
REMARK   10  A    between atoms: N_18  and  C_19
REMARK   11  A    between atoms: C_19  and  C_20
REMARK                            x       y       z     vdW  Elec       q    Type
REMARK                         _______ _______ _______ _____ _____    ______ ____
ROOT
ATOM      1  P   UNL     1       5.269   5.209  15.803  0.00  0.00    +0.000 P 
ATOM      2  O   UNL     1       5.411   6.701  15.490  0.00  0.00    +0.000 OA
ENDROOT
BRANCH   1   3
ATOM      3  N   UNL     1       6.475   4.833  16.937  0.00  0.00    +0.000 NA
ATOM      4  H   UNL     1       7.361   5.006  16.474  0.00  0.00    +0.000 HD
BRANCH   3   5
ATOM      5  C   UNL     1       6.522   5.514  18.244  0.00  0.00    +0.000 C 
BRANCH   5   6
ATOM      6  C   UNL     1       7.786   6.323  18.497  0.00  0.00    +0.000 C 
ATOM      7 BR   UNL     1       7.680   8.070  17.648  0.00  0.00    +0.000 Br
ENDBRANCH   5   6
ENDBRANCH   3   5
ENDBRANCH   1   3
BRANCH   1   8
ATOM      8  N   UNL     1       6.428   4.907  14.487  0.00  0.00    +0.000 NA
ATOM      9  H   UNL     1       7.344   5.109  14.875  0.00  0.00    +0.000 HD
BRANCH   8  10
ATOM     10  C   UNL     1       6.408   3.606  13.811  0.00  0.00    +0.000 C 
BRANCH  10  11
ATOM     11  C   UNL     1       6.349   3.741  12.295  0.00  0.00    +0.000 C 
ATOM     12 BR   UNL     1       4.564   3.300  11.653  0.00  0.00    +0.000 Br
ENDBRANCH  10  11
ENDBRANCH   8  10
ENDBRANCH   1   8
BRANCH   1  13
ATOM     13  O   UNL     1       4.141   5.503  17.082  0.00  0.00    +0.000 OA
BRANCH  13  14
ATOM     14  C   UNL     1       3.165   4.475  17.231  0.00  0.00    +0.000 C 
BRANCH  14  20
ATOM     15  C   UNL     1       3.132   1.881  18.829  0.00  0.00    +0.000 C 
ATOM     16  N   UNL     1       2.818   3.165  19.411  0.00  0.00    +0.000 N 
ATOM     17  C   UNL     1       2.436   3.490  20.690  0.00  0.00    +0.000 A 
ATOM     18  C   UNL     1       2.216   4.845  20.691  0.00  0.00    +0.000 A 
ATOM     19  N   UNL     1       2.469   5.367  19.455  0.00  0.00    +0.000 NA
ATOM     20  C   UNL     1       2.839   4.354  18.687  0.00  0.00    +0.000 A 
BRANCH  17  21
ATOM     21  N   UNL     1       2.299   2.608  21.803  0.00  0.00    +0.000 N 
ATOM     22  O   UNL     1       1.200   2.538  22.359  0.00  0.00    +0.000 OA
ATOM     23  O   UNL     1       3.307   1.967  22.122  0.00  0.00    +0.000 OA
ENDBRANCH  17  21
ENDBRANCH  14  20
ENDBRANCH  13  14
ENDBRANCH   1  13
TORSDOF 10
ENDMDL
