MODEL 1
REMARK VINA RESULT:      -6.4      0.000      0.000
REMARK  Name = 
REMARK  7 active torsions:
REMARK  status: ('A' for Active; 'I' for Inactive)
REMARK    1  A    between atoms: C_1  and  C_2
REMARK    2  A    between atoms: C_2  and  C_3
REMARK    3  A    between atoms: C_2  and  C_5
REMARK    4  A    between atoms: C_2  and  N_8
REMARK    5  A    between atoms: C_3  and  O_4
REMARK    6  A    between atoms: C_5  and  C_6
REMARK    7  A    between atoms: C_9  and  C_11
REMARK                            x       y       z     vdW  Elec       q    Type
REMARK                         _______ _______ _______ _____ _____    ______ ____
ROOT
ATOM      1  N   UNL     1       4.601   4.588  16.729  0.00  0.00    +0.000 N 
ATOM      2  C   UNL     1       5.976   4.528  16.570  0.00  0.00    +0.000 C 
ATOM      3  O   UNL     1       6.773   4.409  17.492  0.00  0.00    +0.000 OA
ATOM      4  H   UNL     1       4.056   4.509  15.874  0.00  0.00    +0.000 HD
ENDROOT
BRANCH   2   5
ATOM      5  C   UNL     1       6.483   4.626  15.170  0.00  0.00    +0.000 A 
ATOM      6  C   UNL     1       5.940   3.825  14.178  0.00  0.00    +0.000 A 
ATOM      7  C   UNL     1       6.469   3.915  12.899  0.00  0.00    +0.000 A 
ATOM      8  C   UNL     1       7.508   4.801  12.689  0.00  0.00    +0.000 A 
ATOM      9  N   UNL     1       8.017   5.575  13.672  0.00  0.00    +0.000 NA
ATOM     10  N   UNL     1       7.499   5.491  14.933  0.00  0.00    +0.000 NA
ENDBRANCH   2   5
BRANCH   1  12
ATOM     11  C   UNL     1       4.478   5.417  19.051  0.00  0.00    +0.000 C 
ATOM     12  C   UNL     1       3.914   4.403  18.035  0.00  0.00    +0.000 C 
BRANCH  12  13
ATOM     13  C   UNL     1       4.145   2.953  18.555  0.00  0.00    +0.000 C 
BRANCH  13  14
ATOM     14  O   UNL     1       5.190   2.909  19.530  0.00  0.00    +0.000 OA
ATOM     15  H   UNL     1       5.718   3.718  19.413  0.00  0.00    +0.000 HD
ENDBRANCH  13  14
ENDBRANCH  12  13
BRANCH  12  16
ATOM     16  C   UNL     1       2.400   4.698  17.812  0.00  0.00    +0.000 C 
BRANCH  16  17
ATOM     17  C   UNL     1       1.433   3.811  18.582  0.00  0.00    +0.000 C 
ATOM     18  F   UNL     1       1.210   4.343  19.813  0.00  0.00    +0.000 F 
ENDBRANCH  16  17
ENDBRANCH  12  16
ENDBRANCH   1  12
TORSDOF 6
ENDMDL
MODEL 2
REMARK VINA RESULT:      -6.2      1.117      1.306
REMARK  Name = 
REMARK  7 active torsions:
REMARK  status: ('A' for Active; 'I' for Inactive)
REMARK    1  A    between atoms: C_1  and  C_2
REMARK    2  A    between atoms: C_2  and  C_3
REMARK    3  A    between atoms: C_2  and  C_5
REMARK    4  A    between atoms: C_2  and  N_8
REMARK    5  A    between atoms: C_3  and  O_4
REMARK    6  A    between atoms: C_5  and  C_6
REMARK    7  A    between atoms: C_9  and  C_11
REMARK                            x       y       z     vdW  Elec       q    Type
REMARK                         _______ _______ _______ _____ _____    ______ ____
ROOT
ATOM      1  N   UNL     1       4.434   3.788  16.788  0.00  0.00    +0.000 N 
ATOM      2  C   UNL     1       5.296   4.849  16.565  0.00  0.00    +0.000 C 
ATOM      3  O   UNL     1       5.454   5.785  17.338  0.00  0.00    +0.000 OA
ATOM      4  H   UNL     1       4.533   2.999  16.151  0.00  0.00    +0.000 HD
ENDROOT
BRANCH   2   5
ATOM      5  C   UNL     1       6.059   4.820  15.283  0.00  0.00    +0.000 A 
ATOM      6  C   UNL     1       5.619   4.032  14.230  0.00  0.00    +0.000 A 
ATOM      7  C   UNL     1       6.381   4.000  13.071  0.00  0.00    +0.000 A 
ATOM      8  C   UNL     1       7.536   4.756  13.034  0.00  0.00    +0.000 A 
ATOM      9  N   UNL     1       7.941   5.520  14.072  0.00  0.00    +0.000 NA
ATOM     10  N   UNL     1       7.195   5.557  15.215  0.00  0.00    +0.000 NA
ENDBRANCH   2   5
BRANCH   1  12
ATOM     11  C   UNL     1       2.660   4.748  18.210  0.00  0.00    +0.000 C 
ATOM     12  C   UNL     1       3.673   3.596  18.051  0.00  0.00    +0.000 C 
BRANCH  12  13
ATOM     13  C   UNL     1       4.651   3.583  19.263  0.00  0.00    +0.000 C 
BRANCH  13  14
ATOM     14  O   UNL     1       4.989   2.247  19.644  0.00  0.00    +0.000 OA
ATOM     15  H   UNL     1       4.297   1.667  19.282  0.00  0.00    +0.000 HD
ENDBRANCH  13  14
ENDBRANCH  12  13
BRANCH  12  16
ATOM     16  C   UNL     1       2.895   2.251  17.928  0.00  0.00    +0.000 C 
BRANCH  16  17
ATOM     17  C   UNL     1       1.527   2.215  18.592  0.00  0.00    +0.000 C 
ATOM     18  F   UNL     1       1.672   1.960  19.920  0.00  0.00    +0.000 F 
ENDBRANCH  16  17
ENDBRANCH  12  16
ENDBRANCH   1  12
TORSDOF 6
ENDMDL
MODEL 3
REMARK VINA RESULT:      -6.1      2.775      3.673
REMARK  Name = 
REMARK  7 active torsions:
REMARK  status: ('A' for Active; 'I' for Inactive)
REMARK    1  A    between atoms: C_1  and  C_2
REMARK    2  A    between atoms: C_2  and  C_3
REMARK    3  A    between atoms: C_2  and  C_5
REMARK    4  A    between atoms: C_2  and  N_8
REMARK    5  A    between atoms: C_3  and  O_4
REMARK    6  A    between atoms: C_5  and  C_6
REMARK    7  A    between atoms: C_9  and  C_11
REMARK                            x       y       z     vdW  Elec       q    Type
REMARK                         _______ _______ _______ _____ _____    ______ ____
ROOT
ATOM      1  N   UNL     1       3.361   3.354  19.559  0.00  0.00    +0.000 N 
ATOM      2  C   UNL     1       3.590   3.690  18.236  0.00  0.00    +0.000 C 
ATOM      3  O   UNL     1       2.727   3.699  17.366  0.00  0.00    +0.000 OA
ATOM      4  H   UNL     1       4.122   3.559  20.203  0.00  0.00    +0.000 HD
ENDROOT
BRANCH   2   5
ATOM      5  C   UNL     1       4.993   4.053  17.880  0.00  0.00    +0.000 A 
ATOM      6  C   UNL     1       5.372   4.135  16.549  0.00  0.00    +0.000 A 
ATOM      7  C   UNL     1       6.696   4.433  16.261  0.00  0.00    +0.000 A 
ATOM      8  C   UNL     1       7.561   4.630  17.320  0.00  0.00    +0.000 A 
ATOM      9  N   UNL     1       7.165   4.550  18.609  0.00  0.00    +0.000 NA
ATOM     10  N   UNL     1       5.863   4.258  18.899  0.00  0.00    +0.000 NA
ENDBRANCH   2   5
BRANCH   1  12
ATOM     11  C   UNL     1       2.148   2.697  21.606  0.00  0.00    +0.000 C 
ATOM     12  C   UNL     1       2.012   3.066  20.115  0.00  0.00    +0.000 C 
BRANCH  12  13
ATOM     13  C   UNL     1       1.359   1.885  19.337  0.00  0.00    +0.000 C 
BRANCH  13  14
ATOM     14  O   UNL     1       0.289   2.339  18.504  0.00  0.00    +0.000 OA
ATOM     15  H   UNL     1       0.617   2.321  17.589  0.00  0.00    +0.000 HD
ENDBRANCH  13  14
ENDBRANCH  12  13
BRANCH  12  16
ATOM     16  C   UNL     1       1.168   4.370  19.991  0.00  0.00    +0.000 C 
BRANCH  16  17
ATOM     17  C   UNL     1       1.727   5.591  20.706  0.00  0.00    +0.000 C 
ATOM     18  F   UNL     1       2.304   6.424  19.801  0.00  0.00    +0.000 F 
ENDBRANCH  16  17
ENDBRANCH  12  16
ENDBRANCH   1  12
TORSDOF 6
ENDMDL
MODEL 4
REMARK VINA RESULT:      -6.1      3.229      6.089
REMARK  Name = 
REMARK  7 active torsions:
REMARK  status: ('A' for Active; 'I' for Inactive)
REMARK    1  A    between atoms: C_1  and  C_2
REMARK    2  A    between atoms: C_2  and  C_3
REMARK    3  A    between atoms: C_2  and  C_5
REMARK    4  A    between atoms: C_2  and  N_8
REMARK    5  A    between atoms: C_3  and  O_4
REMARK    6  A    between atoms: C_5  and  C_6
REMARK    7  A    between atoms: C_9  and  C_11
REMARK                            x       y       z     vdW  Elec       q    Type
REMARK                         _______ _______ _______ _____ _____    ______ ____
ROOT
ATOM      1  N   UNL     1       4.806   5.176  17.759  0.00  0.00    +0.000 N 
ATOM      2  C   UNL     1       4.830   4.345  18.866  0.00  0.00    +0.000 C 
ATOM      3  O   UNL     1       5.842   3.820  19.313  0.00  0.00    +0.000 OA
ATOM      4  H   UNL     1       3.935   5.680  17.606  0.00  0.00    +0.000 HD
ENDROOT
BRANCH   2   5
ATOM      5  C   UNL     1       3.517   4.089  19.528  0.00  0.00    +0.000 A 
ATOM      6  C   UNL     1       3.011   2.801  19.589  0.00  0.00    +0.000 A 
ATOM      7  C   UNL     1       1.767   2.611  20.174  0.00  0.00    +0.000 A 
ATOM      8  C   UNL     1       1.105   3.721  20.661  0.00  0.00    +0.000 A 
ATOM      9  N   UNL     1       1.622   4.967  20.594  0.00  0.00    +0.000 NA
ATOM     10  N   UNL     1       2.847   5.159  20.020  0.00  0.00    +0.000 NA
ENDBRANCH   2   5
BRANCH   1  12
ATOM     11  C   UNL     1       5.618   6.572  15.892  0.00  0.00    +0.000 C 
ATOM     12  C   UNL     1       6.027   5.624  17.037  0.00  0.00    +0.000 C 
BRANCH  12  13
ATOM     13  C   UNL     1       6.782   4.391  16.458  0.00  0.00    +0.000 C 
BRANCH  13  14
ATOM     14  O   UNL     1       7.984   4.127  17.186  0.00  0.00    +0.000 OA
ATOM     15  H   UNL     1       8.714   4.520  16.676  0.00  0.00    +0.000 HD
ENDBRANCH  13  14
ENDBRANCH  12  13
BRANCH  12  16
ATOM     16  C   UNL     1       6.909   6.409  18.055  0.00  0.00    +0.000 C 
BRANCH  16  17
ATOM     17  C   UNL     1       7.571   7.670  17.520  0.00  0.00    +0.000 C 
ATOM     18  F   UNL     1       8.516   8.096  18.400  0.00  0.00    +0.000 F 
ENDBRANCH  16  17
ENDBRANCH  12  16
ENDBRANCH   1  12
TORSDOF 6
ENDMDL
MODEL 5
REMARK VINA RESULT:      -6.1      3.322      3.891
REMARK  Name = 
REMARK  7 active torsions:
REMARK  status: ('A' for Active; 'I' for Inactive)
REMARK    1  A    between atoms: C_1  and  C_2
REMARK    2  A    between atoms: C_2  and  C_3
REMARK    3  A    between atoms: C_2  and  C_5
REMARK    4  A    between atoms: C_2  and  N_8
REMARK    5  A    between atoms: C_3  and  O_4
REMARK    6  A    between atoms: C_5  and  C_6
REMARK    7  A    between atoms: C_9  and  C_11
REMARK                            x       y       z     vdW  Elec       q    Type
REMARK                         _______ _______ _______ _____ _____    ______ ____
ROOT
ATOM      1  N   UNL     1       3.521   4.621  19.653  0.00  0.00    +0.000 N 
ATOM      2  C   UNL     1       4.798   4.135  19.427  0.00  0.00    +0.000 C 
ATOM      3  O   UNL     1       5.134   2.970  19.599  0.00  0.00    +0.000 OA
ATOM      4  H   UNL     1       3.339   5.559  19.302  0.00  0.00    +0.000 HD
ENDROOT
BRANCH   2   5
ATOM      5  C   UNL     1       5.806   5.126  18.948  0.00  0.00    +0.000 A 
ATOM      6  C   UNL     1       5.557   5.874  17.808  0.00  0.00    +0.000 A 
ATOM      7  C   UNL     1       6.538   6.753  17.372  0.00  0.00    +0.000 A 
ATOM      8  C   UNL     1       7.708   6.830  18.102  0.00  0.00    +0.000 A 
ATOM      9  N   UNL     1       7.925   6.094  19.213  0.00  0.00    +0.000 NA
ATOM     10  N   UNL     1       6.962   5.228  19.648  0.00  0.00    +0.000 NA
ENDBRANCH   2   5
BRANCH   1  12
ATOM     11  C   UNL     1       1.214   4.656  20.529  0.00  0.00    +0.000 C 
ATOM     12  C   UNL     1       2.367   3.762  20.031  0.00  0.00    +0.000 C 
BRANCH  12  13
ATOM     13  C   UNL     1       2.791   2.772  21.157  0.00  0.00    +0.000 C 
BRANCH  13  14
ATOM     14  O   UNL     1       1.896   2.837  22.270  0.00  0.00    +0.000 OA
ATOM     15  H   UNL     1       2.356   3.326  22.973  0.00  0.00    +0.000 HD
ENDBRANCH  13  14
ENDBRANCH  12  13
BRANCH  12  16
ATOM     16  C   UNL     1       1.907   3.007  18.747  0.00  0.00    +0.000 C 
BRANCH  16  17
ATOM     17  C   UNL     1       1.873   3.834  17.471  0.00  0.00    +0.000 C 
ATOM     18  F   UNL     1       2.951   3.528  16.701  0.00  0.00    +0.000 F 
ENDBRANCH  16  17
ENDBRANCH  12  16
ENDBRANCH   1  12
TORSDOF 6
ENDMDL
MODEL 6
REMARK VINA RESULT:      -6.0      3.058      3.766
REMARK  Name = 
REMARK  7 active torsions:
REMARK  status: ('A' for Active; 'I' for Inactive)
REMARK    1  A    between atoms: C_1  and  C_2
REMARK    2  A    between atoms: C_2  and  C_3
REMARK    3  A    between atoms: C_2  and  C_5
REMARK    4  A    between atoms: C_2  and  N_8
REMARK    5  A    between atoms: C_3  and  O_4
REMARK    6  A    between atoms: C_5  and  C_6
REMARK    7  A    between atoms: C_9  and  C_11
REMARK                            x       y       z     vdW  Elec       q    Type
REMARK                         _______ _______ _______ _____ _____    ______ ____
ROOT
ATOM      1  N   UNL     1       4.261   4.016  19.061  0.00  0.00    +0.000 N 
ATOM      2  C   UNL     1       4.586   4.632  17.864  0.00  0.00    +0.000 C 
ATOM      3  O   UNL     1       3.976   4.469  16.815  0.00  0.00    +0.000 OA
ATOM      4  H   UNL     1       4.739   4.375  19.884  0.00  0.00    +0.000 HD
ENDROOT
BRANCH   2   5
ATOM      5  C   UNL     1       5.770   5.541  17.890  0.00  0.00    +0.000 A 
ATOM      6  C   UNL     1       6.763   5.359  18.839  0.00  0.00    +0.000 A 
ATOM      7  C   UNL     1       7.825   6.251  18.858  0.00  0.00    +0.000 A 
ATOM      8  C   UNL     1       7.829   7.272  17.927  0.00  0.00    +0.000 A 
ATOM      9  N   UNL     1       6.851   7.426  17.008  0.00  0.00    +0.000 NA
ATOM     10  N   UNL     1       5.803   6.549  16.985  0.00  0.00    +0.000 NA
ENDBRANCH   2   5
BRANCH   1  12
ATOM     11  C   UNL     1       3.170   1.924  18.336  0.00  0.00    +0.000 C 
ATOM     12  C   UNL     1       3.057   3.162  19.247  0.00  0.00    +0.000 C 
BRANCH  12  13
ATOM     13  C   UNL     1       1.774   3.968  18.886  0.00  0.00    +0.000 C 
BRANCH  13  14
ATOM     14  O   UNL     1       1.245   3.563  17.621  0.00  0.00    +0.000 OA
ATOM     15  H   UNL     1       1.935   3.038  17.181  0.00  0.00    +0.000 HD
ENDBRANCH  13  14
ENDBRANCH  12  13
BRANCH  12  16
ATOM     16  C   UNL     1       3.041   2.697  20.735  0.00  0.00    +0.000 C 
BRANCH  16  17
ATOM     17  C   UNL     1       2.052   3.414  21.641  0.00  0.00    +0.000 C 
ATOM     18  F   UNL     1       1.023   2.578  21.943  0.00  0.00    +0.000 F 
ENDBRANCH  16  17
ENDBRANCH  12  16
ENDBRANCH   1  12
TORSDOF 6
ENDMDL
MODEL 7
REMARK VINA RESULT:      -6.0      1.274      1.420
REMARK  Name = 
REMARK  7 active torsions:
REMARK  status: ('A' for Active; 'I' for Inactive)
REMARK    1  A    between atoms: C_1  and  C_2
REMARK    2  A    between atoms: C_2  and  C_3
REMARK    3  A    between atoms: C_2  and  C_5
REMARK    4  A    between atoms: C_2  and  N_8
REMARK    5  A    between atoms: C_3  and  O_4
REMARK    6  A    between atoms: C_5  and  C_6
REMARK    7  A    between atoms: C_9  and  C_11
REMARK                            x       y       z     vdW  Elec       q    Type
REMARK                         _______ _______ _______ _____ _____    ______ ____
ROOT
ATOM      1  N   UNL     1       4.190   3.454  17.450  0.00  0.00    +0.000 N 
ATOM      2  C   UNL     1       5.453   4.022  17.453  0.00  0.00    +0.000 C 
ATOM      3  O   UNL     1       6.098   4.266  18.465  0.00  0.00    +0.000 OA
ATOM      4  H   UNL     1       3.849   3.146  16.541  0.00  0.00    +0.000 HD
ENDROOT
BRANCH   2   5
ATOM      5  C   UNL     1       6.033   4.350  16.118  0.00  0.00    +0.000 A 
ATOM      6  C   UNL     1       5.480   3.807  14.969  0.00  0.00    +0.000 A 
ATOM      7  C   UNL     1       6.074   4.102  13.751  0.00  0.00    +0.000 A 
ATOM      8  C   UNL     1       7.186   4.922  13.755  0.00  0.00    +0.000 A 
ATOM      9  N   UNL     1       7.704   5.443  14.889  0.00  0.00    +0.000 NA
ATOM     10  N   UNL     1       7.122   5.156  16.091  0.00  0.00    +0.000 NA
ENDBRANCH   2   5
BRANCH   1  12
ATOM     11  C   UNL     1       3.493   4.094  19.730  0.00  0.00    +0.000 C 
ATOM     12  C   UNL     1       3.501   2.968  18.675  0.00  0.00    +0.000 C 
BRANCH  12  13
ATOM     13  C   UNL     1       4.243   1.721  19.240  0.00  0.00    +0.000 C 
BRANCH  13  14
ATOM     14  O   UNL     1       5.203   2.092  20.233  0.00  0.00    +0.000 OA
ATOM     15  H   UNL     1       4.872   2.903  20.656  0.00  0.00    +0.000 HD
ENDBRANCH  13  14
ENDBRANCH  12  13
BRANCH  12  16
ATOM     16  C   UNL     1       2.031   2.631  18.282  0.00  0.00    +0.000 C 
BRANCH  16  17
ATOM     17  C   UNL     1       1.036   3.775  18.402  0.00  0.00    +0.000 C 
ATOM     18  F   UNL     1       1.113   4.564  17.298  0.00  0.00    +0.000 F 
ENDBRANCH  16  17
ENDBRANCH  12  16
ENDBRANCH   1  12
TORSDOF 6
ENDMDL
MODEL 8
REMARK VINA RESULT:      -6.0      3.200      5.976
REMARK  Name = 
REMARK  7 active torsions:
REMARK  status: ('A' for Active; 'I' for Inactive)
REMARK    1  A    between atoms: C_1  and  C_2
REMARK    2  A    between atoms: C_2  and  C_3
REMARK    3  A    between atoms: C_2  and  C_5
REMARK    4  A    between atoms: C_2  and  N_8
REMARK    5  A    between atoms: C_3  and  O_4
REMARK    6  A    between atoms: C_5  and  C_6
REMARK    7  A    between atoms: C_9  and  C_11
REMARK                            x       y       z     vdW  Elec       q    Type
REMARK                         _______ _______ _______ _____ _____    ______ ____
ROOT
ATOM      1  N   UNL     1       4.838   4.713  17.463  0.00  0.00    +0.000 N 
ATOM      2  C   UNL     1       3.742   5.317  18.056  0.00  0.00    +0.000 C 
ATOM      3  O   UNL     1       3.630   6.523  18.233  0.00  0.00    +0.000 OA
ATOM      4  H   UNL     1       4.722   3.731  17.222  0.00  0.00    +0.000 HD
ENDROOT
BRANCH   2   5
ATOM      5  C   UNL     1       2.648   4.405  18.504  0.00  0.00    +0.000 A 
ATOM      6  C   UNL     1       1.933   4.694  19.655  0.00  0.00    +0.000 A 
ATOM      7  C   UNL     1       0.953   3.799  20.062  0.00  0.00    +0.000 A 
ATOM      8  C   UNL     1       0.750   2.670  19.293  0.00  0.00    +0.000 A 
ATOM      9  N   UNL     1       1.457   2.413  18.172  0.00  0.00    +0.000 NA
ATOM     10  N   UNL     1       2.422   3.291  17.767  0.00  0.00    +0.000 NA
ENDBRANCH   2   5
BRANCH   1  12
ATOM     11  C   UNL     1       5.423   6.456  15.817  0.00  0.00    +0.000 C 
ATOM     12  C   UNL     1       5.972   5.467  16.865  0.00  0.00    +0.000 C 
BRANCH  12  13
ATOM     13  C   UNL     1       6.967   4.479  16.187  0.00  0.00    +0.000 C 
BRANCH  13  14
ATOM     14  O   UNL     1       8.017   4.102  17.082  0.00  0.00    +0.000 OA
ATOM     15  H   UNL     1       8.705   3.674  16.545  0.00  0.00    +0.000 HD
ENDBRANCH  13  14
ENDBRANCH  12  13
BRANCH  12  16
ATOM     16  C   UNL     1       6.655   6.271  18.013  0.00  0.00    +0.000 C 
BRANCH  16  17
ATOM     17  C   UNL     1       7.493   7.463  17.576  0.00  0.00    +0.000 C 
ATOM     18  F   UNL     1       8.469   7.694  18.494  0.00  0.00    +0.000 F 
ENDBRANCH  16  17
ENDBRANCH  12  16
ENDBRANCH   1  12
TORSDOF 6
ENDMDL
MODEL 9
REMARK VINA RESULT:      -6.0      2.847      3.314
REMARK  Name = 
REMARK  7 active torsions:
REMARK  status: ('A' for Active; 'I' for Inactive)
REMARK    1  A    between atoms: C_1  and  C_2
REMARK    2  A    between atoms: C_2  and  C_3
REMARK    3  A    between atoms: C_2  and  C_5
REMARK    4  A    between atoms: C_2  and  N_8
REMARK    5  A    between atoms: C_3  and  O_4
REMARK    6  A    between atoms: C_5  and  C_6
REMARK    7  A    between atoms: C_9  and  C_11
REMARK                            x       y       z     vdW  Elec       q    Type
REMARK                         _______ _______ _______ _____ _____    ______ ____
ROOT
ATOM      1  N   UNL     1       4.415   3.883  18.948  0.00  0.00    +0.000 N 
ATOM      2  C   UNL     1       4.740   4.480  17.742  0.00  0.00    +0.000 C 
ATOM      3  O   UNL     1       4.181   4.240  16.679  0.00  0.00    +0.000 OA
ATOM      4  H   UNL     1       4.837   4.302  19.774  0.00  0.00    +0.000 HD
ENDROOT
BRANCH   2   5
ATOM      5  C   UNL     1       5.856   5.471  17.776  0.00  0.00    +0.000 A 
ATOM      6  C   UNL     1       6.835   5.380  18.752  0.00  0.00    +0.000 A 
ATOM      7  C   UNL     1       7.831   6.346  18.776  0.00  0.00    +0.000 A 
ATOM      8  C   UNL     1       7.786   7.345  17.823  0.00  0.00    +0.000 A 
ATOM      9  N   UNL     1       6.823   7.410  16.878  0.00  0.00    +0.000 NA
ATOM     10  N   UNL     1       5.841   6.460  16.850  0.00  0.00    +0.000 NA
ENDBRANCH   2   5
BRANCH   1  12
ATOM     11  C   UNL     1       3.267   2.420  20.571  0.00  0.00    +0.000 C 
ATOM     12  C   UNL     1       3.269   2.952  19.124  0.00  0.00    +0.000 C 
BRANCH  12  13
ATOM     13  C   UNL     1       3.393   1.763  18.125  0.00  0.00    +0.000 C 
BRANCH  13  14
ATOM     14  O   UNL     1       4.334   0.791  18.588  0.00  0.00    +0.000 OA
ATOM     15  H   UNL     1       5.086   0.811  17.971  0.00  0.00    +0.000 HD
ENDBRANCH  13  14
ENDBRANCH  12  13
BRANCH  12  16
ATOM     16  C   UNL     1       1.963   3.768  18.883  0.00  0.00    +0.000 C 
BRANCH  16  17
ATOM     17  C   UNL     1       0.908   3.667  19.974  0.00  0.00    +0.000 C 
ATOM     18  F   UNL     1       0.849   4.838  20.661  0.00  0.00    +0.000 F 
ENDBRANCH  16  17
ENDBRANCH  12  16
ENDBRANCH   1  12
TORSDOF 6
ENDMDL
