MODEL 1
REMARK VINA RESULT:      -7.1      0.000      0.000
REMARK  Name = 
REMARK  4 active torsions:
REMARK  status: ('A' for Active; 'I' for Inactive)
REMARK    1  A    between atoms: O_1  and  C_2
REMARK    2  A    between atoms: C_5  and  C_6
REMARK    3  A    between atoms: C_6  and  C_7
REMARK    4  A    between atoms: C_13  and  O_14
REMARK                            x       y       z     vdW  Elec       q    Type
REMARK                         _______ _______ _______ _____ _____    ______ ____
ROOT
ATOM      1  C   UNL     1       6.615   5.351  15.898  0.00  0.00    +0.000 A 
ATOM      2  N   UNL     1       5.725   6.327  15.702  0.00  0.00    +0.000 NA
ATOM      3  C   UNL     1       4.827   6.470  16.698  0.00  0.00    +0.000 A 
ATOM      4  C   UNL     1       4.805   5.696  17.843  0.00  0.00    +0.000 A 
ATOM      5  C   UNL     1       5.780   4.714  17.887  0.00  0.00    +0.000 A 
ATOM      6  N   UNL     1       6.702   4.525  16.933  0.00  0.00    +0.000 NA
ENDROOT
BRANCH   1   7
ATOM      7  O   UNL     1       7.525   5.215  14.898  0.00  0.00    +0.000 OA
ATOM      8  H   UNL     1       7.059   5.710  14.205  0.00  0.00    +0.000 HD
ENDBRANCH   1   7
BRANCH   5   9
ATOM      9  O   UNL     1       5.884   3.835  18.925  0.00  0.00    +0.000 OA
ATOM     10  H   UNL     1       6.742   3.388  18.876  0.00  0.00    +0.000 HD
ENDBRANCH   5   9
BRANCH   4  11
ATOM     11  C   UNL     1       3.806   5.956  18.927  0.00  0.00    +0.000 C 
BRANCH  11  12
ATOM     12  C   UNL     1       2.679   4.956  19.083  0.00  0.00    +0.000 A 
ATOM     13  C   UNL     1       2.195   4.173  18.024  0.00  0.00    +0.000 A 
ATOM     14  C   UNL     1       1.271   3.151  18.258  0.00  0.00    +0.000 A 
ATOM     15  C   UNL     1       0.808   2.905  19.546  0.00  0.00    +0.000 A 
ATOM     16  C   UNL     1       1.246   3.698  20.603  0.00  0.00    +0.000 A 
ATOM     17  C   UNL     1       2.175   4.716  20.373  0.00  0.00    +0.000 A 
ENDBRANCH  11  12
ENDBRANCH   4  11
TORSDOF 4
ENDMDL
MODEL 2
REMARK VINA RESULT:      -7.1      1.378      1.992
REMARK  Name = 
REMARK  4 active torsions:
REMARK  status: ('A' for Active; 'I' for Inactive)
REMARK    1  A    between atoms: O_1  and  C_2
REMARK    2  A    between atoms: C_5  and  C_6
REMARK    3  A    between atoms: C_6  and  C_7
REMARK    4  A    between atoms: C_13  and  O_14
REMARK                            x       y       z     vdW  Elec       q    Type
REMARK                         _______ _______ _______ _____ _____    ______ ____
ROOT
ATOM      1  C   UNL     1       7.282   4.613  17.760  0.00  0.00    +0.000 A 
ATOM      2  N   UNL     1       6.726   4.558  18.973  0.00  0.00    +0.000 NA
ATOM      3  C   UNL     1       5.487   5.087  19.042  0.00  0.00    +0.000 A 
ATOM      4  C   UNL     1       4.817   5.642  17.968  0.00  0.00    +0.000 A 
ATOM      5  C   UNL     1       5.536   5.642  16.784  0.00  0.00    +0.000 A 
ATOM      6  N   UNL     1       6.766   5.128  16.650  0.00  0.00    +0.000 NA
ENDROOT
BRANCH   1   7
ATOM      7  O   UNL     1       8.526   4.070  17.690  0.00  0.00    +0.000 OA
ATOM      8  H   UNL     1       8.459   3.448  18.432  0.00  0.00    +0.000 HD
ENDBRANCH   1   7
BRANCH   5   9
ATOM      9  O   UNL     1       5.045   6.182  15.633  0.00  0.00    +0.000 OA
ATOM     10  H   UNL     1       4.077   6.203  15.680  0.00  0.00    +0.000 HD
ENDBRANCH   5   9
BRANCH   4  11
ATOM     11  C   UNL     1       3.421   6.160  18.119  0.00  0.00    +0.000 C 
BRANCH  11  12
ATOM     12  C   UNL     1       2.380   5.197  18.651  0.00  0.00    +0.000 A 
ATOM     13  C   UNL     1       1.872   4.125  17.901  0.00  0.00    +0.000 A 
ATOM     14  C   UNL     1       1.039   3.171  18.493  0.00  0.00    +0.000 A 
ATOM     15  C   UNL     1       0.694   3.280  19.837  0.00  0.00    +0.000 A 
ATOM     16  C   UNL     1       1.156   4.358  20.586  0.00  0.00    +0.000 A 
ATOM     17  C   UNL     1       1.993   5.308  19.998  0.00  0.00    +0.000 A 
ENDBRANCH  11  12
ENDBRANCH   4  11
TORSDOF 4
ENDMDL
MODEL 3
REMARK VINA RESULT:      -6.9      0.232      1.265
REMARK  Name = 
REMARK  4 active torsions:
REMARK  status: ('A' for Active; 'I' for Inactive)
REMARK    1  A    between atoms: O_1  and  C_2
REMARK    2  A    between atoms: C_5  and  C_6
REMARK    3  A    between atoms: C_6  and  C_7
REMARK    4  A    between atoms: C_13  and  O_14
REMARK                            x       y       z     vdW  Elec       q    Type
REMARK                         _______ _______ _______ _____ _____    ______ ____
ROOT
ATOM      1  C   UNL     1       6.698   5.448  15.993  0.00  0.00    +0.000 A 
ATOM      2  N   UNL     1       5.716   6.274  15.625  0.00  0.00    +0.000 NA
ATOM      3  C   UNL     1       4.752   6.443  16.553  0.00  0.00    +0.000 A 
ATOM      4  C   UNL     1       4.751   5.833  17.793  0.00  0.00    +0.000 A 
ATOM      5  C   UNL     1       5.827   4.990  18.016  0.00  0.00    +0.000 A 
ATOM      6  N   UNL     1       6.818   4.786  17.138  0.00  0.00    +0.000 NA
ENDROOT
BRANCH   1   7
ATOM      7  O   UNL     1       7.674   5.288  15.062  0.00  0.00    +0.000 OA
ATOM      8  H   UNL     1       7.330   5.889  14.381  0.00  0.00    +0.000 HD
ENDBRANCH   1   7
BRANCH   5   9
ATOM      9  O   UNL     1       5.969   4.279  19.171  0.00  0.00    +0.000 OA
ATOM     10  H   UNL     1       6.905   4.068  19.299  0.00  0.00    +0.000 HD
ENDBRANCH   5   9
BRANCH   4  11
ATOM     11  C   UNL     1       3.668   6.116  18.786  0.00  0.00    +0.000 C 
BRANCH  11  12
ATOM     12  C   UNL     1       2.749   4.970  19.153  0.00  0.00    +0.000 A 
ATOM     13  C   UNL     1       2.310   4.727  20.464  0.00  0.00    +0.000 A 
ATOM     14  C   UNL     1       1.335   3.760  20.722  0.00  0.00    +0.000 A 
ATOM     15  C   UNL     1       0.794   3.014  19.679  0.00  0.00    +0.000 A 
ATOM     16  C   UNL     1       1.247   3.213  18.378  0.00  0.00    +0.000 A 
ATOM     17  C   UNL     1       2.216   4.183  18.117  0.00  0.00    +0.000 A 
ENDBRANCH  11  12
ENDBRANCH   4  11
TORSDOF 4
ENDMDL
MODEL 4
REMARK VINA RESULT:      -6.8      1.924      2.791
REMARK  Name = 
REMARK  4 active torsions:
REMARK  status: ('A' for Active; 'I' for Inactive)
REMARK    1  A    between atoms: O_1  and  C_2
REMARK    2  A    between atoms: C_5  and  C_6
REMARK    3  A    between atoms: C_6  and  C_7
REMARK    4  A    between atoms: C_13  and  O_14
REMARK                            x       y       z     vdW  Elec       q    Type
REMARK                         _______ _______ _______ _____ _____    ______ ____
ROOT
ATOM      1  C   UNL     1       7.675   5.151  19.238  0.00  0.00    +0.000 A 
ATOM      2  N   UNL     1       6.471   5.344  19.783  0.00  0.00    +0.000 NA
ATOM      3  C   UNL     1       5.438   5.124  18.945  0.00  0.00    +0.000 A 
ATOM      4  C   UNL     1       5.576   4.726  17.629  0.00  0.00    +0.000 A 
ATOM      5  C   UNL     1       6.888   4.589  17.207  0.00  0.00    +0.000 A 
ATOM      6  N   UNL     1       7.955   4.787  17.993  0.00  0.00    +0.000 NA
ENDROOT
BRANCH   1   7
ATOM      7  O   UNL     1       8.714   5.363  20.087  0.00  0.00    +0.000 OA
ATOM      8  H   UNL     1       8.246   5.238  20.929  0.00  0.00    +0.000 HD
ENDBRANCH   1   7
BRANCH   5   9
ATOM      9  O   UNL     1       7.211   4.238  15.930  0.00  0.00    +0.000 OA
ATOM     10  H   UNL     1       7.291   3.275  15.877  0.00  0.00    +0.000 HD
ENDBRANCH   5   9
BRANCH   4  11
ATOM     11  C   UNL     1       4.373   4.451  16.780  0.00  0.00    +0.000 C 
BRANCH  11  12
ATOM     12  C   UNL     1       3.254   3.647  17.408  0.00  0.00    +0.000 A 
ATOM     13  C   UNL     1       3.408   2.320  17.836  0.00  0.00    +0.000 A 
ATOM     14  C   UNL     1       2.396   1.680  18.556  0.00  0.00    +0.000 A 
ATOM     15  C   UNL     1       1.212   2.351  18.849  0.00  0.00    +0.000 A 
ATOM     16  C   UNL     1       1.025   3.654  18.398  0.00  0.00    +0.000 A 
ATOM     17  C   UNL     1       2.038   4.298  17.683  0.00  0.00    +0.000 A 
ENDBRANCH  11  12
ENDBRANCH   4  11
TORSDOF 4
ENDMDL
MODEL 5
REMARK VINA RESULT:      -6.7      1.872      2.811
REMARK  Name = 
REMARK  4 active torsions:
REMARK  status: ('A' for Active; 'I' for Inactive)
REMARK    1  A    between atoms: O_1  and  C_2
REMARK    2  A    between atoms: C_5  and  C_6
REMARK    3  A    between atoms: C_6  and  C_7
REMARK    4  A    between atoms: C_13  and  O_14
REMARK                            x       y       z     vdW  Elec       q    Type
REMARK                         _______ _______ _______ _____ _____    ______ ____
ROOT
ATOM      1  C   UNL     1       7.565   6.275  18.335  0.00  0.00    +0.000 A 
ATOM      2  N   UNL     1       6.920   5.416  19.129  0.00  0.00    +0.000 NA
ATOM      3  C   UNL     1       6.006   4.652  18.498  0.00  0.00    +0.000 A 
ATOM      4  C   UNL     1       5.737   4.720  17.144  0.00  0.00    +0.000 A 
ATOM      5  C   UNL     1       6.474   5.675  16.462  0.00  0.00    +0.000 A 
ATOM      6  N   UNL     1       7.399   6.459  17.031  0.00  0.00    +0.000 NA
ENDROOT
BRANCH   1   7
ATOM      7  O   UNL     1       8.493   7.036  18.971  0.00  0.00    +0.000 OA
ATOM      8  H   UNL     1       9.077   7.219  18.217  0.00  0.00    +0.000 HD
ENDBRANCH   1   7
BRANCH   5   9
ATOM      9  O   UNL     1       6.313   5.905  15.128  0.00  0.00    +0.000 OA
ATOM     10  H   UNL     1       6.041   5.082  14.695  0.00  0.00    +0.000 HD
ENDBRANCH   5   9
BRANCH   4  11
ATOM     11  C   UNL     1       4.742   3.797  16.511  0.00  0.00    +0.000 C 
BRANCH  11  12
ATOM     12  C   UNL     1       3.523   3.429  17.330  0.00  0.00    +0.000 A 
ATOM     13  C   UNL     1       3.365   2.182  17.954  0.00  0.00    +0.000 A 
ATOM     14  C   UNL     1       2.302   1.954  18.831  0.00  0.00    +0.000 A 
ATOM     15  C   UNL     1       1.376   2.960  19.089  0.00  0.00    +0.000 A 
ATOM     16  C   UNL     1       1.494   4.190  18.448  0.00  0.00    +0.000 A 
ATOM     17  C   UNL     1       2.559   4.423  17.576  0.00  0.00    +0.000 A 
ENDBRANCH  11  12
ENDBRANCH   4  11
TORSDOF 4
ENDMDL
MODEL 6
REMARK VINA RESULT:      -6.7      1.342      1.404
REMARK  Name = 
REMARK  4 active torsions:
REMARK  status: ('A' for Active; 'I' for Inactive)
REMARK    1  A    between atoms: O_1  and  C_2
REMARK    2  A    between atoms: C_5  and  C_6
REMARK    3  A    between atoms: C_6  and  C_7
REMARK    4  A    between atoms: C_13  and  O_14
REMARK                            x       y       z     vdW  Elec       q    Type
REMARK                         _______ _______ _______ _____ _____    ______ ____
ROOT
ATOM      1  C   UNL     1       7.009   4.480  17.246  0.00  0.00    +0.000 A 
ATOM      2  N   UNL     1       6.217   4.420  16.173  0.00  0.00    +0.000 NA
ATOM      3  C   UNL     1       4.939   4.785  16.401  0.00  0.00    +0.000 A 
ATOM      4  C   UNL     1       4.456   5.198  17.629  0.00  0.00    +0.000 A 
ATOM      5  C   UNL     1       5.395   5.186  18.646  0.00  0.00    +0.000 A 
ATOM      6  N   UNL     1       6.679   4.840  18.481  0.00  0.00    +0.000 NA
ENDROOT
BRANCH   1   7
ATOM      7  O   UNL     1       8.298   4.122  17.012  0.00  0.00    +0.000 OA
ATOM      8  H   UNL     1       8.226   3.917  16.065  0.00  0.00    +0.000 HD
ENDBRANCH   1   7
BRANCH   5   9
ATOM      9  O   UNL     1       5.086   5.528  19.929  0.00  0.00    +0.000 OA
ATOM     10  H   UNL     1       4.732   6.430  19.940  0.00  0.00    +0.000 HD
ENDBRANCH   5   9
BRANCH   4  11
ATOM     11  C   UNL     1       3.034   5.638  17.785  0.00  0.00    +0.000 C 
BRANCH  11  12
ATOM     12  C   UNL     1       2.095   4.698  18.513  0.00  0.00    +0.000 A 
ATOM     13  C   UNL     1       1.627   3.498  17.957  0.00  0.00    +0.000 A 
ATOM     14  C   UNL     1       0.899   2.590  18.731  0.00  0.00    +0.000 A 
ATOM     15  C   UNL     1       0.618   2.871  20.064  0.00  0.00    +0.000 A 
ATOM     16  C   UNL     1       1.040   4.075  20.621  0.00  0.00    +0.000 A 
ATOM     17  C   UNL     1       1.773   4.981  19.852  0.00  0.00    +0.000 A 
ENDBRANCH  11  12
ENDBRANCH   4  11
TORSDOF 4
ENDMDL
MODEL 7
REMARK VINA RESULT:      -6.7      3.204      5.634
REMARK  Name = 
REMARK  4 active torsions:
REMARK  status: ('A' for Active; 'I' for Inactive)
REMARK    1  A    between atoms: O_1  and  C_2
REMARK    2  A    between atoms: C_5  and  C_6
REMARK    3  A    between atoms: C_6  and  C_7
REMARK    4  A    between atoms: C_13  and  O_14
REMARK                            x       y       z     vdW  Elec       q    Type
REMARK                         _______ _______ _______ _____ _____    ______ ____
ROOT
ATOM      1  C   UNL     1       1.870   2.607  21.254  0.00  0.00    +0.000 A 
ATOM      2  N   UNL     1       1.033   2.869  20.247  0.00  0.00    +0.000 NA
ATOM      3  C   UNL     1       1.626   2.962  19.039  0.00  0.00    +0.000 A 
ATOM      4  C   UNL     1       2.981   2.799  18.824  0.00  0.00    +0.000 A 
ATOM      5  C   UNL     1       3.717   2.552  19.971  0.00  0.00    +0.000 A 
ATOM      6  N   UNL     1       3.186   2.443  21.196  0.00  0.00    +0.000 NA
ENDROOT
BRANCH   1   7
ATOM      7  O   UNL     1       1.270   2.503  22.469  0.00  0.00    +0.000 OA
ATOM      8  H   UNL     1       1.547   3.355  22.844  0.00  0.00    +0.000 HD
ENDBRANCH   1   7
BRANCH   5   9
ATOM      9  O   UNL     1       5.072   2.401  19.950  0.00  0.00    +0.000 OA
ATOM     10  H   UNL     1       5.374   2.378  19.030  0.00  0.00    +0.000 HD
ENDBRANCH   5   9
BRANCH   4  11
ATOM     11  C   UNL     1       3.552   2.865  17.441  0.00  0.00    +0.000 C 
BRANCH  11  12
ATOM     12  C   UNL     1       4.063   4.209  16.968  0.00  0.00    +0.000 A 
ATOM     13  C   UNL     1       3.731   5.421  17.594  0.00  0.00    +0.000 A 
ATOM     14  C   UNL     1       4.359   6.612  17.221  0.00  0.00    +0.000 A 
ATOM     15  C   UNL     1       5.317   6.613  16.212  0.00  0.00    +0.000 A 
ATOM     16  C   UNL     1       5.630   5.429  15.552  0.00  0.00    +0.000 A 
ATOM     17  C   UNL     1       5.008   4.236  15.928  0.00  0.00    +0.000 A 
ENDBRANCH  11  12
ENDBRANCH   4  11
TORSDOF 4
ENDMDL
MODEL 8
REMARK VINA RESULT:      -6.7      1.681      2.040
REMARK  Name = 
REMARK  4 active torsions:
REMARK  status: ('A' for Active; 'I' for Inactive)
REMARK    1  A    between atoms: O_1  and  C_2
REMARK    2  A    between atoms: C_5  and  C_6
REMARK    3  A    between atoms: C_6  and  C_7
REMARK    4  A    between atoms: C_13  and  O_14
REMARK                            x       y       z     vdW  Elec       q    Type
REMARK                         _______ _______ _______ _____ _____    ______ ____
ROOT
ATOM      1  C   UNL     1       7.336   6.146  18.514  0.00  0.00    +0.000 A 
ATOM      2  N   UNL     1       6.847   6.633  17.371  0.00  0.00    +0.000 NA
ATOM      3  C   UNL     1       5.828   5.919  16.851  0.00  0.00    +0.000 A 
ATOM      4  C   UNL     1       5.303   4.779  17.429  0.00  0.00    +0.000 A 
ATOM      5  C   UNL     1       5.931   4.391  18.601  0.00  0.00    +0.000 A 
ATOM      6  N   UNL     1       6.943   5.059  19.169  0.00  0.00    +0.000 NA
ENDROOT
BRANCH   1   7
ATOM      7  O   UNL     1       8.356   6.872  19.042  0.00  0.00    +0.000 OA
ATOM      8  H   UNL     1       8.902   6.141  19.375  0.00  0.00    +0.000 HD
ENDBRANCH   1   7
BRANCH   5   9
ATOM      9  O   UNL     1       5.568   3.269  19.286  0.00  0.00    +0.000 OA
ATOM     10  H   UNL     1       6.062   3.234  20.119  0.00  0.00    +0.000 HD
ENDBRANCH   5   9
BRANCH   4  11
ATOM     11  C   UNL     1       4.134   4.075  16.813  0.00  0.00    +0.000 C 
BRANCH  11  12
ATOM     12  C   UNL     1       2.934   3.820  17.702  0.00  0.00    +0.000 A 
ATOM     13  C   UNL     1       2.292   2.575  17.787  0.00  0.00    +0.000 A 
ATOM     14  C   UNL     1       1.297   2.350  18.742  0.00  0.00    +0.000 A 
ATOM     15  C   UNL     1       0.922   3.365  19.616  0.00  0.00    +0.000 A 
ATOM     16  C   UNL     1       1.519   4.618  19.520  0.00  0.00    +0.000 A 
ATOM     17  C   UNL     1       2.518   4.844  18.571  0.00  0.00    +0.000 A 
ENDBRANCH  11  12
ENDBRANCH   4  11
TORSDOF 4
ENDMDL
MODEL 9
REMARK VINA RESULT:      -6.7      2.053      2.914
REMARK  Name = 
REMARK  4 active torsions:
REMARK  status: ('A' for Active; 'I' for Inactive)
REMARK    1  A    between atoms: O_1  and  C_2
REMARK    2  A    between atoms: C_5  and  C_6
REMARK    3  A    between atoms: C_6  and  C_7
REMARK    4  A    between atoms: C_13  and  O_14
REMARK                            x       y       z     vdW  Elec       q    Type
REMARK                         _______ _______ _______ _____ _____    ______ ____
ROOT
ATOM      1  C   UNL     1       7.543   6.934  17.975  0.00  0.00    +0.000 A 
ATOM      2  N   UNL     1       7.529   5.778  18.643  0.00  0.00    +0.000 NA
ATOM      3  C   UNL     1       6.670   4.861  18.152  0.00  0.00    +0.000 A 
ATOM      4  C   UNL     1       5.863   5.064  17.049  0.00  0.00    +0.000 A 
ATOM      5  C   UNL     1       5.979   6.321  16.479  0.00  0.00    +0.000 A 
ATOM      6  N   UNL     1       6.816   7.272  16.917  0.00  0.00    +0.000 NA
ENDROOT
BRANCH   1   7
ATOM      7  O   UNL     1       8.416   7.853  18.465  0.00  0.00    +0.000 OA
ATOM      8  H   UNL     1       8.407   8.478  17.721  0.00  0.00    +0.000 HD
ENDBRANCH   1   7
BRANCH   5   9
ATOM      9  O   UNL     1       5.232   6.708  15.406  0.00  0.00    +0.000 OA
ATOM     10  H   UNL     1       4.696   5.958  15.107  0.00  0.00    +0.000 HD
ENDBRANCH   5   9
BRANCH   4  11
ATOM     11  C   UNL     1       4.976   3.973  16.536  0.00  0.00    +0.000 C 
BRANCH  11  12
ATOM     12  C   UNL     1       3.741   3.646  17.349  0.00  0.00    +0.000 A 
ATOM     13  C   UNL     1       2.720   4.575  17.602  0.00  0.00    +0.000 A 
ATOM     14  C   UNL     1       1.529   4.177  18.215  0.00  0.00    +0.000 A 
ATOM     15  C   UNL     1       1.345   2.851  18.595  0.00  0.00    +0.000 A 
ATOM     16  C   UNL     1       2.363   1.924  18.389  0.00  0.00    +0.000 A 
ATOM     17  C   UNL     1       3.551   2.319  17.771  0.00  0.00    +0.000 A 
ENDBRANCH  11  12
ENDBRANCH   4  11
TORSDOF 4
ENDMDL
