MODEL 1
REMARK VINA RESULT:      -7.6      0.000      0.000
REMARK  Name = 
REMARK  7 active torsions:
REMARK  status: ('A' for Active; 'I' for Inactive)
REMARK    1  A    between atoms: C_1  and  O_2
REMARK    2  A    between atoms: O_2  and  N_3
REMARK    3  A    between atoms: C_4  and  C_5
REMARK    4  A    between atoms: C_4  and  C_12
REMARK    5  A    between atoms: C_13  and  C_14
REMARK    6  A    between atoms: N_16  and  C_17
REMARK    7  A    between atoms: C_24  and  O_25
REMARK                            x       y       z     vdW  Elec       q    Type
REMARK                         _______ _______ _______ _____ _____    ______ ____
ROOT
ATOM      1  C   UNL     1       1.100   9.563  19.346  0.00  0.00    +0.000 A 
ATOM      2  C   UNL     1       1.325   8.710  20.488  0.00  0.00    +0.000 A 
ATOM      3  C   UNL     1       1.026   8.929  21.932  0.00  0.00    +0.000 C 
ATOM      4  N   UNL     1       1.890   7.539  20.155  0.00  0.00    +0.000 NA
ATOM      5  N   UNL     1       2.286   7.707  18.889  0.00  0.00    +0.000 N 
ATOM      6  C   UNL     1       1.771   8.874  18.342  0.00  0.00    +0.000 A 
ENDROOT
BRANCH   5   7
ATOM      7  C   UNL     1       3.106   6.741  18.217  0.00  0.00    +0.000 A 
ATOM      8  C   UNL     1       2.715   5.397  18.168  0.00  0.00    +0.000 A 
ATOM      9  C   UNL     1       3.479   4.479  17.435  0.00  0.00    +0.000 A 
ATOM     10  C   UNL     1       4.637   4.893  16.774  0.00  0.00    +0.000 A 
ATOM     11 CL   UNL     1       5.578   3.761  15.885  0.00  0.00    +0.000 Cl
ATOM     12  C   UNL     1       5.045   6.221  16.836  0.00  0.00    +0.000 A 
ATOM     13  C   UNL     1       4.288   7.138  17.565  0.00  0.00    +0.000 A 
ENDBRANCH   5   7
BRANCH   1  15
ATOM     14  N   UNL     1       1.122  11.877  19.699  0.00  0.00    +0.000 NA
ATOM     15  C   UNL     1       0.394  10.875  19.278  0.00  0.00    +0.000 C 
BRANCH  15  16
ATOM     16  C   UNL     1      -1.069  11.002  18.826  0.00  0.00    +0.000 A 
ATOM     17  C   UNL     1      -2.017  11.783  19.495  0.00  0.00    +0.000 A 
ATOM     18  C   UNL     1      -3.342  11.928  19.066  0.00  0.00    +0.000 A 
ATOM     19  C   UNL     1      -3.798  11.172  18.006  0.00  0.00    +0.000 A 
ATOM     20 CL   UNL     1      -5.455  11.248  17.560  0.00  0.00    +0.000 Cl
ATOM     21  C   UNL     1      -2.916  10.326  17.344  0.00  0.00    +0.000 A 
ATOM     22  C   UNL     1      -1.559  10.278  17.722  0.00  0.00    +0.000 A 
ENDBRANCH  15  16
BRANCH  14  24
ATOM     23  C   UNL     1       1.321  14.016  18.852  0.00  0.00    +0.000 C 
ATOM     24  O   UNL     1       0.488  13.121  19.578  0.00  0.00    +0.000 OA
ENDBRANCH  14  24
ENDBRANCH   1  15
BRANCH   6  25
ATOM     25  O   UNL     1       1.986   9.185  17.065  0.00  0.00    +0.000 OA
ATOM     26  H   UNL     1       2.522  10.002  17.040  0.00  0.00    +0.000 HD
ENDBRANCH   6  25
TORSDOF 5
ENDMDL
MODEL 2
REMARK VINA RESULT:      -7.5      0.207      1.371
REMARK  Name = 
REMARK  7 active torsions:
REMARK  status: ('A' for Active; 'I' for Inactive)
REMARK    1  A    between atoms: C_1  and  O_2
REMARK    2  A    between atoms: O_2  and  N_3
REMARK    3  A    between atoms: C_4  and  C_5
REMARK    4  A    between atoms: C_4  and  C_12
REMARK    5  A    between atoms: C_13  and  C_14
REMARK    6  A    between atoms: N_16  and  C_17
REMARK    7  A    between atoms: C_24  and  O_25
REMARK                            x       y       z     vdW  Elec       q    Type
REMARK                         _______ _______ _______ _____ _____    ______ ____
ROOT
ATOM      1  C   UNL     1       1.090   9.588  19.429  0.00  0.00    +0.000 A 
ATOM      2  C   UNL     1       1.337   8.691  20.533  0.00  0.00    +0.000 A 
ATOM      3  C   UNL     1       1.085   8.862  21.993  0.00  0.00    +0.000 C 
ATOM      4  N   UNL     1       1.872   7.524  20.140  0.00  0.00    +0.000 NA
ATOM      5  N   UNL     1       2.232   7.732  18.870  0.00  0.00    +0.000 N 
ATOM      6  C   UNL     1       1.719   8.927  18.381  0.00  0.00    +0.000 A 
ENDROOT
BRANCH   5   7
ATOM      7  C   UNL     1       3.015   6.780  18.138  0.00  0.00    +0.000 A 
ATOM      8  C   UNL     1       4.191   7.183  17.494  0.00  0.00    +0.000 A 
ATOM      9  C   UNL     1       4.995   6.229  16.855  0.00  0.00    +0.000 A 
ATOM     10  C   UNL     1       4.616   4.885  16.839  0.00  0.00    +0.000 A 
ATOM     11 CL   UNL     1       5.598   3.718  16.044  0.00  0.00    +0.000 Cl
ATOM     12  C   UNL     1       3.438   4.480  17.457  0.00  0.00    +0.000 A 
ATOM     13  C   UNL     1       2.635   5.426  18.093  0.00  0.00    +0.000 A 
ENDBRANCH   5   7
BRANCH   1  15
ATOM     14  N   UNL     1       1.137  11.876  19.926  0.00  0.00    +0.000 NA
ATOM     15  C   UNL     1       0.404  10.913  19.431  0.00  0.00    +0.000 C 
BRANCH  15  16
ATOM     16  C   UNL     1      -1.050  11.088  18.963  0.00  0.00    +0.000 A 
ATOM     17  C   UNL     1      -1.542  10.562  17.764  0.00  0.00    +0.000 A 
ATOM     18  C   UNL     1      -2.874  10.690  17.352  0.00  0.00    +0.000 A 
ATOM     19  C   UNL     1      -3.737  11.480  18.084  0.00  0.00    +0.000 A 
ATOM     20 CL   UNL     1      -5.334  11.748  17.512  0.00  0.00    +0.000 Cl
ATOM     21  C   UNL     1      -3.283  12.085  19.250  0.00  0.00    +0.000 A 
ATOM     22  C   UNL     1      -1.969  11.853  19.706  0.00  0.00    +0.000 A 
ENDBRANCH  15  16
BRANCH  14  24
ATOM     23  C   UNL     1       1.293  14.010  19.056  0.00  0.00    +0.000 C 
ATOM     24  O   UNL     1       0.522  13.134  19.871  0.00  0.00    +0.000 OA
ENDBRANCH  14  24
ENDBRANCH   1  15
BRANCH   6  25
ATOM     25  O   UNL     1       1.900   9.280  17.110  0.00  0.00    +0.000 OA
ATOM     26  H   UNL     1       1.026   9.283  16.672  0.00  0.00    +0.000 HD
ENDBRANCH   6  25
TORSDOF 5
ENDMDL
MODEL 3
REMARK VINA RESULT:      -7.4      2.794      3.675
REMARK  Name = 
REMARK  7 active torsions:
REMARK  status: ('A' for Active; 'I' for Inactive)
REMARK    1  A    between atoms: C_1  and  O_2
REMARK    2  A    between atoms: O_2  and  N_3
REMARK    3  A    between atoms: C_4  and  C_5
REMARK    4  A    between atoms: C_4  and  C_12
REMARK    5  A    between atoms: C_13  and  C_14
REMARK    6  A    between atoms: N_16  and  C_17
REMARK    7  A    between atoms: C_24  and  O_25
REMARK                            x       y       z     vdW  Elec       q    Type
REMARK                         _______ _______ _______ _____ _____    ______ ____
ROOT
ATOM      1  C   UNL     1       1.610   8.886  19.954  0.00  0.00    +0.000 A 
ATOM      2  C   UNL     1       1.973   9.016  18.563  0.00  0.00    +0.000 A 
ATOM      3  C   UNL     1       1.780  10.151  17.616  0.00  0.00    +0.000 C 
ATOM      4  N   UNL     1       2.588   7.923  18.085  0.00  0.00    +0.000 NA
ATOM      5  N   UNL     1       2.396   6.993  19.026  0.00  0.00    +0.000 N 
ATOM      6  C   UNL     1       1.879   7.543  20.192  0.00  0.00    +0.000 A 
ENDROOT
BRANCH   5   7
ATOM      7  C   UNL     1       2.742   5.618  18.815  0.00  0.00    +0.000 A 
ATOM      8  C   UNL     1       3.948   5.111  19.315  0.00  0.00    +0.000 A 
ATOM      9  C   UNL     1       4.237   3.746  19.179  0.00  0.00    +0.000 A 
ATOM     10  C   UNL     1       3.339   2.897  18.528  0.00  0.00    +0.000 A 
ATOM     11 CL   UNL     1       3.702   1.225  18.352  0.00  0.00    +0.000 Cl
ATOM     12  C   UNL     1       2.151   3.397  18.008  0.00  0.00    +0.000 A 
ATOM     13  C   UNL     1       1.860   4.754  18.140  0.00  0.00    +0.000 A 
ENDBRANCH   5   7
BRANCH   1  15
ATOM     14  N   UNL     1       0.824   9.457  22.084  0.00  0.00    +0.000 NA
ATOM     15  C   UNL     1       1.029   9.907  20.873  0.00  0.00    +0.000 C 
BRANCH  15  16
ATOM     16  C   UNL     1       0.645  11.318  20.400  0.00  0.00    +0.000 A 
ATOM     17  C   UNL     1      -0.591  11.627  19.824  0.00  0.00    +0.000 A 
ATOM     18  C   UNL     1      -0.957  12.918  19.424  0.00  0.00    +0.000 A 
ATOM     19  C   UNL     1      -0.023  13.933  19.471  0.00  0.00    +0.000 A 
ATOM     20 CL   UNL     1      -0.426  15.486  18.858  0.00  0.00    +0.000 Cl
ATOM     21  C   UNL     1       1.246  13.667  19.972  0.00  0.00    +0.000 A 
ATOM     22  C   UNL     1       1.558  12.386  20.472  0.00  0.00    +0.000 A 
ENDBRANCH  15  16
BRANCH  14  24
ATOM     23  C   UNL     1      -1.039  10.192  23.235  0.00  0.00    +0.000 C 
ATOM     24  O   UNL     1       0.338  10.430  22.969  0.00  0.00    +0.000 OA
ENDBRANCH  14  24
ENDBRANCH   1  15
BRANCH   6  25
ATOM     25  O   UNL     1       1.688   6.794  21.276  0.00  0.00    +0.000 OA
ATOM     26  H   UNL     1       2.348   6.072  21.263  0.00  0.00    +0.000 HD
ENDBRANCH   6  25
TORSDOF 5
ENDMDL
MODEL 4
REMARK VINA RESULT:      -7.4      2.413      3.852
REMARK  Name = 
REMARK  7 active torsions:
REMARK  status: ('A' for Active; 'I' for Inactive)
REMARK    1  A    between atoms: C_1  and  O_2
REMARK    2  A    between atoms: O_2  and  N_3
REMARK    3  A    between atoms: C_4  and  C_5
REMARK    4  A    between atoms: C_4  and  C_12
REMARK    5  A    between atoms: C_13  and  C_14
REMARK    6  A    between atoms: N_16  and  C_17
REMARK    7  A    between atoms: C_24  and  O_25
REMARK                            x       y       z     vdW  Elec       q    Type
REMARK                         _______ _______ _______ _____ _____    ______ ____
ROOT
ATOM      1  C   UNL     1       1.156   9.614  19.498  0.00  0.00    +0.000 A 
ATOM      2  C   UNL     1       1.380   8.691  20.584  0.00  0.00    +0.000 A 
ATOM      3  C   UNL     1       1.138   8.842  22.047  0.00  0.00    +0.000 C 
ATOM      4  N   UNL     1       1.880   7.516  20.168  0.00  0.00    +0.000 NA
ATOM      5  N   UNL     1       2.241   7.736  18.900  0.00  0.00    +0.000 N 
ATOM      6  C   UNL     1       1.763   8.954  18.435  0.00  0.00    +0.000 A 
ENDROOT
BRANCH   5   7
ATOM      7  C   UNL     1       2.994   6.775  18.148  0.00  0.00    +0.000 A 
ATOM      8  C   UNL     1       4.178   7.155  17.505  0.00  0.00    +0.000 A 
ATOM      9  C   UNL     1       4.951   6.189  16.846  0.00  0.00    +0.000 A 
ATOM     10  C   UNL     1       4.533   4.857  16.809  0.00  0.00    +0.000 A 
ATOM     11 CL   UNL     1       5.478   3.677  15.989  0.00  0.00    +0.000 Cl
ATOM     12  C   UNL     1       3.346   4.475  17.425  0.00  0.00    +0.000 A 
ATOM     13  C   UNL     1       2.574   5.433  18.081  0.00  0.00    +0.000 A 
ENDBRANCH   5   7
BRANCH   1  15
ATOM     14  N   UNL     1      -0.796  10.906  19.509  0.00  0.00    +0.000 NA
ATOM     15  C   UNL     1       0.510  10.958  19.526  0.00  0.00    +0.000 C 
BRANCH  15  16
ATOM     16  C   UNL     1       1.321  12.264  19.498  0.00  0.00    +0.000 A 
ATOM     17  C   UNL     1       1.780  12.860  18.320  0.00  0.00    +0.000 A 
ATOM     18  C   UNL     1       2.489  14.067  18.289  0.00  0.00    +0.000 A 
ATOM     19  C   UNL     1       2.880  14.654  19.475  0.00  0.00    +0.000 A 
ATOM     20 CL   UNL     1       3.863  16.063  19.441  0.00  0.00    +0.000 Cl
ATOM     21  C   UNL     1       2.510  14.068  20.679  0.00  0.00    +0.000 A 
ATOM     22  C   UNL     1       1.701  12.913  20.688  0.00  0.00    +0.000 A 
ENDBRANCH  15  16
BRANCH  14  24
ATOM     23  C   UNL     1      -2.777  12.058  19.221  0.00  0.00    +0.000 C 
ATOM     24  O   UNL     1      -1.410  12.162  19.600  0.00  0.00    +0.000 OA
ENDBRANCH  14  24
ENDBRANCH   1  15
BRANCH   6  25
ATOM     25  O   UNL     1       1.949   9.325  17.170  0.00  0.00    +0.000 OA
ATOM     26  H   UNL     1       1.124   9.143  16.678  0.00  0.00    +0.000 HD
ENDBRANCH   6  25
TORSDOF 5
ENDMDL
MODEL 5
REMARK VINA RESULT:      -7.3      2.398      3.695
REMARK  Name = 
REMARK  7 active torsions:
REMARK  status: ('A' for Active; 'I' for Inactive)
REMARK    1  A    between atoms: C_1  and  O_2
REMARK    2  A    between atoms: O_2  and  N_3
REMARK    3  A    between atoms: C_4  and  C_5
REMARK    4  A    between atoms: C_4  and  C_12
REMARK    5  A    between atoms: C_13  and  C_14
REMARK    6  A    between atoms: N_16  and  C_17
REMARK    7  A    between atoms: C_24  and  O_25
REMARK                            x       y       z     vdW  Elec       q    Type
REMARK                         _______ _______ _______ _____ _____    ______ ____
ROOT
ATOM      1  C   UNL     1       1.282   9.329  19.336  0.00  0.00    +0.000 A 
ATOM      2  C   UNL     1       1.469   8.418  20.440  0.00  0.00    +0.000 A 
ATOM      3  C   UNL     1       1.140   8.570  21.886  0.00  0.00    +0.000 C 
ATOM      4  N   UNL     1       2.024   7.256  20.061  0.00  0.00    +0.000 NA
ATOM      5  N   UNL     1       2.450   7.480  18.814  0.00  0.00    +0.000 N 
ATOM      6  C   UNL     1       1.965   8.681  18.314  0.00  0.00    +0.000 A 
ENDROOT
BRANCH   5   7
ATOM      7  C   UNL     1       3.271   6.536  18.113  0.00  0.00    +0.000 A 
ATOM      8  C   UNL     1       2.883   5.193  18.025  0.00  0.00    +0.000 A 
ATOM      9  C   UNL     1       3.647   4.298  17.264  0.00  0.00    +0.000 A 
ATOM     10  C   UNL     1       4.804   4.734  16.614  0.00  0.00    +0.000 A 
ATOM     11 CL   UNL     1       5.745   3.630  15.691  0.00  0.00    +0.000 Cl
ATOM     12  C   UNL     1       5.209   6.060  16.715  0.00  0.00    +0.000 A 
ATOM     13  C   UNL     1       4.452   6.954  17.472  0.00  0.00    +0.000 A 
ENDBRANCH   5   7
BRANCH   1  15
ATOM     14  N   UNL     1      -0.698  10.567  19.157  0.00  0.00    +0.000 NA
ATOM     15  C   UNL     1       0.597  10.655  19.318  0.00  0.00    +0.000 C 
BRANCH  15  16
ATOM     16  C   UNL     1       1.368  11.982  19.405  0.00  0.00    +0.000 A 
ATOM     17  C   UNL     1       1.999  12.578  18.309  0.00  0.00    +0.000 A 
ATOM     18  C   UNL     1       2.672  13.804  18.377  0.00  0.00    +0.000 A 
ATOM     19  C   UNL     1       2.848  14.414  19.602  0.00  0.00    +0.000 A 
ATOM     20 CL   UNL     1       3.786  15.849  19.709  0.00  0.00    +0.000 Cl
ATOM     21  C   UNL     1       2.300  13.830  20.738  0.00  0.00    +0.000 A 
ATOM     22  C   UNL     1       1.531  12.653  20.631  0.00  0.00    +0.000 A 
ENDBRANCH  15  16
BRANCH  14  24
ATOM     23  C   UNL     1      -2.598  11.715  18.520  0.00  0.00    +0.000 C 
ATOM     24  O   UNL     1      -1.354  11.805  19.204  0.00  0.00    +0.000 OA
ENDBRANCH  14  24
ENDBRANCH   1  15
BRANCH   6  25
ATOM     25  O   UNL     1       2.213   9.050  17.059  0.00  0.00    +0.000 OA
ATOM     26  H   UNL     1       2.971   8.525  16.735  0.00  0.00    +0.000 HD
ENDBRANCH   6  25
TORSDOF 5
ENDMDL
MODEL 6
REMARK VINA RESULT:      -7.3      2.216      7.889
REMARK  Name = 
REMARK  7 active torsions:
REMARK  status: ('A' for Active; 'I' for Inactive)
REMARK    1  A    between atoms: C_1  and  O_2
REMARK    2  A    between atoms: O_2  and  N_3
REMARK    3  A    between atoms: C_4  and  C_5
REMARK    4  A    between atoms: C_4  and  C_12
REMARK    5  A    between atoms: C_13  and  C_14
REMARK    6  A    between atoms: N_16  and  C_17
REMARK    7  A    between atoms: C_24  and  O_25
REMARK                            x       y       z     vdW  Elec       q    Type
REMARK                         _______ _______ _______ _____ _____    ______ ____
ROOT
ATOM      1  C   UNL     1       2.440   7.643  18.841  0.00  0.00    +0.000 A 
ATOM      2  C   UNL     1       1.813   7.295  20.094  0.00  0.00    +0.000 A 
ATOM      3  C   UNL     1       1.807   6.008  20.847  0.00  0.00    +0.000 C 
ATOM      4  N   UNL     1       1.145   8.323  20.640  0.00  0.00    +0.000 NA
ATOM      5  N   UNL     1       1.086   9.238  19.668  0.00  0.00    +0.000 N 
ATOM      6  C   UNL     1       1.907   8.904  18.599  0.00  0.00    +0.000 A 
ENDROOT
BRANCH   5   7
ATOM      7  C   UNL     1       0.287  10.423  19.789  0.00  0.00    +0.000 A 
ATOM      8  C   UNL     1      -0.954  10.503  19.145  0.00  0.00    +0.000 A 
ATOM      9  C   UNL     1      -1.765  11.630  19.340  0.00  0.00    +0.000 A 
ATOM     10  C   UNL     1      -1.331  12.679  20.154  0.00  0.00    +0.000 A 
ATOM     11 CL   UNL     1      -2.323  14.065  20.382  0.00  0.00    +0.000 Cl
ATOM     12  C   UNL     1      -0.090  12.617  20.778  0.00  0.00    +0.000 A 
ATOM     13  C   UNL     1       0.721  11.498  20.586  0.00  0.00    +0.000 A 
ENDBRANCH   5   7
BRANCH   1  15
ATOM     14  N   UNL     1       3.988   7.534  17.088  0.00  0.00    +0.000 NA
ATOM     15  C   UNL     1       3.359   6.830  17.992  0.00  0.00    +0.000 C 
BRANCH  15  16
ATOM     16  C   UNL     1       3.480   5.304  18.136  0.00  0.00    +0.000 A 
ATOM     17  C   UNL     1       2.594   4.403  17.537  0.00  0.00    +0.000 A 
ATOM     18  C   UNL     1       2.722   3.012  17.637  0.00  0.00    +0.000 A 
ATOM     19  C   UNL     1       3.686   2.477  18.467  0.00  0.00    +0.000 A 
ATOM     20 CL   UNL     1       3.760   0.776  18.696  0.00  0.00    +0.000 Cl
ATOM     21  C   UNL     1       4.552   3.330  19.142  0.00  0.00    +0.000 A 
ATOM     22  C   UNL     1       4.477   4.723  18.941  0.00  0.00    +0.000 A 
ENDBRANCH  15  16
BRANCH  14  24
ATOM     23  C   UNL     1       6.220   7.006  16.815  0.00  0.00    +0.000 C 
ATOM     24  O   UNL     1       4.900   6.788  16.330  0.00  0.00    +0.000 OA
ENDBRANCH  14  24
ENDBRANCH   1  15
BRANCH   6  25
ATOM     25  O   UNL     1       2.048   9.726  17.561  0.00  0.00    +0.000 OA
ATOM     26  H   UNL     1       2.057  10.642  17.902  0.00  0.00    +0.000 HD
ENDBRANCH   6  25
TORSDOF 5
ENDMDL
MODEL 7
REMARK VINA RESULT:      -7.3      0.696      1.228
REMARK  Name = 
REMARK  7 active torsions:
REMARK  status: ('A' for Active; 'I' for Inactive)
REMARK    1  A    between atoms: C_1  and  O_2
REMARK    2  A    between atoms: O_2  and  N_3
REMARK    3  A    between atoms: C_4  and  C_5
REMARK    4  A    between atoms: C_4  and  C_12
REMARK    5  A    between atoms: C_13  and  C_14
REMARK    6  A    between atoms: N_16  and  C_17
REMARK    7  A    between atoms: C_24  and  O_25
REMARK                            x       y       z     vdW  Elec       q    Type
REMARK                         _______ _______ _______ _____ _____    ______ ____
ROOT
ATOM      1  C   UNL     1       1.007   9.970  19.590  0.00  0.00    +0.000 A 
ATOM      2  C   UNL     1       1.147   9.060  20.701  0.00  0.00    +0.000 A 
ATOM      3  C   UNL     1       0.867   9.255  22.153  0.00  0.00    +0.000 C 
ATOM      4  N   UNL     1       1.597   7.852  20.326  0.00  0.00    +0.000 NA
ATOM      5  N   UNL     1       2.009   8.026  19.066  0.00  0.00    +0.000 N 
ATOM      6  C   UNL     1       1.610   9.256  18.561  0.00  0.00    +0.000 A 
ENDROOT
BRANCH   5   7
ATOM      7  C   UNL     1       2.734   7.010  18.359  0.00  0.00    +0.000 A 
ATOM      8  C   UNL     1       3.923   7.329  17.692  0.00  0.00    +0.000 A 
ATOM      9  C   UNL     1       4.668   6.314  17.078  0.00  0.00    +0.000 A 
ATOM     10  C   UNL     1       4.218   4.992  17.108  0.00  0.00    +0.000 A 
ATOM     11 CL   UNL     1       5.129   3.750  16.343  0.00  0.00    +0.000 Cl
ATOM     12  C   UNL     1       3.026   4.670  17.748  0.00  0.00    +0.000 A 
ATOM     13  C   UNL     1       2.281   5.678  18.360  0.00  0.00    +0.000 A 
ENDBRANCH   5   7
BRANCH   1  15
ATOM     14  N   UNL     1       1.313  12.280  19.815  0.00  0.00    +0.000 NA
ATOM     15  C   UNL     1       0.431  11.346  19.569  0.00  0.00    +0.000 C 
BRANCH  15  16
ATOM     16  C   UNL     1      -1.068  11.609  19.356  0.00  0.00    +0.000 A 
ATOM     17  C   UNL     1      -1.906  12.135  20.344  0.00  0.00    +0.000 A 
ATOM     18  C   UNL     1      -3.264  12.408  20.142  0.00  0.00    +0.000 A 
ATOM     19  C   UNL     1      -3.863  12.031  18.957  0.00  0.00    +0.000 A 
ATOM     20 CL   UNL     1      -5.555  12.244  18.756  0.00  0.00    +0.000 Cl
ATOM     21  C   UNL     1      -3.092  11.441  17.963  0.00  0.00    +0.000 A 
ATOM     22  C   UNL     1      -1.703  11.276  18.144  0.00  0.00    +0.000 A 
ENDBRANCH  15  16
BRANCH  14  24
ATOM     23  C   UNL     1       1.497  14.319  18.744  0.00  0.00    +0.000 C 
ATOM     24  O   UNL     1       0.792  13.579  19.733  0.00  0.00    +0.000 OA
ENDBRANCH  14  24
ENDBRANCH   1  15
BRANCH   6  25
ATOM     25  O   UNL     1       1.856   9.589  17.295  0.00  0.00    +0.000 OA
ATOM     26  H   UNL     1       2.612  10.209  17.289  0.00  0.00    +0.000 HD
ENDBRANCH   6  25
TORSDOF 5
ENDMDL
MODEL 8
REMARK VINA RESULT:      -7.3      3.285      8.445
REMARK  Name = 
REMARK  7 active torsions:
REMARK  status: ('A' for Active; 'I' for Inactive)
REMARK    1  A    between atoms: C_1  and  O_2
REMARK    2  A    between atoms: O_2  and  N_3
REMARK    3  A    between atoms: C_4  and  C_5
REMARK    4  A    between atoms: C_4  and  C_12
REMARK    5  A    between atoms: C_13  and  C_14
REMARK    6  A    between atoms: N_16  and  C_17
REMARK    7  A    between atoms: C_24  and  O_25
REMARK                            x       y       z     vdW  Elec       q    Type
REMARK                         _______ _______ _______ _____ _____    ______ ____
ROOT
ATOM      1  C   UNL     1       2.061   7.334  19.746  0.00  0.00    +0.000 A 
ATOM      2  C   UNL     1       2.077   8.296  18.669  0.00  0.00    +0.000 A 
ATOM      3  C   UNL     1       2.724   8.235  17.328  0.00  0.00    +0.000 C 
ATOM      4  N   UNL     1       1.379   9.406  18.958  0.00  0.00    +0.000 NA
ATOM      5  N   UNL     1       1.141   9.319  20.271  0.00  0.00    +0.000 N 
ATOM      6  C   UNL     1       1.468   8.065  20.769  0.00  0.00    +0.000 A 
ENDROOT
BRANCH   5   7
ATOM      7  C   UNL     1       0.575  10.408  21.012  0.00  0.00    +0.000 A 
ATOM      8  C   UNL     1       0.925  11.728  20.702  0.00  0.00    +0.000 A 
ATOM      9  C   UNL     1       0.300  12.788  21.374  0.00  0.00    +0.000 A 
ATOM     10  C   UNL     1      -0.650  12.532  22.365  0.00  0.00    +0.000 A 
ATOM     11 CL   UNL     1      -1.405  13.834  23.196  0.00  0.00    +0.000 Cl
ATOM     12  C   UNL     1      -0.986  11.223  22.696  0.00  0.00    +0.000 A 
ATOM     13  C   UNL     1      -0.366  10.166  22.030  0.00  0.00    +0.000 A 
ENDBRANCH   5   7
BRANCH   1  15
ATOM     14  N   UNL     1       2.045   5.186  20.678  0.00  0.00    +0.000 NA
ATOM     15  C   UNL     1       2.607   5.946  19.774  0.00  0.00    +0.000 C 
BRANCH  15  16
ATOM     16  C   UNL     1       3.769   5.500  18.872  0.00  0.00    +0.000 A 
ATOM     17  C   UNL     1       5.115   5.676  19.208  0.00  0.00    +0.000 A 
ATOM     18  C   UNL     1       6.176   5.238  18.405  0.00  0.00    +0.000 A 
ATOM     19  C   UNL     1       5.910   4.719  17.154  0.00  0.00    +0.000 A 
ATOM     20 CL   UNL     1       7.213   4.304  16.114  0.00  0.00    +0.000 Cl
ATOM     21  C   UNL     1       4.591   4.583  16.740  0.00  0.00    +0.000 A 
ATOM     22  C   UNL     1       3.535   4.927  17.608  0.00  0.00    +0.000 A 
ENDBRANCH  15  16
BRANCH  14  24
ATOM     23  C   UNL     1       1.758   3.083  21.588  0.00  0.00    +0.000 C 
ATOM     24  O   UNL     1       2.508   3.864  20.665  0.00  0.00    +0.000 OA
ENDBRANCH  14  24
ENDBRANCH   1  15
BRANCH   6  25
ATOM     25  O   UNL     1       1.233   7.751  22.042  0.00  0.00    +0.000 OA
ATOM     26  H   UNL     1       0.420   7.209  22.073  0.00  0.00    +0.000 HD
ENDBRANCH   6  25
TORSDOF 5
ENDMDL
MODEL 9
REMARK VINA RESULT:      -7.3      1.615      1.833
REMARK  Name = 
REMARK  7 active torsions:
REMARK  status: ('A' for Active; 'I' for Inactive)
REMARK    1  A    between atoms: C_1  and  O_2
REMARK    2  A    between atoms: O_2  and  N_3
REMARK    3  A    between atoms: C_4  and  C_5
REMARK    4  A    between atoms: C_4  and  C_12
REMARK    5  A    between atoms: C_13  and  C_14
REMARK    6  A    between atoms: N_16  and  C_17
REMARK    7  A    between atoms: C_24  and  O_25
REMARK                            x       y       z     vdW  Elec       q    Type
REMARK                         _______ _______ _______ _____ _____    ______ ____
ROOT
ATOM      1  C   UNL     1       0.940   9.280  19.811  0.00  0.00    +0.000 A 
ATOM      2  C   UNL     1       0.843   8.902  21.201  0.00  0.00    +0.000 A 
ATOM      3  C   UNL     1       0.433   9.697  22.393  0.00  0.00    +0.000 C 
ATOM      4  N   UNL     1       1.179   7.619  21.411  0.00  0.00    +0.000 NA
ATOM      5  N   UNL     1       1.745   7.229  20.265  0.00  0.00    +0.000 N 
ATOM      6  C   UNL     1       1.560   8.166  19.257  0.00  0.00    +0.000 A 
ENDROOT
BRANCH   5   7
ATOM      7  C   UNL     1       2.412   5.966  20.140  0.00  0.00    +0.000 A 
ATOM      8  C   UNL     1       1.811   4.801  20.632  0.00  0.00    +0.000 A 
ATOM      9  C   UNL     1       2.430   3.560  20.428  0.00  0.00    +0.000 A 
ATOM     10  C   UNL     1       3.652   3.485  19.757  0.00  0.00    +0.000 A 
ATOM     11 CL   UNL     1       4.415   1.962  19.518  0.00  0.00    +0.000 Cl
ATOM     12  C   UNL     1       4.268   4.639  19.285  0.00  0.00    +0.000 A 
ATOM     13  C   UNL     1       3.655   5.876  19.487  0.00  0.00    +0.000 A 
ENDBRANCH   5   7
BRANCH   1  15
ATOM     14  N   UNL     1       1.500  11.453  19.145  0.00  0.00    +0.000 NA
ATOM     15  C   UNL     1       0.545  10.561  19.157  0.00  0.00    +0.000 C 
BRANCH  15  16
ATOM     16  C   UNL     1      -0.876  10.811  18.625  0.00  0.00    +0.000 A 
ATOM     17  C   UNL     1      -1.810  11.621  19.278  0.00  0.00    +0.000 A 
ATOM     18  C   UNL     1      -3.093  11.879  18.779  0.00  0.00    +0.000 A 
ATOM     19  C   UNL     1      -3.530  11.211  17.653  0.00  0.00    +0.000 A 
ATOM     20 CL   UNL     1      -5.147  11.423  17.114  0.00  0.00    +0.000 Cl
ATOM     21  C   UNL     1      -2.665  10.339  17.001  0.00  0.00    +0.000 A 
ATOM     22  C   UNL     1      -1.341  10.179  17.457  0.00  0.00    +0.000 A 
ENDBRANCH  15  16
BRANCH  14  24
ATOM     23  C   UNL     1       2.336  13.306  18.048  0.00  0.00    +0.000 C 
ATOM     24  O   UNL     1       1.156  12.635  18.475  0.00  0.00    +0.000 OA
ENDBRANCH  14  24
ENDBRANCH   1  15
BRANCH   6  25
ATOM     25  O   UNL     1       1.983   7.930  18.016  0.00  0.00    +0.000 OA
ATOM     26  H   UNL     1       2.597   7.170  18.048  0.00  0.00    +0.000 HD
ENDBRANCH   6  25
TORSDOF 5
ENDMDL
