MODEL 1
REMARK VINA RESULT:      -8.0      0.000      0.000
REMARK  Name = 
REMARK  13 active torsions:
REMARK  status: ('A' for Active; 'I' for Inactive)
REMARK    1  A    between atoms: C_1  and  O_2
REMARK    2  A    between atoms: O_2  and  C_3
REMARK    3  A    between atoms: C_6  and  C_7
REMARK    4  A    between atoms: C_7  and  C_8
REMARK    5  A    between atoms: C_10  and  C_11
REMARK    6  A    between atoms: C_11  and  C_12
REMARK    7  A    between atoms: C_11  and  C_13
REMARK    8  A    between atoms: C_11  and  C_14
REMARK    9  A    between atoms: C_16  and  C_17
REMARK   10  A    between atoms: C_17  and  C_18
REMARK   11  A    between atoms: C_17  and  C_19
REMARK   12  A    between atoms: C_17  and  C_20
REMARK   13  A    between atoms: C_21  and  O_22
REMARK                            x       y       z     vdW  Elec       q    Type
REMARK                         _______ _______ _______ _____ _____    ______ ____
ROOT
ATOM      1  C   UNL     1       3.226   6.303  18.229  0.00  0.00    +0.000 A 
ATOM      2  C   UNL     1       4.602   6.531  18.103  0.00  0.00    +0.000 A 
ATOM      3  C   UNL     1       5.541   5.553  18.460  0.00  0.00    +0.000 A 
ATOM      4  C   UNL     1       5.047   4.382  19.071  0.00  0.00    +0.000 A 
ATOM      5  C   UNL     1       3.670   4.084  19.201  0.00  0.00    +0.000 A 
ATOM      6  C   UNL     1       2.785   5.078  18.748  0.00  0.00    +0.000 A 
ENDROOT
BRANCH   3   7
ATOM      7  C   UNL     1       7.045   5.743  18.180  0.00  0.00    +0.000 C 
ATOM      8  C   UNL     1       7.828   5.735  19.506  0.00  0.00    +0.000 C 
ATOM      9  C   UNL     1       7.614   4.630  17.264  0.00  0.00    +0.000 C 
ATOM     10  C   UNL     1       7.324   7.076  17.446  0.00  0.00    +0.000 C 
ENDBRANCH   3   7
BRANCH   5  11
ATOM     11  C   UNL     1       3.238   2.746  19.851  0.00  0.00    +0.000 C 
ATOM     12  C   UNL     1       4.515   1.973  20.239  0.00  0.00    +0.000 C 
ATOM     13  C   UNL     1       2.348   2.906  21.107  0.00  0.00    +0.000 C 
ATOM     14  C   UNL     1       2.412   1.843  18.894  0.00  0.00    +0.000 C 
ENDBRANCH   5  11
BRANCH   6  15
ATOM     15  O   UNL     1       1.429   4.911  18.809  0.00  0.00    +0.000 OA
ATOM     16  H   UNL     1       1.232   4.204  18.178  0.00  0.00    +0.000 HD
ENDBRANCH   6  15
BRANCH   1  17
ATOM     17  C   UNL     1       2.251   7.392  17.826  0.00  0.00    +0.000 C 
BRANCH  17  21
ATOM     18  C   UNL     1       0.911   9.877  21.119  0.00  0.00    +0.000 A 
ATOM     19  C   UNL     1       1.385   8.586  21.354  0.00  0.00    +0.000 A 
ATOM     20  C   UNL     1       1.819   7.781  20.296  0.00  0.00    +0.000 A 
ATOM     21  C   UNL     1       1.777   8.256  18.978  0.00  0.00    +0.000 A 
ATOM     22  C   UNL     1       1.273   9.544  18.750  0.00  0.00    +0.000 A 
ATOM     23  C   UNL     1       0.839  10.348  19.809  0.00  0.00    +0.000 A 
BRANCH  18  25
ATOM     24  C   UNL     1      -0.460   9.904  23.043  0.00  0.00    +0.000 C 
ATOM     25  O   UNL     1       0.506  10.562  22.229  0.00  0.00    +0.000 OA
ENDBRANCH  18  25
ENDBRANCH  17  21
ENDBRANCH   1  17
TORSDOF 6
ENDMDL
MODEL 2
REMARK VINA RESULT:      -8.0      0.101      1.324
REMARK  Name = 
REMARK  13 active torsions:
REMARK  status: ('A' for Active; 'I' for Inactive)
REMARK    1  A    between atoms: C_1  and  O_2
REMARK    2  A    between atoms: O_2  and  C_3
REMARK    3  A    between atoms: C_6  and  C_7
REMARK    4  A    between atoms: C_7  and  C_8
REMARK    5  A    between atoms: C_10  and  C_11
REMARK    6  A    between atoms: C_11  and  C_12
REMARK    7  A    between atoms: C_11  and  C_13
REMARK    8  A    between atoms: C_11  and  C_14
REMARK    9  A    between atoms: C_16  and  C_17
REMARK   10  A    between atoms: C_17  and  C_18
REMARK   11  A    between atoms: C_17  and  C_19
REMARK   12  A    between atoms: C_17  and  C_20
REMARK   13  A    between atoms: C_21  and  O_22
REMARK                            x       y       z     vdW  Elec       q    Type
REMARK                         _______ _______ _______ _____ _____    ______ ____
ROOT
ATOM      1  C   UNL     1       3.208   6.306  18.235  0.00  0.00    +0.000 A 
ATOM      2  C   UNL     1       4.582   6.537  18.095  0.00  0.00    +0.000 A 
ATOM      3  C   UNL     1       5.527   5.563  18.445  0.00  0.00    +0.000 A 
ATOM      4  C   UNL     1       5.043   4.390  19.061  0.00  0.00    +0.000 A 
ATOM      5  C   UNL     1       3.667   4.089  19.205  0.00  0.00    +0.000 A 
ATOM      6  C   UNL     1       2.775   5.080  18.760  0.00  0.00    +0.000 A 
ENDROOT
BRANCH   3   7
ATOM      7  C   UNL     1       7.028   5.756  18.150  0.00  0.00    +0.000 C 
ATOM      8  C   UNL     1       7.534   4.614  17.251  0.00  0.00    +0.000 C 
ATOM      9  C   UNL     1       7.317   7.104  17.444  0.00  0.00    +0.000 C 
ATOM     10  C   UNL     1       7.866   5.774  19.451  0.00  0.00    +0.000 C 
ENDBRANCH   3   7
BRANCH   5  11
ATOM     11  C   UNL     1       3.246   2.751  19.861  0.00  0.00    +0.000 C 
ATOM     12  C   UNL     1       4.528   1.961  20.194  0.00  0.00    +0.000 C 
ATOM     13  C   UNL     1       2.406   2.910  21.151  0.00  0.00    +0.000 C 
ATOM     14  C   UNL     1       2.374   1.864  18.929  0.00  0.00    +0.000 C 
ENDBRANCH   5  11
BRANCH   6  15
ATOM     15  O   UNL     1       1.420   4.909  18.834  0.00  0.00    +0.000 OA
ATOM     16  H   UNL     1       1.285   3.950  18.831  0.00  0.00    +0.000 HD
ENDBRANCH   6  15
BRANCH   1  17
ATOM     17  C   UNL     1       2.226   7.391  17.840  0.00  0.00    +0.000 C 
BRANCH  17  21
ATOM     18  C   UNL     1       0.884   9.855  21.148  0.00  0.00    +0.000 A 
ATOM     19  C   UNL     1       0.834  10.338  19.840  0.00  0.00    +0.000 A 
ATOM     20  C   UNL     1       1.265   9.548  18.770  0.00  0.00    +0.000 A 
ATOM     21  C   UNL     1       1.762   8.256  18.995  0.00  0.00    +0.000 A 
ATOM     22  C   UNL     1       1.833   7.791  20.316  0.00  0.00    +0.000 A 
ATOM     23  C   UNL     1       1.402   8.583  21.385  0.00  0.00    +0.000 A 
BRANCH  18  25
ATOM     24  C   UNL     1      -0.625  10.254  22.922  0.00  0.00    +0.000 C 
ATOM     25  O   UNL     1       0.446  10.722  22.108  0.00  0.00    +0.000 OA
ENDBRANCH  18  25
ENDBRANCH  17  21
ENDBRANCH   1  17
TORSDOF 6
ENDMDL
MODEL 3
REMARK VINA RESULT:      -7.8      0.115      1.303
REMARK  Name = 
REMARK  13 active torsions:
REMARK  status: ('A' for Active; 'I' for Inactive)
REMARK    1  A    between atoms: C_1  and  O_2
REMARK    2  A    between atoms: O_2  and  C_3
REMARK    3  A    between atoms: C_6  and  C_7
REMARK    4  A    between atoms: C_7  and  C_8
REMARK    5  A    between atoms: C_10  and  C_11
REMARK    6  A    between atoms: C_11  and  C_12
REMARK    7  A    between atoms: C_11  and  C_13
REMARK    8  A    between atoms: C_11  and  C_14
REMARK    9  A    between atoms: C_16  and  C_17
REMARK   10  A    between atoms: C_17  and  C_18
REMARK   11  A    between atoms: C_17  and  C_19
REMARK   12  A    between atoms: C_17  and  C_20
REMARK   13  A    between atoms: C_21  and  O_22
REMARK                            x       y       z     vdW  Elec       q    Type
REMARK                         _______ _______ _______ _____ _____    ______ ____
ROOT
ATOM      1  C   UNL     1       3.284   6.285  18.193  0.00  0.00    +0.000 A 
ATOM      2  C   UNL     1       4.659   6.522  18.076  0.00  0.00    +0.000 A 
ATOM      3  C   UNL     1       5.603   5.547  18.428  0.00  0.00    +0.000 A 
ATOM      4  C   UNL     1       5.114   4.366  19.024  0.00  0.00    +0.000 A 
ATOM      5  C   UNL     1       3.737   4.059  19.145  0.00  0.00    +0.000 A 
ATOM      6  C   UNL     1       2.848   5.051  18.699  0.00  0.00    +0.000 A 
ENDROOT
BRANCH   3   7
ATOM      7  C   UNL     1       7.107   5.748  18.156  0.00  0.00    +0.000 C 
ATOM      8  C   UNL     1       7.877   5.784  19.489  0.00  0.00    +0.000 C 
ATOM      9  C   UNL     1       7.698   4.621  17.274  0.00  0.00    +0.000 C 
ATOM     10  C   UNL     1       7.376   7.066  17.391  0.00  0.00    +0.000 C 
ENDBRANCH   3   7
BRANCH   5  11
ATOM     11  C   UNL     1       3.311   2.711  19.780  0.00  0.00    +0.000 C 
ATOM     12  C   UNL     1       2.620   1.870  18.687  0.00  0.00    +0.000 C 
ATOM     13  C   UNL     1       4.479   1.893  20.381  0.00  0.00    +0.000 C 
ATOM     14  C   UNL     1       2.304   2.881  20.951  0.00  0.00    +0.000 C 
ENDBRANCH   5  11
BRANCH   6  15
ATOM     15  O   UNL     1       1.493   4.875  18.752  0.00  0.00    +0.000 OA
ATOM     16  H   UNL     1       1.159   5.222  17.912  0.00  0.00    +0.000 HD
ENDBRANCH   6  15
BRANCH   1  17
ATOM     17  C   UNL     1       2.304   7.371  17.798  0.00  0.00    +0.000 C 
BRANCH  17  21
ATOM     18  C   UNL     1       0.887   9.776  21.117  0.00  0.00    +0.000 A 
ATOM     19  C   UNL     1       0.880  10.288  19.819  0.00  0.00    +0.000 A 
ATOM     20  C   UNL     1       1.335   9.516  18.745  0.00  0.00    +0.000 A 
ATOM     21  C   UNL     1       1.814   8.216  18.957  0.00  0.00    +0.000 A 
ATOM     22  C   UNL     1       1.843   7.722  20.269  0.00  0.00    +0.000 A 
ATOM     23  C   UNL     1       1.388   8.496  21.341  0.00  0.00    +0.000 A 
BRANCH  18  25
ATOM     24  C   UNL     1      -0.460  10.056  23.038  0.00  0.00    +0.000 C 
ATOM     25  O   UNL     1       0.429  10.628  22.083  0.00  0.00    +0.000 OA
ENDBRANCH  18  25
ENDBRANCH  17  21
ENDBRANCH   1  17
TORSDOF 6
ENDMDL
MODEL 4
REMARK VINA RESULT:      -7.8      0.161      1.583
REMARK  Name = 
REMARK  13 active torsions:
REMARK  status: ('A' for Active; 'I' for Inactive)
REMARK    1  A    between atoms: C_1  and  O_2
REMARK    2  A    between atoms: O_2  and  C_3
REMARK    3  A    between atoms: C_6  and  C_7
REMARK    4  A    between atoms: C_7  and  C_8
REMARK    5  A    between atoms: C_10  and  C_11
REMARK    6  A    between atoms: C_11  and  C_12
REMARK    7  A    between atoms: C_11  and  C_13
REMARK    8  A    between atoms: C_11  and  C_14
REMARK    9  A    between atoms: C_16  and  C_17
REMARK   10  A    between atoms: C_17  and  C_18
REMARK   11  A    between atoms: C_17  and  C_19
REMARK   12  A    between atoms: C_17  and  C_20
REMARK   13  A    between atoms: C_21  and  O_22
REMARK                            x       y       z     vdW  Elec       q    Type
REMARK                         _______ _______ _______ _____ _____    ______ ____
ROOT
ATOM      1  C   UNL     1       3.217   6.329  18.243  0.00  0.00    +0.000 A 
ATOM      2  C   UNL     1       4.591   6.563  18.102  0.00  0.00    +0.000 A 
ATOM      3  C   UNL     1       5.538   5.587  18.443  0.00  0.00    +0.000 A 
ATOM      4  C   UNL     1       5.056   4.410  19.052  0.00  0.00    +0.000 A 
ATOM      5  C   UNL     1       3.682   4.107  19.198  0.00  0.00    +0.000 A 
ATOM      6  C   UNL     1       2.787   5.099  18.761  0.00  0.00    +0.000 A 
ENDROOT
BRANCH   3   7
ATOM      7  C   UNL     1       7.038   5.784  18.146  0.00  0.00    +0.000 C 
ATOM      8  C   UNL     1       7.254   7.121  17.413  0.00  0.00    +0.000 C 
ATOM      9  C   UNL     1       7.895   5.785  19.436  0.00  0.00    +0.000 C 
ATOM     10  C   UNL     1       7.600   4.640  17.269  0.00  0.00    +0.000 C 
ENDBRANCH   3   7
BRANCH   5  11
ATOM     11  C   UNL     1       3.263   2.763  19.845  0.00  0.00    +0.000 C 
ATOM     12  C   UNL     1       2.519   3.080  21.158  0.00  0.00    +0.000 C 
ATOM     13  C   UNL     1       2.355   1.883  18.954  0.00  0.00    +0.000 C 
ATOM     14  C   UNL     1       4.473   1.853  20.197  0.00  0.00    +0.000 C 
ENDBRANCH   5  11
BRANCH   6  15
ATOM     15  O   UNL     1       1.433   4.926  18.837  0.00  0.00    +0.000 OA
ATOM     16  H   UNL     1       1.272   4.034  18.498  0.00  0.00    +0.000 HD
ENDBRANCH   6  15
BRANCH   1  17
ATOM     17  C   UNL     1       2.233   7.416  17.859  0.00  0.00    +0.000 C 
BRANCH  17  21
ATOM     18  C   UNL     1       0.924   9.878  21.180  0.00  0.00    +0.000 A 
ATOM     19  C   UNL     1       0.873  10.367  19.875  0.00  0.00    +0.000 A 
ATOM     20  C   UNL     1       1.294   9.577  18.800  0.00  0.00    +0.000 A 
ATOM     21  C   UNL     1       1.781   8.281  19.019  0.00  0.00    +0.000 A 
ATOM     22  C   UNL     1       1.854   7.810  20.337  0.00  0.00    +0.000 A 
ATOM     23  C   UNL     1       1.433   8.602  21.411  0.00  0.00    +0.000 A 
BRANCH  18  25
ATOM     24  C   UNL     1      -0.748  10.423  22.760  0.00  0.00    +0.000 C 
ATOM     25  O   UNL     1       0.496  10.746  22.146  0.00  0.00    +0.000 OA
ENDBRANCH  18  25
ENDBRANCH  17  21
ENDBRANCH   1  17
TORSDOF 6
ENDMDL
MODEL 5
REMARK VINA RESULT:      -7.8      0.261      1.276
REMARK  Name = 
REMARK  13 active torsions:
REMARK  status: ('A' for Active; 'I' for Inactive)
REMARK    1  A    between atoms: C_1  and  O_2
REMARK    2  A    between atoms: O_2  and  C_3
REMARK    3  A    between atoms: C_6  and  C_7
REMARK    4  A    between atoms: C_7  and  C_8
REMARK    5  A    between atoms: C_10  and  C_11
REMARK    6  A    between atoms: C_11  and  C_12
REMARK    7  A    between atoms: C_11  and  C_13
REMARK    8  A    between atoms: C_11  and  C_14
REMARK    9  A    between atoms: C_16  and  C_17
REMARK   10  A    between atoms: C_17  and  C_18
REMARK   11  A    between atoms: C_17  and  C_19
REMARK   12  A    between atoms: C_17  and  C_20
REMARK   13  A    between atoms: C_21  and  O_22
REMARK                            x       y       z     vdW  Elec       q    Type
REMARK                         _______ _______ _______ _____ _____    ______ ____
ROOT
ATOM      1  C   UNL     1       3.216   6.273  18.226  0.00  0.00    +0.000 A 
ATOM      2  C   UNL     1       4.586   6.522  18.073  0.00  0.00    +0.000 A 
ATOM      3  C   UNL     1       5.548   5.564  18.427  0.00  0.00    +0.000 A 
ATOM      4  C   UNL     1       5.084   4.393  19.061  0.00  0.00    +0.000 A 
ATOM      5  C   UNL     1       3.714   4.075  19.220  0.00  0.00    +0.000 A 
ATOM      6  C   UNL     1       2.805   5.048  18.770  0.00  0.00    +0.000 A 
ENDROOT
BRANCH   3   7
ATOM      7  C   UNL     1       7.043   5.775  18.118  0.00  0.00    +0.000 C 
ATOM      8  C   UNL     1       7.544   4.660  17.182  0.00  0.00    +0.000 C 
ATOM      9  C   UNL     1       7.315   7.143  17.445  0.00  0.00    +0.000 C 
ATOM     10  C   UNL     1       7.898   5.763  19.408  0.00  0.00    +0.000 C 
ENDBRANCH   3   7
BRANCH   5  11
ATOM     11  C   UNL     1       3.316   2.739  19.895  0.00  0.00    +0.000 C 
ATOM     12  C   UNL     1       2.493   1.920  18.879  0.00  0.00    +0.000 C 
ATOM     13  C   UNL     1       4.514   1.885  20.374  0.00  0.00    +0.000 C 
ATOM     14  C   UNL     1       2.439   2.935  21.163  0.00  0.00    +0.000 C 
ENDBRANCH   5  11
BRANCH   6  15
ATOM     15  O   UNL     1       1.453   4.859  18.857  0.00  0.00    +0.000 OA
ATOM     16  H   UNL     1       1.061   5.660  18.481  0.00  0.00    +0.000 HD
ENDBRANCH   6  15
BRANCH   1  17
ATOM     17  C   UNL     1       2.216   7.340  17.826  0.00  0.00    +0.000 C 
BRANCH  17  21
ATOM     18  C   UNL     1       0.968   9.909  21.090  0.00  0.00    +0.000 A 
ATOM     19  C   UNL     1       1.403   8.608  21.341  0.00  0.00    +0.000 A 
ATOM     20  C   UNL     1       1.807   7.775  20.293  0.00  0.00    +0.000 A 
ATOM     21  C   UNL     1       1.775   8.234  18.968  0.00  0.00    +0.000 A 
ATOM     22  C   UNL     1       1.310   9.534  18.724  0.00  0.00    +0.000 A 
ATOM     23  C   UNL     1       0.906  10.365  19.774  0.00  0.00    +0.000 A 
BRANCH  18  25
ATOM     24  C   UNL     1      -0.811  10.839  22.337  0.00  0.00    +0.000 C 
ATOM     25  O   UNL     1       0.590  10.622  22.193  0.00  0.00    +0.000 OA
ENDBRANCH  18  25
ENDBRANCH  17  21
ENDBRANCH   1  17
TORSDOF 6
ENDMDL
MODEL 6
REMARK VINA RESULT:      -7.8      0.607      1.454
REMARK  Name = 
REMARK  13 active torsions:
REMARK  status: ('A' for Active; 'I' for Inactive)
REMARK    1  A    between atoms: C_1  and  O_2
REMARK    2  A    between atoms: O_2  and  C_3
REMARK    3  A    between atoms: C_6  and  C_7
REMARK    4  A    between atoms: C_7  and  C_8
REMARK    5  A    between atoms: C_10  and  C_11
REMARK    6  A    between atoms: C_11  and  C_12
REMARK    7  A    between atoms: C_11  and  C_13
REMARK    8  A    between atoms: C_11  and  C_14
REMARK    9  A    between atoms: C_16  and  C_17
REMARK   10  A    between atoms: C_17  and  C_18
REMARK   11  A    between atoms: C_17  and  C_19
REMARK   12  A    between atoms: C_17  and  C_20
REMARK   13  A    between atoms: C_21  and  O_22
REMARK                            x       y       z     vdW  Elec       q    Type
REMARK                         _______ _______ _______ _____ _____    ______ ____
ROOT
ATOM      1  C   UNL     1       3.360   6.568  17.867  0.00  0.00    +0.000 A 
ATOM      2  C   UNL     1       4.752   6.712  17.931  0.00  0.00    +0.000 A 
ATOM      3  C   UNL     1       5.587   5.627  18.236  0.00  0.00    +0.000 A 
ATOM      4  C   UNL     1       4.959   4.418  18.600  0.00  0.00    +0.000 A 
ATOM      5  C   UNL     1       3.562   4.204  18.530  0.00  0.00    +0.000 A 
ATOM      6  C   UNL     1       2.793   5.315  18.140  0.00  0.00    +0.000 A 
ENDROOT
BRANCH   3   7
ATOM      7  C   UNL     1       7.121   5.746  18.157  0.00  0.00    +0.000 C 
ATOM      8  C   UNL     1       7.507   7.063  17.459  0.00  0.00    +0.000 C 
ATOM      9  C   UNL     1       7.783   5.718  19.557  0.00  0.00    +0.000 C 
ATOM     10  C   UNL     1       7.745   4.567  17.373  0.00  0.00    +0.000 C 
ENDBRANCH   3   7
BRANCH   5  11
ATOM     11  C   UNL     1       2.983   2.820  18.915  0.00  0.00    +0.000 C 
ATOM     12  C   UNL     1       4.134   1.964  19.481  0.00  0.00    +0.000 C 
ATOM     13  C   UNL     1       1.840   2.875  19.956  0.00  0.00    +0.000 C 
ATOM     14  C   UNL     1       2.378   2.056  17.704  0.00  0.00    +0.000 C 
ENDBRANCH   5  11
BRANCH   6  15
ATOM     15  O   UNL     1       1.433   5.238  18.023  0.00  0.00    +0.000 OA
ATOM     16  H   UNL     1       1.111   5.068  18.920  0.00  0.00    +0.000 HD
ENDBRANCH   6  15
BRANCH   1  17
ATOM     17  C   UNL     1       2.502   7.771  17.531  0.00  0.00    +0.000 C 
BRANCH  17  21
ATOM     18  C   UNL     1       0.563   9.574  20.966  0.00  0.00    +0.000 A 
ATOM     19  C   UNL     1       0.478  10.174  19.709  0.00  0.00    +0.000 A 
ATOM     20  C   UNL     1       1.101   9.597  18.599  0.00  0.00    +0.000 A 
ATOM     21  C   UNL     1       1.829   8.406  18.731  0.00  0.00    +0.000 A 
ATOM     22  C   UNL     1       1.931   7.826  20.003  0.00  0.00    +0.000 A 
ATOM     23  C   UNL     1       1.308   8.406  21.113  0.00  0.00    +0.000 A 
BRANCH  18  25
ATOM     24  C   UNL     1      -0.075   9.585  23.241  0.00  0.00    +0.000 C 
ATOM     25  O   UNL     1      -0.077  10.237  21.975  0.00  0.00    +0.000 OA
ENDBRANCH  18  25
ENDBRANCH  17  21
ENDBRANCH   1  17
TORSDOF 6
ENDMDL
MODEL 7
REMARK VINA RESULT:      -7.6      0.607      1.174
REMARK  Name = 
REMARK  13 active torsions:
REMARK  status: ('A' for Active; 'I' for Inactive)
REMARK    1  A    between atoms: C_1  and  O_2
REMARK    2  A    between atoms: O_2  and  C_3
REMARK    3  A    between atoms: C_6  and  C_7
REMARK    4  A    between atoms: C_7  and  C_8
REMARK    5  A    between atoms: C_10  and  C_11
REMARK    6  A    between atoms: C_11  and  C_12
REMARK    7  A    between atoms: C_11  and  C_13
REMARK    8  A    between atoms: C_11  and  C_14
REMARK    9  A    between atoms: C_16  and  C_17
REMARK   10  A    between atoms: C_17  and  C_18
REMARK   11  A    between atoms: C_17  and  C_19
REMARK   12  A    between atoms: C_17  and  C_20
REMARK   13  A    between atoms: C_21  and  O_22
REMARK                            x       y       z     vdW  Elec       q    Type
REMARK                         _______ _______ _______ _____ _____    ______ ____
ROOT
ATOM      1  C   UNL     1       3.308   6.307  17.993  0.00  0.00    +0.000 A 
ATOM      2  C   UNL     1       4.691   6.528  17.984  0.00  0.00    +0.000 A 
ATOM      3  C   UNL     1       5.594   5.534  18.389  0.00  0.00    +0.000 A 
ATOM      4  C   UNL     1       5.046   4.350  18.926  0.00  0.00    +0.000 A 
ATOM      5  C   UNL     1       3.661   4.060  18.938  0.00  0.00    +0.000 A 
ATOM      6  C   UNL     1       2.820   5.072  18.443  0.00  0.00    +0.000 A 
ENDROOT
BRANCH   3   7
ATOM      7  C   UNL     1       7.116   5.719  18.235  0.00  0.00    +0.000 C 
ATOM      8  C   UNL     1       7.783   5.725  19.622  0.00  0.00    +0.000 C 
ATOM      9  C   UNL     1       7.758   4.597  17.382  0.00  0.00    +0.000 C 
ATOM     10  C   UNL     1       7.458   7.044  17.512  0.00  0.00    +0.000 C 
ENDBRANCH   3   7
BRANCH   5  11
ATOM     11  C   UNL     1       3.171   2.709  19.516  0.00  0.00    +0.000 C 
ATOM     12  C   UNL     1       4.403   1.939  20.034  0.00  0.00    +0.000 C 
ATOM     13  C   UNL     1       2.143   2.842  20.665  0.00  0.00    +0.000 C 
ATOM     14  C   UNL     1       2.467   1.814  18.458  0.00  0.00    +0.000 C 
ENDBRANCH   5  11
BRANCH   6  15
ATOM     15  O   UNL     1       1.463   4.913  18.391  0.00  0.00    +0.000 OA
ATOM     16  H   UNL     1       1.128   5.724  17.981  0.00  0.00    +0.000 HD
ENDBRANCH   6  15
BRANCH   1  17
ATOM     17  C   UNL     1       2.374   7.413  17.543  0.00  0.00    +0.000 C 
BRANCH  17  21
ATOM     18  C   UNL     1       0.766   9.801  20.787  0.00  0.00    +0.000 A 
ATOM     19  C   UNL     1       0.710  10.264  19.472  0.00  0.00    +0.000 A 
ATOM     20  C   UNL     1       1.227   9.499  18.423  0.00  0.00    +0.000 A 
ATOM     21  C   UNL     1       1.817   8.253  18.676  0.00  0.00    +0.000 A 
ATOM     22  C   UNL     1       1.893   7.809  20.004  0.00  0.00    +0.000 A 
ATOM     23  C   UNL     1       1.377   8.577  21.052  0.00  0.00    +0.000 A 
BRANCH  18  25
ATOM     24  C   UNL     1       0.200  12.021  21.368  0.00  0.00    +0.000 C 
ATOM     25  O   UNL     1       0.239  10.643  21.726  0.00  0.00    +0.000 OA
ENDBRANCH  18  25
ENDBRANCH  17  21
ENDBRANCH   1  17
TORSDOF 6
ENDMDL
MODEL 8
REMARK VINA RESULT:      -7.5      1.136      3.840
REMARK  Name = 
REMARK  13 active torsions:
REMARK  status: ('A' for Active; 'I' for Inactive)
REMARK    1  A    between atoms: C_1  and  O_2
REMARK    2  A    between atoms: O_2  and  C_3
REMARK    3  A    between atoms: C_6  and  C_7
REMARK    4  A    between atoms: C_7  and  C_8
REMARK    5  A    between atoms: C_10  and  C_11
REMARK    6  A    between atoms: C_11  and  C_12
REMARK    7  A    between atoms: C_11  and  C_13
REMARK    8  A    between atoms: C_11  and  C_14
REMARK    9  A    between atoms: C_16  and  C_17
REMARK   10  A    between atoms: C_17  and  C_18
REMARK   11  A    between atoms: C_17  and  C_19
REMARK   12  A    between atoms: C_17  and  C_20
REMARK   13  A    between atoms: C_21  and  O_22
REMARK                            x       y       z     vdW  Elec       q    Type
REMARK                         _______ _______ _______ _____ _____    ______ ____
ROOT
ATOM      1  C   UNL     1       3.024   6.530  18.060  0.00  0.00    +0.000 A 
ATOM      2  C   UNL     1       2.614   5.347  18.689  0.00  0.00    +0.000 A 
ATOM      3  C   UNL     1       3.511   4.296  18.927  0.00  0.00    +0.000 A 
ATOM      4  C   UNL     1       4.810   4.428  18.392  0.00  0.00    +0.000 A 
ATOM      5  C   UNL     1       5.288   5.606  17.770  0.00  0.00    +0.000 A 
ATOM      6  C   UNL     1       4.355   6.649  17.638  0.00  0.00    +0.000 A 
ENDROOT
BRANCH   3   7
ATOM      7  C   UNL     1       3.102   3.061  19.753  0.00  0.00    +0.000 C 
ATOM      8  C   UNL     1       4.351   2.237  20.113  0.00  0.00    +0.000 C 
ATOM      9  C   UNL     1       2.371   3.449  21.062  0.00  0.00    +0.000 C 
ATOM     10  C   UNL     1       2.117   2.156  18.974  0.00  0.00    +0.000 C 
ENDBRANCH   3   7
BRANCH   5  11
ATOM     11  C   UNL     1       6.748   5.656  17.255  0.00  0.00    +0.000 C 
ATOM     12  C   UNL     1       7.549   4.562  17.991  0.00  0.00    +0.000 C 
ATOM     13  C   UNL     1       6.893   5.444  15.730  0.00  0.00    +0.000 C 
ATOM     14  C   UNL     1       7.446   7.017  17.532  0.00  0.00    +0.000 C 
ENDBRANCH   5  11
BRANCH   6  15
ATOM     15  O   UNL     1       4.693   7.843  17.064  0.00  0.00    +0.000 OA
ATOM     16  H   UNL     1       4.290   7.825  16.185  0.00  0.00    +0.000 HD
ENDBRANCH   6  15
BRANCH   1  17
ATOM     17  C   UNL     1       2.015   7.638  17.829  0.00  0.00    +0.000 C 
BRANCH  17  21
ATOM     18  C   UNL     1       0.895   9.793  21.421  0.00  0.00    +0.000 A 
ATOM     19  C   UNL     1       1.405   8.498  21.504  0.00  0.00    +0.000 A 
ATOM     20  C   UNL     1       1.768   7.798  20.349  0.00  0.00    +0.000 A 
ATOM     21  C   UNL     1       1.618   8.387  19.085  0.00  0.00    +0.000 A 
ATOM     22  C   UNL     1       1.079   9.679  19.012  0.00  0.00    +0.000 A 
ATOM     23  C   UNL     1       0.715  10.376  20.168  0.00  0.00    +0.000 A 
BRANCH  18  25
ATOM     24  C   UNL     1      -0.777  10.173  23.048  0.00  0.00    +0.000 C 
ATOM     25  O   UNL     1       0.566  10.369  22.616  0.00  0.00    +0.000 OA
ENDBRANCH  18  25
ENDBRANCH  17  21
ENDBRANCH   1  17
TORSDOF 6
ENDMDL
MODEL 9
REMARK VINA RESULT:      -7.4      1.348      3.900
REMARK  Name = 
REMARK  13 active torsions:
REMARK  status: ('A' for Active; 'I' for Inactive)
REMARK    1  A    between atoms: C_1  and  O_2
REMARK    2  A    between atoms: O_2  and  C_3
REMARK    3  A    between atoms: C_6  and  C_7
REMARK    4  A    between atoms: C_7  and  C_8
REMARK    5  A    between atoms: C_10  and  C_11
REMARK    6  A    between atoms: C_11  and  C_12
REMARK    7  A    between atoms: C_11  and  C_13
REMARK    8  A    between atoms: C_11  and  C_14
REMARK    9  A    between atoms: C_16  and  C_17
REMARK   10  A    between atoms: C_17  and  C_18
REMARK   11  A    between atoms: C_17  and  C_19
REMARK   12  A    between atoms: C_17  and  C_20
REMARK   13  A    between atoms: C_21  and  O_22
REMARK                            x       y       z     vdW  Elec       q    Type
REMARK                         _______ _______ _______ _____ _____    ______ ____
ROOT
ATOM      1  C   UNL     1       2.873   6.763  17.944  0.00  0.00    +0.000 A 
ATOM      2  C   UNL     1       2.323   5.548  18.375  0.00  0.00    +0.000 A 
ATOM      3  C   UNL     1       3.104   4.388  18.479  0.00  0.00    +0.000 A 
ATOM      4  C   UNL     1       4.432   4.465  18.010  0.00  0.00    +0.000 A 
ATOM      5  C   UNL     1       5.049   5.666  17.588  0.00  0.00    +0.000 A 
ATOM      6  C   UNL     1       4.227   6.807  17.585  0.00  0.00    +0.000 A 
ENDROOT
BRANCH   3   7
ATOM      7  C   UNL     1       2.541   3.093  19.096  0.00  0.00    +0.000 C 
ATOM      8  C   UNL     1       1.113   2.846  18.578  0.00  0.00    +0.000 C 
ATOM      9  C   UNL     1       3.411   1.857  18.756  0.00  0.00    +0.000 C 
ATOM     10  C   UNL     1       2.503   3.169  20.641  0.00  0.00    +0.000 C 
ENDBRANCH   3   7
BRANCH   5  11
ATOM     11  C   UNL     1       6.529   5.643  17.131  0.00  0.00    +0.000 C 
ATOM     12  C   UNL     1       6.552   5.406  15.607  0.00  0.00    +0.000 C 
ATOM     13  C   UNL     1       7.314   6.938  17.449  0.00  0.00    +0.000 C 
ATOM     14  C   UNL     1       7.354   4.507  17.797  0.00  0.00    +0.000 C 
ENDBRANCH   5  11
BRANCH   6  15
ATOM     15  O   UNL     1       4.704   8.032  17.209  0.00  0.00    +0.000 OA
ATOM     16  H   UNL     1       4.465   8.121  16.275  0.00  0.00    +0.000 HD
ENDBRANCH   6  15
BRANCH   1  17
ATOM     17  C   UNL     1       1.987   7.989  17.851  0.00  0.00    +0.000 C 
BRANCH  17  21
ATOM     18  C   UNL     1       0.870   9.666  21.692  0.00  0.00    +0.000 A 
ATOM     19  C   UNL     1       1.389   8.374  21.608  0.00  0.00    +0.000 A 
ATOM     20  C   UNL     1       1.750   7.828  20.373  0.00  0.00    +0.000 A 
ATOM     21  C   UNL     1       1.591   8.571  19.194  0.00  0.00    +0.000 A 
ATOM     22  C   UNL     1       1.044   9.858  19.287  0.00  0.00    +0.000 A 
ATOM     23  C   UNL     1       0.682  10.401  20.524  0.00  0.00    +0.000 A 
BRANCH  18  25
ATOM     24  C   UNL     1      -0.809  10.492  23.136  0.00  0.00    +0.000 C 
ATOM     25  O   UNL     1       0.544  10.084  22.952  0.00  0.00    +0.000 OA
ENDBRANCH  18  25
ENDBRANCH  17  21
ENDBRANCH   1  17
TORSDOF 6
ENDMDL
