MODEL 1
REMARK VINA RESULT:      -8.5      0.000      0.000
REMARK  Name = 
REMARK  4 active torsions:
REMARK  status: ('A' for Active; 'I' for Inactive)
REMARK    1  A    between atoms: C_2  and  C_4
REMARK    2  A    between atoms: C_12  and  N_13
REMARK    3  A    between atoms: N_13  and  C_14
REMARK    4  A    between atoms: C_21  and  C_22
REMARK                            x       y       z     vdW  Elec       q    Type
REMARK                         _______ _______ _______ _____ _____    ______ ____
ROOT
ATOM      1  N   UNL     1       5.261   3.113  17.965  0.00  0.00    +0.000 N 
ATOM      2  H   UNL     1       5.641   3.035  18.911  0.00  0.00    +0.000 HD
ENDROOT
BRANCH   1   3
ATOM      3  C   UNL     1       3.800   2.872  17.895  0.00  0.00    +0.000 C 
ATOM      4  C   UNL     1       3.039   3.835  16.988  0.00  0.00    +0.000 C 
ATOM      5  C   UNL     1       2.822   5.225  17.580  0.00  0.00    +0.000 C 
ATOM      6  N   UNL     1       2.296   5.206  18.957  0.00  0.00    +0.000 N 
ATOM      7  C   UNL     1       1.992   6.504  19.432  0.00  0.00    +0.000 A 
ATOM      8  C   UNL     1       1.659   6.776  20.761  0.00  0.00    +0.000 A 
ATOM      9  C   UNL     1       1.274   8.069  21.152  0.00  0.00    +0.000 A 
ATOM     10  C   UNL     1       1.212   9.095  20.211  0.00  0.00    +0.000 A 
ATOM     11  C   UNL     1       1.586   8.763  18.925  0.00  0.00    +0.000 A 
ATOM     12  N   UNL     1       1.966   7.522  18.536  0.00  0.00    +0.000 NA
ATOM     13  C   UNL     1       2.884   4.249  19.895  0.00  0.00    +0.000 C 
ATOM     14  C   UNL     1       3.134   2.874  19.274  0.00  0.00    +0.000 C 
BRANCH  10  15
ATOM     15  C   UNL     1       0.735  10.486  20.508  0.00  0.00    +0.000 C 
ATOM     16  F   UNL     1       0.844  10.829  21.821  0.00  0.00    +0.000 F 
ATOM     17  F   UNL     1       1.419  11.434  19.813  0.00  0.00    +0.000 F 
ATOM     18  F   UNL     1      -0.576  10.661  20.185  0.00  0.00    +0.000 F 
ENDBRANCH  10  15
ENDBRANCH   1   3
BRANCH   1  27
ATOM     19  C   UNL     1       6.642   5.176  17.890  0.00  0.00    +0.000 A 
ATOM     20  C   UNL     1       7.424   6.104  17.186  0.00  0.00    +0.000 A 
ATOM     21  N   UNL     1       7.634   6.113  15.864  0.00  0.00    +0.000 NA
ATOM     22  C   UNL     1       6.973   5.136  15.238  0.00  0.00    +0.000 A 
ATOM     23  N   UNL     1       7.054   4.982  13.884  0.00  0.00    +0.000 N 
ATOM     24  C   UNL     1       6.250   3.953  13.496  0.00  0.00    +0.000 A 
ATOM     25  C   UNL     1       5.671   3.431  14.631  0.00  0.00    +0.000 A 
ATOM     26  C   UNL     1       6.140   4.147  15.786  0.00  0.00    +0.000 A 
ATOM     27  C   UNL     1       5.957   4.106  17.212  0.00  0.00    +0.000 A 
ATOM     28  H   UNL     1       7.619   5.572  13.292  0.00  0.00    +0.000 HD
BRANCH  19  30
ATOM     29  N   UNL     1       7.868   5.601  19.961  0.00  0.00    +0.000 N 
ATOM     30  C   UNL     1       6.655   5.449  19.350  0.00  0.00    +0.000 C 
ATOM     31  O   UNL     1       5.626   5.627  19.984  0.00  0.00    +0.000 OA
ATOM     32  H   UNL     1       7.830   6.049  20.867  0.00  0.00    +0.000 HD
ATOM     33  H   UNL     1       8.704   5.685  19.401  0.00  0.00    +0.000 HD
ENDBRANCH  19  30
ENDBRANCH   1  27
TORSDOF 4
ENDMDL
MODEL 2
REMARK VINA RESULT:      -8.1      4.341      6.825
REMARK  Name = 
REMARK  4 active torsions:
REMARK  status: ('A' for Active; 'I' for Inactive)
REMARK    1  A    between atoms: C_2  and  C_4
REMARK    2  A    between atoms: C_12  and  N_13
REMARK    3  A    between atoms: N_13  and  C_14
REMARK    4  A    between atoms: C_21  and  C_22
REMARK                            x       y       z     vdW  Elec       q    Type
REMARK                         _______ _______ _______ _____ _____    ______ ____
ROOT
ATOM      1  N   UNL     1       5.275   5.472  18.849  0.00  0.00    +0.000 N 
ATOM      2  H   UNL     1       5.513   5.421  19.841  0.00  0.00    +0.000 HD
ENDROOT
BRANCH   1   3
ATOM      3  C   UNL     1       6.452   5.377  17.954  0.00  0.00    +0.000 C 
ATOM      4  C   UNL     1       7.798   5.528  18.656  0.00  0.00    +0.000 C 
ATOM      5  C   UNL     1       8.157   6.961  19.040  0.00  0.00    +0.000 C 
ATOM      6  N   UNL     1       7.976   7.930  17.944  0.00  0.00    +0.000 N 
ATOM      7  C   UNL     1       8.429   9.224  18.294  0.00  0.00    +0.000 A 
ATOM      8  C   UNL     1       8.201  10.356  17.507  0.00  0.00    +0.000 A 
ATOM      9  C   UNL     1       8.758  11.596  17.858  0.00  0.00    +0.000 A 
ATOM     10  C   UNL     1       9.555  11.707  18.996  0.00  0.00    +0.000 A 
ATOM     11  C   UNL     1       9.712  10.559  19.743  0.00  0.00    +0.000 A 
ATOM     12  N   UNL     1       9.174   9.357  19.420  0.00  0.00    +0.000 NA
ATOM     13  C   UNL     1       6.762   7.820  17.134  0.00  0.00    +0.000 C 
ATOM     14  C   UNL     1       6.394   6.375  16.794  0.00  0.00    +0.000 C 
BRANCH  10  15
ATOM     15  C   UNL     1      10.263  12.963  19.412  0.00  0.00    +0.000 C 
ATOM     16  F   UNL     1      11.328  13.273  18.622  0.00  0.00    +0.000 F 
ATOM     17  F   UNL     1       9.451  14.053  19.393  0.00  0.00    +0.000 F 
ATOM     18  F   UNL     1      10.751  12.883  20.680  0.00  0.00    +0.000 F 
ENDBRANCH  10  15
ENDBRANCH   1   3
BRANCH   1  27
ATOM     19  C   UNL     1       2.863   5.681  18.286  0.00  0.00    +0.000 A 
ATOM     20  C   UNL     1       1.634   5.111  17.925  0.00  0.00    +0.000 A 
ATOM     21  N   UNL     1       1.378   3.802  17.812  0.00  0.00    +0.000 NA
ATOM     22  C   UNL     1       2.435   3.048  18.125  0.00  0.00    +0.000 A 
ATOM     23  N   UNL     1       2.371   1.685  18.077  0.00  0.00    +0.000 N 
ATOM     24  C   UNL     1       3.558   1.161  18.491  0.00  0.00    +0.000 A 
ATOM     25  C   UNL     1       4.396   2.215  18.781  0.00  0.00    +0.000 A 
ATOM     26  C   UNL     1       3.718   3.457  18.523  0.00  0.00    +0.000 A 
ATOM     27  C   UNL     1       4.009   4.864  18.592  0.00  0.00    +0.000 A 
ATOM     28  H   UNL     1       1.546   1.179  17.793  0.00  0.00    +0.000 HD
BRANCH  19  30
ATOM     29  N   UNL     1       2.170   7.782  19.326  0.00  0.00    +0.000 N 
ATOM     30  C   UNL     1       2.799   7.166  18.281  0.00  0.00    +0.000 C 
ATOM     31  O   UNL     1       3.363   7.834  17.428  0.00  0.00    +0.000 OA
ATOM     32  H   UNL     1       2.386   8.765  19.427  0.00  0.00    +0.000 HD
ATOM     33  H   UNL     1       1.911   7.245  20.141  0.00  0.00    +0.000 HD
ENDBRANCH  19  30
ENDBRANCH   1  27
TORSDOF 4
ENDMDL
MODEL 3
REMARK VINA RESULT:      -7.9      5.035      9.692
REMARK  Name = 
REMARK  4 active torsions:
REMARK  status: ('A' for Active; 'I' for Inactive)
REMARK    1  A    between atoms: C_2  and  C_4
REMARK    2  A    between atoms: C_12  and  N_13
REMARK    3  A    between atoms: N_13  and  C_14
REMARK    4  A    between atoms: C_21  and  C_22
REMARK                            x       y       z     vdW  Elec       q    Type
REMARK                         _______ _______ _______ _____ _____    ______ ____
ROOT
ATOM      1  N   UNL     1      -0.662  10.327  18.901  0.00  0.00    +0.000 N 
ATOM      2  H   UNL     1      -0.808   9.997  17.945  0.00  0.00    +0.000 HD
ENDROOT
BRANCH   1   3
ATOM      3  C   UNL     1       0.767  10.478  19.262  0.00  0.00    +0.000 C 
ATOM      4  C   UNL     1       1.747   9.978  18.204  0.00  0.00    +0.000 C 
ATOM      5  C   UNL     1       1.884   8.459  18.136  0.00  0.00    +0.000 C 
ATOM      6  N   UNL     1       2.093   7.824  19.450  0.00  0.00    +0.000 N 
ATOM      7  C   UNL     1       2.336   6.434  19.339  0.00  0.00    +0.000 A 
ATOM      8  C   UNL     1       2.380   5.573  20.439  0.00  0.00    +0.000 A 
ATOM      9  C   UNL     1       2.720   4.221  20.276  0.00  0.00    +0.000 A 
ATOM     10  C   UNL     1       3.029   3.725  19.011  0.00  0.00    +0.000 A 
ATOM     11  C   UNL     1       2.935   4.622  17.967  0.00  0.00    +0.000 A 
ATOM     12  N   UNL     1       2.600   5.928  18.109  0.00  0.00    +0.000 NA
ATOM     13  C   UNL     1       1.275   8.294  20.568  0.00  0.00    +0.000 C 
ATOM     14  C   UNL     1       1.113   9.814  20.598  0.00  0.00    +0.000 C 
BRANCH  10  15
ATOM     15  C   UNL     1       3.485   2.321  18.741  0.00  0.00    +0.000 C 
ATOM     16  F   UNL     1       2.495   1.396  18.871  0.00  0.00    +0.000 F 
ATOM     17  F   UNL     1       3.985   2.164  17.487  0.00  0.00    +0.000 F 
ATOM     18  F   UNL     1       4.474   1.929  19.589  0.00  0.00    +0.000 F 
ENDBRANCH  10  15
ENDBRANCH   1   3
BRANCH   1  27
ATOM     19  C   UNL     1      -2.885  11.359  18.491  0.00  0.00    +0.000 A 
ATOM     20  C   UNL     1      -3.966  12.150  18.907  0.00  0.00    +0.000 A 
ATOM     21  N   UNL     1      -4.041  12.838  20.053  0.00  0.00    +0.000 NA
ATOM     22  C   UNL     1      -2.928  12.733  20.783  0.00  0.00    +0.000 A 
ATOM     23  N   UNL     1      -2.808  13.369  21.985  0.00  0.00    +0.000 N 
ATOM     24  C   UNL     1      -1.565  13.142  22.496  0.00  0.00    +0.000 A 
ATOM     25  C   UNL     1      -0.898  12.324  21.610  0.00  0.00    +0.000 A 
ATOM     26  C   UNL     1      -1.759  12.007  20.503  0.00  0.00    +0.000 A 
ATOM     27  C   UNL     1      -1.699  11.225  19.298  0.00  0.00    +0.000 A 
ATOM     28  H   UNL     1      -3.541  13.929  22.391  0.00  0.00    +0.000 HD
BRANCH  19  30
ATOM     29  N   UNL     1      -3.393  11.522  16.106  0.00  0.00    +0.000 N 
ATOM     30  C   UNL     1      -3.155  10.713  17.181  0.00  0.00    +0.000 C 
ATOM     31  O   UNL     1      -3.078   9.502  17.029  0.00  0.00    +0.000 OA
ATOM     32  H   UNL     1      -3.295  11.068  15.207  0.00  0.00    +0.000 HD
ATOM     33  H   UNL     1      -3.226  12.515  16.180  0.00  0.00    +0.000 HD
ENDBRANCH  19  30
ENDBRANCH   1  27
TORSDOF 4
ENDMDL
MODEL 4
REMARK VINA RESULT:      -7.6      5.063      9.784
REMARK  Name = 
REMARK  4 active torsions:
REMARK  status: ('A' for Active; 'I' for Inactive)
REMARK    1  A    between atoms: C_2  and  C_4
REMARK    2  A    between atoms: C_12  and  N_13
REMARK    3  A    between atoms: N_13  and  C_14
REMARK    4  A    between atoms: C_21  and  C_22
REMARK                            x       y       z     vdW  Elec       q    Type
REMARK                         _______ _______ _______ _____ _____    ______ ____
ROOT
ATOM      1  N   UNL     1      -0.575  11.293  18.161  0.00  0.00    +0.000 N 
ATOM      2  H   UNL     1      -0.421  11.480  17.168  0.00  0.00    +0.000 HD
ENDROOT
BRANCH   1   3
ATOM      3  C   UNL     1       0.653  11.413  18.981  0.00  0.00    +0.000 C 
ATOM      4  C   UNL     1       1.943  11.048  18.252  0.00  0.00    +0.000 C 
ATOM      5  C   UNL     1       2.165   9.549  18.068  0.00  0.00    +0.000 C 
ATOM      6  N   UNL     1       1.968   8.766  19.302  0.00  0.00    +0.000 N 
ATOM      7  C   UNL     1       2.298   7.401  19.126  0.00  0.00    +0.000 A 
ATOM      8  C   UNL     1       2.024   6.417  20.081  0.00  0.00    +0.000 A 
ATOM      9  C   UNL     1       2.461   5.096  19.892  0.00  0.00    +0.000 A 
ATOM     10  C   UNL     1       3.183   4.755  18.750  0.00  0.00    +0.000 A 
ATOM     11  C   UNL     1       3.389   5.767  17.836  0.00  0.00    +0.000 A 
ATOM     12  N   UNL     1       2.967   7.044  18.002  0.00  0.00    +0.000 NA
ATOM     13  C   UNL     1       0.813   9.095  20.137  0.00  0.00    +0.000 C 
ATOM     14  C   UNL     1       0.580  10.600  20.277  0.00  0.00    +0.000 C 
BRANCH  10  15
ATOM     15  C   UNL     1       3.766   3.396  18.493  0.00  0.00    +0.000 C 
ATOM     16  F   UNL     1       4.995   3.219  19.049  0.00  0.00    +0.000 F 
ATOM     17  F   UNL     1       2.986   2.392  18.976  0.00  0.00    +0.000 F 
ATOM     18  F   UNL     1       3.918   3.144  17.164  0.00  0.00    +0.000 F 
ENDBRANCH  10  15
ENDBRANCH   1   3
BRANCH   1  27
ATOM     19  C   UNL     1      -3.032  11.370  17.799  0.00  0.00    +0.000 A 
ATOM     20  C   UNL     1      -4.326  11.692  18.232  0.00  0.00    +0.000 A 
ATOM     21  N   UNL     1      -4.639  12.334  19.365  0.00  0.00    +0.000 NA
ATOM     22  C   UNL     1      -3.558  12.690  20.062  0.00  0.00    +0.000 A 
ATOM     23  N   UNL     1      -3.669  13.361  21.246  0.00  0.00    +0.000 N 
ATOM     24  C   UNL     1      -2.426  13.649  21.723  0.00  0.00    +0.000 A 
ATOM     25  C   UNL     1      -1.512  13.126  20.834  0.00  0.00    +0.000 A 
ATOM     26  C   UNL     1      -2.205  12.466  19.761  0.00  0.00    +0.000 A 
ATOM     27  C   UNL     1      -1.871  11.730  18.571  0.00  0.00    +0.000 A 
ATOM     28  H   UNL     1      -4.554  13.605  21.663  0.00  0.00    +0.000 HD
BRANCH  19  30
ATOM     29  N   UNL     1      -3.473  11.300  15.396  0.00  0.00    +0.000 N 
ATOM     30  C   UNL     1      -3.057  10.629  16.511  0.00  0.00    +0.000 C 
ATOM     31  O   UNL     1      -2.634   9.486  16.415  0.00  0.00    +0.000 OA
ATOM     32  H   UNL     1      -3.216  10.862  14.521  0.00  0.00    +0.000 HD
ATOM     33  H   UNL     1      -3.599  12.300  15.431  0.00  0.00    +0.000 HD
ENDBRANCH  19  30
ENDBRANCH   1  27
TORSDOF 4
ENDMDL
MODEL 5
REMARK VINA RESULT:      -7.5      5.357     10.007
REMARK  Name = 
REMARK  4 active torsions:
REMARK  status: ('A' for Active; 'I' for Inactive)
REMARK    1  A    between atoms: C_2  and  C_4
REMARK    2  A    between atoms: C_12  and  N_13
REMARK    3  A    between atoms: N_13  and  C_14
REMARK    4  A    between atoms: C_21  and  C_22
REMARK                            x       y       z     vdW  Elec       q    Type
REMARK                         _______ _______ _______ _____ _____    ______ ____
ROOT
ATOM      1  N   UNL     1      -1.560  10.513  18.459  0.00  0.00    +0.000 N 
ATOM      2  H   UNL     1      -1.310  10.125  17.547  0.00  0.00    +0.000 HD
ENDROOT
BRANCH   1   3
ATOM      3  C   UNL     1      -0.389  10.935  19.262  0.00  0.00    +0.000 C 
ATOM      4  C   UNL     1       0.931  10.961  18.498  0.00  0.00    +0.000 C 
ATOM      5  C   UNL     1       1.547   9.586  18.248  0.00  0.00    +0.000 C 
ATOM      6  N   UNL     1       1.604   8.737  19.452  0.00  0.00    +0.000 N 
ATOM      7  C   UNL     1       2.287   7.520  19.215  0.00  0.00    +0.000 A 
ATOM      8  C   UNL     1       2.317   6.467  20.133  0.00  0.00    +0.000 A 
ATOM      9  C   UNL     1       3.091   5.322  19.882  0.00  0.00    +0.000 A 
ATOM     10  C   UNL     1       3.848   5.230  18.716  0.00  0.00    +0.000 A 
ATOM     11  C   UNL     1       3.746   6.292  17.840  0.00  0.00    +0.000 A 
ATOM     12  N   UNL     1       2.997   7.399  18.066  0.00  0.00    +0.000 NA
ATOM     13  C   UNL     1       0.426   8.709  20.319  0.00  0.00    +0.000 C 
ATOM     14  C   UNL     1      -0.203  10.088  20.525  0.00  0.00    +0.000 C 
BRANCH  10  15
ATOM     15  C   UNL     1       4.770   4.092  18.394  0.00  0.00    +0.000 C 
ATOM     16  F   UNL     1       4.303   3.279  17.406  0.00  0.00    +0.000 F 
ATOM     17  F   UNL     1       5.998   4.510  17.987  0.00  0.00    +0.000 F 
ATOM     18  F   UNL     1       4.987   3.285  19.468  0.00  0.00    +0.000 F 
ENDBRANCH  10  15
ENDBRANCH   1   3
BRANCH   1  27
ATOM     19  C   UNL     1      -3.650  11.080  17.241  0.00  0.00    +0.000 A 
ATOM     20  C   UNL     1      -4.918  11.678  17.192  0.00  0.00    +0.000 A 
ATOM     21  N   UNL     1      -5.477  12.414  18.159  0.00  0.00    +0.000 NA
ATOM     22  C   UNL     1      -4.670  12.569  19.212  0.00  0.00    +0.000 A 
ATOM     23  N   UNL     1      -5.059  13.294  20.301  0.00  0.00    +0.000 N 
ATOM     24  C   UNL     1      -4.039  13.340  21.203  0.00  0.00    +0.000 A 
ATOM     25  C   UNL     1      -2.996  12.605  20.683  0.00  0.00    +0.000 A 
ATOM     26  C   UNL     1      -3.377  12.059  19.409  0.00  0.00    +0.000 A 
ATOM     27  C   UNL     1      -2.797  11.224  18.392  0.00  0.00    +0.000 A 
ATOM     28  H   UNL     1      -5.964  13.732  20.381  0.00  0.00    +0.000 HD
BRANCH  19  30
ATOM     29  N   UNL     1      -4.188  10.493  14.930  0.00  0.00    +0.000 N 
ATOM     30  C   UNL     1      -3.363  10.309  16.004  0.00  0.00    +0.000 C 
ATOM     31  O   UNL     1      -2.373   9.600  15.899  0.00  0.00    +0.000 OA
ATOM     32  H   UNL     1      -3.807  10.177  14.047  0.00  0.00    +0.000 HD
ATOM     33  H   UNL     1      -4.860  11.246  14.938  0.00  0.00    +0.000 HD
ENDBRANCH  19  30
ENDBRANCH   1  27
TORSDOF 4
ENDMDL
MODEL 6
REMARK VINA RESULT:      -7.4      5.554      9.818
REMARK  Name = 
REMARK  4 active torsions:
REMARK  status: ('A' for Active; 'I' for Inactive)
REMARK    1  A    between atoms: C_2  and  C_4
REMARK    2  A    between atoms: C_12  and  N_13
REMARK    3  A    between atoms: N_13  and  C_14
REMARK    4  A    between atoms: C_21  and  C_22
REMARK                            x       y       z     vdW  Elec       q    Type
REMARK                         _______ _______ _______ _____ _____    ______ ____
ROOT
ATOM      1  N   UNL     1       0.114  14.469  20.511  0.00  0.00    +0.000 N 
ATOM      2  H   UNL     1      -0.157  14.837  21.425  0.00  0.00    +0.000 HD
ENDROOT
BRANCH   1   3
ATOM      3  C   UNL     1      -0.939  13.646  19.871  0.00  0.00    +0.000 C 
ATOM      4  C   UNL     1      -1.393  12.442  20.691  0.00  0.00    +0.000 C 
ATOM      5  C   UNL     1      -0.418  11.268  20.687  0.00  0.00    +0.000 C 
ATOM      6  N   UNL     1       0.051  10.894  19.341  0.00  0.00    +0.000 N 
ATOM      7  C   UNL     1       0.856   9.730  19.361  0.00  0.00    +0.000 A 
ATOM      8  C   UNL     1       1.575   9.275  18.251  0.00  0.00    +0.000 A 
ATOM      9  C   UNL     1       2.279   8.062  18.303  0.00  0.00    +0.000 A 
ATOM     10  C   UNL     1       2.260   7.291  19.464  0.00  0.00    +0.000 A 
ATOM     11  C   UNL     1       1.559   7.815  20.530  0.00  0.00    +0.000 A 
ATOM     12  N   UNL     1       0.881   8.989  20.496  0.00  0.00    +0.000 NA
ATOM     13  C   UNL     1       0.423  11.974  18.427  0.00  0.00    +0.000 C 
ATOM     14  C   UNL     1      -0.541  13.160  18.473  0.00  0.00    +0.000 C 
BRANCH  10  15
ATOM     15  C   UNL     1       2.908   5.944  19.595  0.00  0.00    +0.000 C 
ATOM     16  F   UNL     1       4.268   5.999  19.637  0.00  0.00    +0.000 F 
ATOM     17  F   UNL     1       2.523   5.285  20.720  0.00  0.00    +0.000 F 
ATOM     18  F   UNL     1       2.601   5.121  18.556  0.00  0.00    +0.000 F 
ENDBRANCH  10  15
ENDBRANCH   1   3
BRANCH   1  27
ATOM     19  C   UNL     1       2.392  15.264  19.918  0.00  0.00    +0.000 A 
ATOM     20  C   UNL     1       3.249  16.080  19.166  0.00  0.00    +0.000 A 
ATOM     21  N   UNL     1       2.872  17.025  18.296  0.00  0.00    +0.000 NA
ATOM     22  C   UNL     1       1.544  17.154  18.229  0.00  0.00    +0.000 A 
ATOM     23  N   UNL     1       0.963  18.071  17.401  0.00  0.00    +0.000 N 
ATOM     24  C   UNL     1      -0.388  18.034  17.562  0.00  0.00    +0.000 A 
ATOM     25  C   UNL     1      -0.667  17.057  18.491  0.00  0.00    +0.000 A 
ATOM     26  C   UNL     1       0.556  16.437  18.923  0.00  0.00    +0.000 A 
ATOM     27  C   UNL     1       0.961  15.387  19.819  0.00  0.00    +0.000 A 
ATOM     28  H   UNL     1       1.489  18.679  16.792  0.00  0.00    +0.000 HD
BRANCH  19  30
ATOM     29  N   UNL     1       4.409  14.661  21.161  0.00  0.00    +0.000 N 
ATOM     30  C   UNL     1       3.152  14.303  20.759  0.00  0.00    +0.000 C 
ATOM     31  O   UNL     1       2.653  13.265  21.166  0.00  0.00    +0.000 OA
ATOM     32  H   UNL     1       4.771  14.124  21.938  0.00  0.00    +0.000 HD
ATOM     33  H   UNL     1       4.728  15.608  21.021  0.00  0.00    +0.000 HD
ENDBRANCH  19  30
ENDBRANCH   1  27
TORSDOF 4
ENDMDL
MODEL 7
REMARK VINA RESULT:      -7.3      6.233     11.621
REMARK  Name = 
REMARK  4 active torsions:
REMARK  status: ('A' for Active; 'I' for Inactive)
REMARK    1  A    between atoms: C_2  and  C_4
REMARK    2  A    between atoms: C_12  and  N_13
REMARK    3  A    between atoms: N_13  and  C_14
REMARK    4  A    between atoms: C_21  and  C_22
REMARK                            x       y       z     vdW  Elec       q    Type
REMARK                         _______ _______ _______ _____ _____    ______ ____
ROOT
ATOM      1  N   UNL     1      -3.310  12.606  19.710  0.00  0.00    +0.000 N 
ATOM      2  H   UNL     1      -3.411  12.663  18.695  0.00  0.00    +0.000 HD
ENDROOT
BRANCH   1   3
ATOM      3  C   UNL     1      -2.009  13.116  20.203  0.00  0.00    +0.000 C 
ATOM      4  C   UNL     1      -0.917  13.205  19.142  0.00  0.00    +0.000 C 
ATOM      5  C   UNL     1      -0.292  11.865  18.760  0.00  0.00    +0.000 C 
ATOM      6  N   UNL     1       0.108  11.049  19.920  0.00  0.00    +0.000 N 
ATOM      7  C   UNL     1       0.791   9.871  19.534  0.00  0.00    +0.000 A 
ATOM      8  C   UNL     1       1.109   8.842  20.425  0.00  0.00    +0.000 A 
ATOM      9  C   UNL     1       1.872   7.741  20.003  0.00  0.00    +0.000 A 
ATOM     10  C   UNL     1       2.329   7.669  18.689  0.00  0.00    +0.000 A 
ATOM     11  C   UNL     1       1.951   8.702  17.856  0.00  0.00    +0.000 A 
ATOM     12  N   UNL     1       1.209   9.767  18.248  0.00  0.00    +0.000 NA
ATOM     13  C   UNL     1      -0.822  10.969  21.048  0.00  0.00    +0.000 C 
ATOM     14  C   UNL     1      -1.470  12.311  21.389  0.00  0.00    +0.000 C 
BRANCH  10  15
ATOM     15  C   UNL     1       3.217   6.581  18.161  0.00  0.00    +0.000 C 
ATOM     16  F   UNL     1       4.069   6.075  19.095  0.00  0.00    +0.000 F 
ATOM     17  F   UNL     1       2.517   5.521  17.677  0.00  0.00    +0.000 F 
ATOM     18  F   UNL     1       4.003   7.010  17.135  0.00  0.00    +0.000 F 
ENDBRANCH  10  15
ENDBRANCH   1   3
BRANCH   1  27
ATOM     19  C   UNL     1      -5.730  12.087  19.932  0.00  0.00    +0.000 A 
ATOM     20  C   UNL     1      -6.948  12.187  20.620  0.00  0.00    +0.000 A 
ATOM     21  N   UNL     1      -7.174  12.924  21.715  0.00  0.00    +0.000 NA
ATOM     22  C   UNL     1      -6.097  13.618  22.092  0.00  0.00    +0.000 A 
ATOM     23  N   UNL     1      -6.130  14.435  23.185  0.00  0.00    +0.000 N 
ATOM     24  C   UNL     1      -4.928  15.061  23.318  0.00  0.00    +0.000 A 
ATOM     25  C   UNL     1      -4.112  14.610  22.304  0.00  0.00    +0.000 A 
ATOM     26  C   UNL     1      -4.821  13.646  21.507  0.00  0.00    +0.000 A 
ATOM     27  C   UNL     1      -4.563  12.814  20.363  0.00  0.00    +0.000 A 
ATOM     28  H   UNL     1      -6.945  14.547  23.769  0.00  0.00    +0.000 HD
BRANCH  19  30
ATOM     29  N   UNL     1      -6.970  10.412  18.655  0.00  0.00    +0.000 N 
ATOM     30  C   UNL     1      -5.829  11.155  18.780  0.00  0.00    +0.000 C 
ATOM     31  O   UNL     1      -4.972  11.108  17.910  0.00  0.00    +0.000 OA
ATOM     32  H   UNL     1      -7.114  10.013  17.737  0.00  0.00    +0.000 HD
ATOM     33  H   UNL     1      -7.768  10.619  19.237  0.00  0.00    +0.000 HD
ENDBRANCH  19  30
ENDBRANCH   1  27
TORSDOF 4
ENDMDL
MODEL 8
REMARK VINA RESULT:      -7.3      6.027     11.070
REMARK  Name = 
REMARK  4 active torsions:
REMARK  status: ('A' for Active; 'I' for Inactive)
REMARK    1  A    between atoms: C_2  and  C_4
REMARK    2  A    between atoms: C_12  and  N_13
REMARK    3  A    between atoms: N_13  and  C_14
REMARK    4  A    between atoms: C_21  and  C_22
REMARK                            x       y       z     vdW  Elec       q    Type
REMARK                         _______ _______ _______ _____ _____    ______ ____
ROOT
ATOM      1  N   UNL     1      -3.402  11.838  19.929  0.00  0.00    +0.000 N 
ATOM      2  H   UNL     1      -3.304  10.843  19.718  0.00  0.00    +0.000 HD
ENDROOT
BRANCH   1   3
ATOM      3  C   UNL     1      -2.114  12.505  20.232  0.00  0.00    +0.000 C 
ATOM      4  C   UNL     1      -1.167  12.632  19.043  0.00  0.00    +0.000 C 
ATOM      5  C   UNL     1      -0.452  11.339  18.660  0.00  0.00    +0.000 C 
ATOM      6  N   UNL     1       0.163  10.643  19.805  0.00  0.00    +0.000 N 
ATOM      7  C   UNL     1       0.918   9.515  19.402  0.00  0.00    +0.000 A 
ATOM      8  C   UNL     1       1.444   8.583  20.301  0.00  0.00    +0.000 A 
ATOM      9  C   UNL     1       2.265   7.538  19.849  0.00  0.00    +0.000 A 
ATOM     10  C   UNL     1       2.573   7.426  18.495  0.00  0.00    +0.000 A 
ATOM     11  C   UNL     1       1.994   8.360  17.660  0.00  0.00    +0.000 A 
ATOM     12  N   UNL     1       1.193   9.369  18.082  0.00  0.00    +0.000 NA
ATOM     13  C   UNL     1      -0.616  10.546  21.039  0.00  0.00    +0.000 C 
ATOM     14  C   UNL     1      -1.359  11.837  21.385  0.00  0.00    +0.000 C 
BRANCH  10  15
ATOM     15  C   UNL     1       3.505   6.399  17.922  0.00  0.00    +0.000 C 
ATOM     16  F   UNL     1       4.459   5.983  18.799  0.00  0.00    +0.000 F 
ATOM     17  F   UNL     1       2.858   5.276  17.509  0.00  0.00    +0.000 F 
ATOM     18  F   UNL     1       4.177   6.863  16.833  0.00  0.00    +0.000 F 
ENDBRANCH  10  15
ENDBRANCH   1   3
BRANCH   1  27
ATOM     19  C   UNL     1      -4.700  11.992  17.816  0.00  0.00    +0.000 A 
ATOM     20  C   UNL     1      -5.795  12.468  17.081  0.00  0.00    +0.000 A 
ATOM     21  N   UNL     1      -6.721  13.331  17.520  0.00  0.00    +0.000 NA
ATOM     22  C   UNL     1      -6.477  13.749  18.764  0.00  0.00    +0.000 A 
ATOM     23  N   UNL     1      -7.305  14.638  19.387  0.00  0.00    +0.000 N 
ATOM     24  C   UNL     1      -6.806  14.937  20.618  0.00  0.00    +0.000 A 
ATOM     25  C   UNL     1      -5.653  14.201  20.786  0.00  0.00    +0.000 A 
ATOM     26  C   UNL     1      -5.424  13.390  19.621  0.00  0.00    +0.000 A 
ATOM     27  C   UNL     1      -4.460  12.423  19.169  0.00  0.00    +0.000 A 
ATOM     28  H   UNL     1      -8.139  15.010  18.960  0.00  0.00    +0.000 HD
BRANCH  19  30
ATOM     29  N   UNL     1      -3.401  11.432  15.822  0.00  0.00    +0.000 N 
ATOM     30  C   UNL     1      -3.896  11.022  17.029  0.00  0.00    +0.000 C 
ATOM     31  O   UNL     1      -3.597   9.922  17.470  0.00  0.00    +0.000 OA
ATOM     32  H   UNL     1      -2.650  10.860  15.459  0.00  0.00    +0.000 HD
ATOM     33  H   UNL     1      -3.450  12.407  15.566  0.00  0.00    +0.000 HD
ENDBRANCH  19  30
ENDBRANCH   1  27
TORSDOF 4
ENDMDL
MODEL 9
REMARK VINA RESULT:      -7.3      5.177      9.220
REMARK  Name = 
REMARK  4 active torsions:
REMARK  status: ('A' for Active; 'I' for Inactive)
REMARK    1  A    between atoms: C_2  and  C_4
REMARK    2  A    between atoms: C_12  and  N_13
REMARK    3  A    between atoms: N_13  and  C_14
REMARK    4  A    between atoms: C_21  and  C_22
REMARK                            x       y       z     vdW  Elec       q    Type
REMARK                         _______ _______ _______ _____ _____    ______ ____
ROOT
ATOM      1  N   UNL     1       1.122  11.873  20.773  0.00  0.00    +0.000 N 
ATOM      2  H   UNL     1       1.238  11.612  21.755  0.00  0.00    +0.000 HD
ENDROOT
BRANCH   1   3
ATOM      3  C   UNL     1       0.168  11.007  20.042  0.00  0.00    +0.000 C 
ATOM      4  C   UNL     1      -0.036   9.625  20.655  0.00  0.00    +0.000 C 
ATOM      5  C   UNL     1       1.107   8.644  20.406  0.00  0.00    +0.000 C 
ATOM      6  N   UNL     1       1.536   8.583  18.997  0.00  0.00    +0.000 N 
ATOM      7  C   UNL     1       2.512   7.581  18.779  0.00  0.00    +0.000 A 
ATOM      8  C   UNL     1       3.214   7.443  17.578  0.00  0.00    +0.000 A 
ATOM      9  C   UNL     1       4.101   6.371  17.388  0.00  0.00    +0.000 A 
ATOM     10  C   UNL     1       4.282   5.425  18.395  0.00  0.00    +0.000 A 
ATOM     11  C   UNL     1       3.582   5.641  19.564  0.00  0.00    +0.000 A 
ATOM     12  N   UNL     1       2.729   6.675  19.764  0.00  0.00    +0.000 NA
ATOM     13  C   UNL     1       1.672   9.847  18.272  0.00  0.00    +0.000 C 
ATOM     14  C   UNL     1       0.540  10.833  18.566  0.00  0.00    +0.000 C 
BRANCH  10  15
ATOM     15  C   UNL     1       5.139   4.201  18.261  0.00  0.00    +0.000 C 
ATOM     16  F   UNL     1       4.911   3.502  17.115  0.00  0.00    +0.000 F 
ATOM     17  F   UNL     1       6.468   4.489  18.268  0.00  0.00    +0.000 F 
ATOM     18  F   UNL     1       4.942   3.320  19.280  0.00  0.00    +0.000 F 
ENDBRANCH  10  15
ENDBRANCH   1   3
BRANCH   1  27
ATOM     19  C   UNL     1       0.482  14.176  21.453  0.00  0.00    +0.000 A 
ATOM     20  C   UNL     1       0.649  15.567  21.382  0.00  0.00    +0.000 A 
ATOM     21  N   UNL     1       1.487  16.217  20.566  0.00  0.00    +0.000 NA
ATOM     22  C   UNL     1       2.157  15.389  19.760  0.00  0.00    +0.000 A 
ATOM     23  N   UNL     1       3.057  15.863  18.849  0.00  0.00    +0.000 N 
ATOM     24  C   UNL     1       3.557  14.825  18.123  0.00  0.00    +0.000 A 
ATOM     25  C   UNL     1       2.980  13.670  18.604  0.00  0.00    +0.000 A 
ATOM     26  C   UNL     1       2.092  13.989  19.689  0.00  0.00    +0.000 A 
ATOM     27  C   UNL     1       1.230  13.287  20.602  0.00  0.00    +0.000 A 
ATOM     28  H   UNL     1       3.278  16.842  18.745  0.00  0.00    +0.000 HD
BRANCH  19  30
ATOM     29  N   UNL     1      -1.614  14.588  22.639  0.00  0.00    +0.000 N 
ATOM     30  C   UNL     1      -0.509  13.798  22.493  0.00  0.00    +0.000 C 
ATOM     31  O   UNL     1      -0.404  12.767  23.141  0.00  0.00    +0.000 OA
ATOM     32  H   UNL     1      -2.377  14.156  23.145  0.00  0.00    +0.000 HD
ATOM     33  H   UNL     1      -1.815  15.300  21.953  0.00  0.00    +0.000 HD
ENDBRANCH  19  30
ENDBRANCH   1  27
TORSDOF 4
ENDMDL
