MODEL 1
REMARK VINA RESULT:      -9.6      0.000      0.000
REMARK  Name = 
REMARK  8 active torsions:
REMARK  status: ('A' for Active; 'I' for Inactive)
REMARK    1  A    between atoms: C_1  and  C_2
REMARK    2  A    between atoms: C_4  and  C_5
REMARK    3  A    between atoms: C_6  and  S_7
REMARK    4  A    between atoms: S_7  and  N_10
REMARK    5  A    between atoms: C_13  and  C_14
REMARK    6  A    between atoms: N_16  and  C_17
REMARK    7  A    between atoms: C_17  and  C_18
REMARK    8  A    between atoms: C_27  and  C_28
REMARK                            x       y       z     vdW  Elec       q    Type
REMARK                         _______ _______ _______ _____ _____    ______ ____
ROOT
ATOM      1  N   UNL     1       5.585   3.985  18.371  0.00  0.00    +0.000 NA
ATOM      2  C   UNL     1       6.357   4.200  17.113  0.00  0.00    +0.000 C 
ATOM      3  C   UNL     1       7.802   4.617  17.378  0.00  0.00    +0.000 C 
ATOM      4  C   UNL     1       7.947   5.790  18.345  0.00  0.00    +0.000 C 
ATOM      5  C   UNL     1       7.168   5.501  19.623  0.00  0.00    +0.000 C 
ATOM      6  C   UNL     1       5.718   5.104  19.358  0.00  0.00    +0.000 C 
ENDROOT
BRANCH   4   7
ATOM      7  C   UNL     1       7.567   7.138  17.727  0.00  0.00    +0.000 C 
ATOM      8  O   UNL     1       6.744   7.251  16.827  0.00  0.00    +0.000 OA
ATOM      9  N   UNL     1       8.231   8.211  18.282  0.00  0.00    +0.000 N 
ATOM     10  H   UNL     1       8.956   8.050  18.967  0.00  0.00    +0.000 HD
BRANCH   9  11
ATOM     11  C   UNL     1       8.079   9.564  17.787  0.00  0.00    +0.000 C 
BRANCH  11  12
ATOM     12  C   UNL     1       9.140  10.467  18.362  0.00  0.00    +0.000 A 
ATOM     13  C   UNL     1       9.977  11.227  17.532  0.00  0.00    +0.000 A 
ATOM     14  C   UNL     1      10.963  12.051  18.084  0.00  0.00    +0.000 A 
ATOM     15  C   UNL     1      11.120  12.112  19.468  0.00  0.00    +0.000 A 
ATOM     16 CL   UNL     1      12.333  13.127  20.146  0.00  0.00    +0.000 Cl
ATOM     17  C   UNL     1      10.303  11.356  20.303  0.00  0.00    +0.000 A 
ATOM     18  C   UNL     1       9.318  10.534  19.752  0.00  0.00    +0.000 A 
ENDBRANCH  11  12
ENDBRANCH   9  11
ENDBRANCH   4   7
BRANCH   1  19
ATOM     19  S   UNL     1       3.886   3.684  18.064  0.00  0.00    +0.000 S 
ATOM     20  O   UNL     1       3.611   2.406  18.681  0.00  0.00    +0.000 OA
ATOM     21  O   UNL     1       3.660   3.854  16.642  0.00  0.00    +0.000 OA
BRANCH  19  27
ATOM     22  C   UNL     1       1.091   8.154  21.227  0.00  0.00    +0.000 C 
ATOM     23  C   UNL     1       1.716   7.046  20.425  0.00  0.00    +0.000 A 
ATOM     24  C   UNL     1       1.682   5.725  20.853  0.00  0.00    +0.000 A 
ATOM     25  C   UNL     1       2.308   4.696  20.112  0.00  0.00    +0.000 A 
ATOM     26  C   UNL     1       2.243   3.308  20.700  0.00  0.00    +0.000 C 
ATOM     27  C   UNL     1       2.986   5.012  18.900  0.00  0.00    +0.000 A 
ATOM     28  C   UNL     1       3.032   6.358  18.461  0.00  0.00    +0.000 A 
ATOM     29  C   UNL     1       3.747   6.935  17.269  0.00  0.00    +0.000 C 
ATOM     30  C   UNL     1       2.377   7.349  19.239  0.00  0.00    +0.000 A 
ENDBRANCH  19  27
ENDBRANCH   1  19
TORSDOF 5
ENDMDL
MODEL 2
REMARK VINA RESULT:      -9.6      0.646      1.923
REMARK  Name = 
REMARK  8 active torsions:
REMARK  status: ('A' for Active; 'I' for Inactive)
REMARK    1  A    between atoms: C_1  and  C_2
REMARK    2  A    between atoms: C_4  and  C_5
REMARK    3  A    between atoms: C_6  and  S_7
REMARK    4  A    between atoms: S_7  and  N_10
REMARK    5  A    between atoms: C_13  and  C_14
REMARK    6  A    between atoms: N_16  and  C_17
REMARK    7  A    between atoms: C_17  and  C_18
REMARK    8  A    between atoms: C_27  and  C_28
REMARK                            x       y       z     vdW  Elec       q    Type
REMARK                         _______ _______ _______ _____ _____    ______ ____
ROOT
ATOM      1  N   UNL     1       5.354   4.107  18.489  0.00  0.00    +0.000 NA
ATOM      2  C   UNL     1       6.016   4.184  17.154  0.00  0.00    +0.000 C 
ATOM      3  C   UNL     1       7.501   4.523  17.257  0.00  0.00    +0.000 C 
ATOM      4  C   UNL     1       7.805   5.749  18.117  0.00  0.00    +0.000 C 
ATOM      5  C   UNL     1       7.133   5.600  19.477  0.00  0.00    +0.000 C 
ATOM      6  C   UNL     1       5.644   5.281  19.374  0.00  0.00    +0.000 C 
ENDROOT
BRANCH   4   7
ATOM      7  C   UNL     1       7.447   7.072  17.435  0.00  0.00    +0.000 C 
ATOM      8  O   UNL     1       6.715   7.142  16.456  0.00  0.00    +0.000 OA
ATOM      9  N   UNL     1       8.020   8.176  18.030  0.00  0.00    +0.000 N 
ATOM     10  H   UNL     1       8.678   8.051  18.787  0.00  0.00    +0.000 HD
BRANCH   9  11
ATOM     11  C   UNL     1       7.877   9.514  17.495  0.00  0.00    +0.000 C 
BRANCH  11  12
ATOM     12  C   UNL     1       8.696  10.499  18.289  0.00  0.00    +0.000 A 
ATOM     13  C   UNL     1       9.287  10.138  19.509  0.00  0.00    +0.000 A 
ATOM     14  C   UNL     1      10.036  11.068  20.236  0.00  0.00    +0.000 A 
ATOM     15  C   UNL     1      10.190  12.366  19.750  0.00  0.00    +0.000 A 
ATOM     16 CL   UNL     1      11.111  13.510  20.646  0.00  0.00    +0.000 Cl
ATOM     17  C   UNL     1       9.601  12.741  18.546  0.00  0.00    +0.000 A 
ATOM     18  C   UNL     1       8.854  11.812  17.820  0.00  0.00    +0.000 A 
ENDBRANCH  11  12
ENDBRANCH   9  11
ENDBRANCH   4   7
BRANCH   1  19
ATOM     19  S   UNL     1       3.619   3.897  18.359  0.00  0.00    +0.000 S 
ATOM     20  O   UNL     1       3.336   2.659  19.047  0.00  0.00    +0.000 OA
ATOM     21  O   UNL     1       3.264   4.033  16.959  0.00  0.00    +0.000 OA
BRANCH  19  27
ATOM     22  C   UNL     1       0.826   8.697  20.997  0.00  0.00    +0.000 C 
ATOM     23  C   UNL     1       1.567   7.543  20.379  0.00  0.00    +0.000 A 
ATOM     24  C   UNL     1       2.231   7.669  19.165  0.00  0.00    +0.000 A 
ATOM     25  C   UNL     1       2.890   6.567  18.571  0.00  0.00    +0.000 A 
ATOM     26  C   UNL     1       3.538   6.813  17.231  0.00  0.00    +0.000 C 
ATOM     27  C   UNL     1       2.880   5.302  19.225  0.00  0.00    +0.000 A 
ATOM     28  C   UNL     1       2.198   5.165  20.459  0.00  0.00    +0.000 A 
ATOM     29  C   UNL     1       1.988   3.924  21.285  0.00  0.00    +0.000 C 
ATOM     30  C   UNL     1       1.562   6.306  21.015  0.00  0.00    +0.000 A 
ENDBRANCH  19  27
ENDBRANCH   1  19
TORSDOF 5
ENDMDL
MODEL 3
REMARK VINA RESULT:      -9.5      0.679      1.052
REMARK  Name = 
REMARK  8 active torsions:
REMARK  status: ('A' for Active; 'I' for Inactive)
REMARK    1  A    between atoms: C_1  and  C_2
REMARK    2  A    between atoms: C_4  and  C_5
REMARK    3  A    between atoms: C_6  and  S_7
REMARK    4  A    between atoms: S_7  and  N_10
REMARK    5  A    between atoms: C_13  and  C_14
REMARK    6  A    between atoms: N_16  and  C_17
REMARK    7  A    between atoms: C_17  and  C_18
REMARK    8  A    between atoms: C_27  and  C_28
REMARK                            x       y       z     vdW  Elec       q    Type
REMARK                         _______ _______ _______ _____ _____    ______ ____
ROOT
ATOM      1  N   UNL     1       5.355   4.131  18.446  0.00  0.00    +0.000 NA
ATOM      2  C   UNL     1       6.114   4.229  17.166  0.00  0.00    +0.000 C 
ATOM      3  C   UNL     1       7.582   4.588  17.385  0.00  0.00    +0.000 C 
ATOM      4  C   UNL     1       7.803   5.809  18.275  0.00  0.00    +0.000 C 
ATOM      5  C   UNL     1       7.032   5.638  19.579  0.00  0.00    +0.000 C 
ATOM      6  C   UNL     1       5.560   5.301  19.361  0.00  0.00    +0.000 C 
ENDROOT
BRANCH   4   7
ATOM      7  C   UNL     1       7.480   7.134  17.580  0.00  0.00    +0.000 C 
ATOM      8  O   UNL     1       6.623   7.240  16.711  0.00  0.00    +0.000 OA
ATOM      9  N   UNL     1       8.236   8.195  18.028  0.00  0.00    +0.000 N 
ATOM     10  H   UNL     1       8.982   8.033  18.691  0.00  0.00    +0.000 HD
BRANCH   9  11
ATOM     11  C   UNL     1       8.147   9.519  17.446  0.00  0.00    +0.000 C 
BRANCH  11  12
ATOM     12  C   UNL     1       8.795  10.543  18.342  0.00  0.00    +0.000 A 
ATOM     13  C   UNL     1       9.274  10.197  19.615  0.00  0.00    +0.000 A 
ATOM     14  C   UNL     1       9.863  11.164  20.437  0.00  0.00    +0.000 A 
ATOM     15  C   UNL     1       9.969  12.481  19.992  0.00  0.00    +0.000 A 
ATOM     16 CL   UNL     1      10.694  13.669  21.003  0.00  0.00    +0.000 Cl
ATOM     17  C   UNL     1       9.489  12.840  18.735  0.00  0.00    +0.000 A 
ATOM     18  C   UNL     1       8.902  11.875  17.915  0.00  0.00    +0.000 A 
ENDBRANCH  11  12
ENDBRANCH   9  11
ENDBRANCH   4   7
BRANCH   1  19
ATOM     19  S   UNL     1       3.637   3.899  18.183  0.00  0.00    +0.000 S 
ATOM     20  O   UNL     1       3.315   2.664  18.860  0.00  0.00    +0.000 OA
ATOM     21  O   UNL     1       3.392   4.017  16.759  0.00  0.00    +0.000 OA
BRANCH  19  27
ATOM     22  C   UNL     1       1.129   8.642  21.184  0.00  0.00    +0.000 C 
ATOM     23  C   UNL     1       1.682   7.468  20.425  0.00  0.00    +0.000 A 
ATOM     24  C   UNL     1       1.635   6.178  20.939  0.00  0.00    +0.000 A 
ATOM     25  C   UNL     1       2.195   5.086  20.237  0.00  0.00    +0.000 A 
ATOM     26  C   UNL     1       2.123   3.741  20.915  0.00  0.00    +0.000 C 
ATOM     27  C   UNL     1       2.818   5.303  18.974  0.00  0.00    +0.000 A 
ATOM     28  C   UNL     1       2.876   6.617  18.447  0.00  0.00    +0.000 A 
ATOM     29  C   UNL     1       3.545   7.096  17.185  0.00  0.00    +0.000 C 
ATOM     30  C   UNL     1       2.289   7.675  19.190  0.00  0.00    +0.000 A 
ENDBRANCH  19  27
ENDBRANCH   1  19
TORSDOF 5
ENDMDL
MODEL 4
REMARK VINA RESULT:      -8.1      6.945      9.949
REMARK  Name = 
REMARK  8 active torsions:
REMARK  status: ('A' for Active; 'I' for Inactive)
REMARK    1  A    between atoms: C_1  and  C_2
REMARK    2  A    between atoms: C_4  and  C_5
REMARK    3  A    between atoms: C_6  and  S_7
REMARK    4  A    between atoms: S_7  and  N_10
REMARK    5  A    between atoms: C_13  and  C_14
REMARK    6  A    between atoms: N_16  and  C_17
REMARK    7  A    between atoms: C_17  and  C_18
REMARK    8  A    between atoms: C_27  and  C_28
REMARK                            x       y       z     vdW  Elec       q    Type
REMARK                         _______ _______ _______ _____ _____    ______ ____
ROOT
ATOM      1  N   UNL     1       0.274  12.291  20.438  0.00  0.00    +0.000 NA
ATOM      2  C   UNL     1       0.157  12.342  18.952  0.00  0.00    +0.000 C 
ATOM      3  C   UNL     1      -0.492  11.087  18.374  0.00  0.00    +0.000 C 
ATOM      4  C   UNL     1       0.137   9.779  18.853  0.00  0.00    +0.000 C 
ATOM      5  C   UNL     1       0.199   9.769  20.376  0.00  0.00    +0.000 C 
ATOM      6  C   UNL     1       0.866  11.014  20.953  0.00  0.00    +0.000 C 
ENDROOT
BRANCH   4   7
ATOM      7  C   UNL     1       1.498   9.490  18.215  0.00  0.00    +0.000 C 
ATOM      8  O   UNL     1       2.093  10.300  17.515  0.00  0.00    +0.000 OA
ATOM      9  N   UNL     1       1.994   8.238  18.508  0.00  0.00    +0.000 N 
ATOM     10  H   UNL     1       1.425   7.583  19.026  0.00  0.00    +0.000 HD
BRANCH   9  11
ATOM     11  C   UNL     1       3.228   7.734  17.939  0.00  0.00    +0.000 C 
BRANCH  11  12
ATOM     12  C   UNL     1       3.240   6.227  17.940  0.00  0.00    +0.000 A 
ATOM     13  C   UNL     1       2.323   5.491  18.706  0.00  0.00    +0.000 A 
ATOM     14  C   UNL     1       2.357   4.093  18.702  0.00  0.00    +0.000 A 
ATOM     15  C   UNL     1       3.313   3.425  17.938  0.00  0.00    +0.000 A 
ATOM     16 CL   UNL     1       3.354   1.705  17.933  0.00  0.00    +0.000 Cl
ATOM     17  C   UNL     1       4.235   4.142  17.181  0.00  0.00    +0.000 A 
ATOM     18  C   UNL     1       4.201   5.538  17.184  0.00  0.00    +0.000 A 
ENDBRANCH  11  12
ENDBRANCH   9  11
ENDBRANCH   4   7
BRANCH   1  19
ATOM     19  S   UNL     1       1.179  13.648  21.080  0.00  0.00    +0.000 S 
ATOM     20  O   UNL     1       2.568  13.272  20.947  0.00  0.00    +0.000 OA
ATOM     21  O   UNL     1       0.644  13.950  22.393  0.00  0.00    +0.000 OA
BRANCH  19  27
ATOM     22  C   UNL     1      -0.101  18.187  17.137  0.00  0.00    +0.000 C 
ATOM     23  C   UNL     1       0.236  17.122  18.144  0.00  0.00    +0.000 A 
ATOM     24  C   UNL     1       1.508  16.567  18.222  0.00  0.00    +0.000 A 
ATOM     25  C   UNL     1       1.804  15.538  19.145  0.00  0.00    +0.000 A 
ATOM     26  C   UNL     1       3.206  14.983  19.108  0.00  0.00    +0.000 C 
ATOM     27  C   UNL     1       0.785  15.056  20.017  0.00  0.00    +0.000 A 
ATOM     28  C   UNL     1      -0.515  15.612  19.937  0.00  0.00    +0.000 A 
ATOM     29  C   UNL     1      -1.756  15.215  20.692  0.00  0.00    +0.000 C 
ATOM     30  C   UNL     1      -0.755  16.651  18.999  0.00  0.00    +0.000 A 
ENDBRANCH  19  27
ENDBRANCH   1  19
TORSDOF 5
ENDMDL
MODEL 5
REMARK VINA RESULT:      -8.0      1.395      2.363
REMARK  Name = 
REMARK  8 active torsions:
REMARK  status: ('A' for Active; 'I' for Inactive)
REMARK    1  A    between atoms: C_1  and  C_2
REMARK    2  A    between atoms: C_4  and  C_5
REMARK    3  A    between atoms: C_6  and  S_7
REMARK    4  A    between atoms: S_7  and  N_10
REMARK    5  A    between atoms: C_13  and  C_14
REMARK    6  A    between atoms: N_16  and  C_17
REMARK    7  A    between atoms: C_17  and  C_18
REMARK    8  A    between atoms: C_27  and  C_28
REMARK                            x       y       z     vdW  Elec       q    Type
REMARK                         _______ _______ _______ _____ _____    ______ ____
ROOT
ATOM      1  N   UNL     1       5.240   4.551  18.089  0.00  0.00    +0.000 NA
ATOM      2  C   UNL     1       6.149   4.636  16.909  0.00  0.00    +0.000 C 
ATOM      3  C   UNL     1       7.602   4.879  17.309  0.00  0.00    +0.000 C 
ATOM      4  C   UNL     1       7.800   6.052  18.269  0.00  0.00    +0.000 C 
ATOM      5  C   UNL     1       6.872   5.894  19.468  0.00  0.00    +0.000 C 
ATOM      6  C   UNL     1       5.417   5.671  19.068  0.00  0.00    +0.000 C 
ENDROOT
BRANCH   4   7
ATOM      7  C   UNL     1       7.652   7.419  17.596  0.00  0.00    +0.000 C 
ATOM      8  O   UNL     1       6.858   7.633  16.688  0.00  0.00    +0.000 OA
ATOM      9  N   UNL     1       8.487   8.385  18.112  0.00  0.00    +0.000 N 
ATOM     10  H   UNL     1       9.176   8.132  18.807  0.00  0.00    +0.000 HD
BRANCH   9  11
ATOM     11  C   UNL     1       8.565   9.724  17.564  0.00  0.00    +0.000 C 
BRANCH  11  12
ATOM     12  C   UNL     1       8.881  10.727  18.644  0.00  0.00    +0.000 A 
ATOM     13  C   UNL     1       8.871  12.106  18.384  0.00  0.00    +0.000 A 
ATOM     14  C   UNL     1       9.176  13.020  19.397  0.00  0.00    +0.000 A 
ATOM     15  C   UNL     1       9.500  12.560  20.672  0.00  0.00    +0.000 A 
ATOM     16 CL   UNL     1       9.876  13.686  21.918  0.00  0.00    +0.000 Cl
ATOM     17  C   UNL     1       9.523  11.194  20.942  0.00  0.00    +0.000 A 
ATOM     18  C   UNL     1       9.218  10.281  19.932  0.00  0.00    +0.000 A 
ENDBRANCH  11  12
ENDBRANCH   9  11
ENDBRANCH   4   7
BRANCH   1  19
ATOM     19  S   UNL     1       3.553   4.452  17.621  0.00  0.00    +0.000 S 
ATOM     20  O   UNL     1       3.518   3.504  16.532  0.00  0.00    +0.000 OA
ATOM     21  O   UNL     1       3.078   5.805  17.406  0.00  0.00    +0.000 OA
BRANCH  19  27
ATOM     22  C   UNL     1       0.930   2.144  22.680  0.00  0.00    +0.000 C 
ATOM     23  C   UNL     1       1.515   2.696  21.409  0.00  0.00    +0.000 A 
ATOM     24  C   UNL     1       2.119   1.873  20.466  0.00  0.00    +0.000 A 
ATOM     25  C   UNL     1       2.703   2.405  19.293  0.00  0.00    +0.000 A 
ATOM     26  C   UNL     1       3.368   1.420  18.365  0.00  0.00    +0.000 C 
ATOM     27  C   UNL     1       2.673   3.811  19.065  0.00  0.00    +0.000 A 
ATOM     28  C   UNL     1       2.067   4.657  20.027  0.00  0.00    +0.000 A 
ATOM     29  C   UNL     1       1.986   6.160  20.040  0.00  0.00    +0.000 C 
ATOM     30  C   UNL     1       1.486   4.068  21.181  0.00  0.00    +0.000 A 
ENDBRANCH  19  27
ENDBRANCH   1  19
TORSDOF 5
ENDMDL
MODEL 6
REMARK VINA RESULT:      -7.8      1.222      2.381
REMARK  Name = 
REMARK  8 active torsions:
REMARK  status: ('A' for Active; 'I' for Inactive)
REMARK    1  A    between atoms: C_1  and  C_2
REMARK    2  A    between atoms: C_4  and  C_5
REMARK    3  A    between atoms: C_6  and  S_7
REMARK    4  A    between atoms: S_7  and  N_10
REMARK    5  A    between atoms: C_13  and  C_14
REMARK    6  A    between atoms: N_16  and  C_17
REMARK    7  A    between atoms: C_17  and  C_18
REMARK    8  A    between atoms: C_27  and  C_28
REMARK                            x       y       z     vdW  Elec       q    Type
REMARK                         _______ _______ _______ _____ _____    ______ ____
ROOT
ATOM      1  N   UNL     1       5.242   4.457  18.157  0.00  0.00    +0.000 NA
ATOM      2  C   UNL     1       6.161   4.338  16.987  0.00  0.00    +0.000 C 
ATOM      3  C   UNL     1       7.625   4.536  17.373  0.00  0.00    +0.000 C 
ATOM      4  C   UNL     1       7.894   5.802  18.184  0.00  0.00    +0.000 C 
ATOM      5  C   UNL     1       6.952   5.853  19.381  0.00  0.00    +0.000 C 
ATOM      6  C   UNL     1       5.487   5.676  18.993  0.00  0.00    +0.000 C 
ENDROOT
BRANCH   4   7
ATOM      7  C   UNL     1       7.837   7.083  17.347  0.00  0.00    +0.000 C 
ATOM      8  O   UNL     1       7.855   7.081  16.122  0.00  0.00    +0.000 OA
ATOM      9  N   UNL     1       7.759   8.235  18.099  0.00  0.00    +0.000 N 
ATOM     10  H   UNL     1       7.828   8.180  19.106  0.00  0.00    +0.000 HD
BRANCH   9  11
ATOM     11  C   UNL     1       7.778   9.557  17.507  0.00  0.00    +0.000 C 
BRANCH  11  12
ATOM     12  C   UNL     1       8.675  10.481  18.290  0.00  0.00    +0.000 A 
ATOM     13  C   UNL     1       9.222  10.093  19.523  0.00  0.00    +0.000 A 
ATOM     14  C   UNL     1      10.044  10.968  20.239  0.00  0.00    +0.000 A 
ATOM     15  C   UNL     1      10.317  12.237  19.730  0.00  0.00    +0.000 A 
ATOM     16 CL   UNL     1      11.329  13.313  20.613  0.00  0.00    +0.000 Cl
ATOM     17  C   UNL     1       9.773  12.639  18.514  0.00  0.00    +0.000 A 
ATOM     18  C   UNL     1       8.953  11.765  17.798  0.00  0.00    +0.000 A 
ENDBRANCH  11  12
ENDBRANCH   9  11
ENDBRANCH   4   7
BRANCH   1  19
ATOM     19  S   UNL     1       3.555   4.410  17.684  0.00  0.00    +0.000 S 
ATOM     20  O   UNL     1       3.496   3.468  16.590  0.00  0.00    +0.000 OA
ATOM     21  O   UNL     1       3.120   5.777  17.473  0.00  0.00    +0.000 OA
BRANCH  19  27
ATOM     22  C   UNL     1       0.851   2.171  22.731  0.00  0.00    +0.000 C 
ATOM     23  C   UNL     1       1.456   2.705  21.462  0.00  0.00    +0.000 A 
ATOM     24  C   UNL     1       2.078   1.870  20.542  0.00  0.00    +0.000 A 
ATOM     25  C   UNL     1       2.681   2.386  19.371  0.00  0.00    +0.000 A 
ATOM     26  C   UNL     1       3.364   1.388  18.469  0.00  0.00    +0.000 C 
ATOM     27  C   UNL     1       2.652   3.788  19.122  0.00  0.00    +0.000 A 
ATOM     28  C   UNL     1       2.027   4.646  20.060  0.00  0.00    +0.000 A 
ATOM     29  C   UNL     1       1.943   6.150  20.049  0.00  0.00    +0.000 C 
ATOM     30  C   UNL     1       1.429   4.073  21.213  0.00  0.00    +0.000 A 
ENDBRANCH  19  27
ENDBRANCH   1  19
TORSDOF 5
ENDMDL
MODEL 7
REMARK VINA RESULT:      -7.7      6.531      9.484
REMARK  Name = 
REMARK  8 active torsions:
REMARK  status: ('A' for Active; 'I' for Inactive)
REMARK    1  A    between atoms: C_1  and  C_2
REMARK    2  A    between atoms: C_4  and  C_5
REMARK    3  A    between atoms: C_6  and  S_7
REMARK    4  A    between atoms: S_7  and  N_10
REMARK    5  A    between atoms: C_13  and  C_14
REMARK    6  A    between atoms: N_16  and  C_17
REMARK    7  A    between atoms: C_17  and  C_18
REMARK    8  A    between atoms: C_27  and  C_28
REMARK                            x       y       z     vdW  Elec       q    Type
REMARK                         _______ _______ _______ _____ _____    ______ ____
ROOT
ATOM      1  N   UNL     1       0.089  12.156  20.106  0.00  0.00    +0.000 NA
ATOM      2  C   UNL     1       1.522  11.974  19.733  0.00  0.00    +0.000 C 
ATOM      3  C   UNL     1       1.690  11.270  18.389  0.00  0.00    +0.000 C 
ATOM      4  C   UNL     1       0.897   9.971  18.259  0.00  0.00    +0.000 C 
ATOM      5  C   UNL     1      -0.562  10.224  18.619  0.00  0.00    +0.000 C 
ATOM      6  C   UNL     1      -0.731  10.909  19.972  0.00  0.00    +0.000 C 
ENDROOT
BRANCH   4   7
ATOM      7  C   UNL     1       1.498   8.810  19.055  0.00  0.00    +0.000 C 
ATOM      8  O   UNL     1       1.441   8.738  20.277  0.00  0.00    +0.000 OA
ATOM      9  N   UNL     1       2.102   7.852  18.270  0.00  0.00    +0.000 N 
ATOM     10  H   UNL     1       2.188   8.003  17.274  0.00  0.00    +0.000 HD
BRANCH   9  11
ATOM     11  C   UNL     1       2.804   6.713  18.828  0.00  0.00    +0.000 C 
BRANCH  11  12
ATOM     12  C   UNL     1       3.686   6.067  17.791  0.00  0.00    +0.000 A 
ATOM     13  C   UNL     1       4.497   6.837  16.942  0.00  0.00    +0.000 A 
ATOM     14  C   UNL     1       5.301   6.220  15.980  0.00  0.00    +0.000 A 
ATOM     15  C   UNL     1       5.293   4.831  15.856  0.00  0.00    +0.000 A 
ATOM     16 CL   UNL     1       6.283   4.073  14.670  0.00  0.00    +0.000 Cl
ATOM     17  C   UNL     1       4.486   4.056  16.684  0.00  0.00    +0.000 A 
ATOM     18  C   UNL     1       3.684   4.672  17.645  0.00  0.00    +0.000 A 
ENDBRANCH  11  12
ENDBRANCH   9  11
ENDBRANCH   4   7
BRANCH   1  19
ATOM     19  S   UNL     1      -0.099  12.799  21.726  0.00  0.00    +0.000 S 
ATOM     20  O   UNL     1       0.998  13.724  21.895  0.00  0.00    +0.000 OA
ATOM     21  O   UNL     1      -0.231  11.674  22.632  0.00  0.00    +0.000 OA
BRANCH  19  27
ATOM     22  C   UNL     1      -5.542  15.633  21.362  0.00  0.00    +0.000 C 
ATOM     23  C   UNL     1      -4.192  14.986  21.495  0.00  0.00    +0.000 A 
ATOM     24  C   UNL     1      -3.100  15.415  20.750  0.00  0.00    +0.000 A 
ATOM     25  C   UNL     1      -1.843  14.774  20.852  0.00  0.00    +0.000 A 
ATOM     26  C   UNL     1      -0.745  15.300  19.962  0.00  0.00    +0.000 C 
ATOM     27  C   UNL     1      -1.685  13.668  21.736  0.00  0.00    +0.000 A 
ATOM     28  C   UNL     1      -2.796  13.220  22.492  0.00  0.00    +0.000 A 
ATOM     29  C   UNL     1      -2.887  12.038  23.420  0.00  0.00    +0.000 C 
ATOM     30  C   UNL     1      -4.031  13.907  22.359  0.00  0.00    +0.000 A 
ENDBRANCH  19  27
ENDBRANCH   1  19
TORSDOF 5
ENDMDL
MODEL 8
REMARK VINA RESULT:      -7.6      7.059     10.183
REMARK  Name = 
REMARK  8 active torsions:
REMARK  status: ('A' for Active; 'I' for Inactive)
REMARK    1  A    between atoms: C_1  and  C_2
REMARK    2  A    between atoms: C_4  and  C_5
REMARK    3  A    between atoms: C_6  and  S_7
REMARK    4  A    between atoms: S_7  and  N_10
REMARK    5  A    between atoms: C_13  and  C_14
REMARK    6  A    between atoms: N_16  and  C_17
REMARK    7  A    between atoms: C_17  and  C_18
REMARK    8  A    between atoms: C_27  and  C_28
REMARK                            x       y       z     vdW  Elec       q    Type
REMARK                         _______ _______ _______ _____ _____    ______ ____
ROOT
ATOM      1  N   UNL     1       0.503  12.597  20.205  0.00  0.00    +0.000 NA
ATOM      2  C   UNL     1       0.745  11.987  18.865  0.00  0.00    +0.000 C 
ATOM      3  C   UNL     1      -0.140  10.769  18.610  0.00  0.00    +0.000 C 
ATOM      4  C   UNL     1      -0.108   9.727  19.726  0.00  0.00    +0.000 C 
ATOM      5  C   UNL     1      -0.395  10.400  21.063  0.00  0.00    +0.000 C 
ATOM      6  C   UNL     1       0.503  11.604  21.328  0.00  0.00    +0.000 C 
ENDROOT
BRANCH   4   7
ATOM      7  C   UNL     1       1.184   8.906  19.755  0.00  0.00    +0.000 C 
ATOM      8  O   UNL     1       1.738   8.571  20.794  0.00  0.00    +0.000 OA
ATOM      9  N   UNL     1       1.660   8.576  18.504  0.00  0.00    +0.000 N 
ATOM     10  H   UNL     1       1.205   8.947  17.682  0.00  0.00    +0.000 HD
BRANCH   9  11
ATOM     11  C   UNL     1       2.912   7.874  18.306  0.00  0.00    +0.000 C 
BRANCH  11  12
ATOM     12  C   UNL     1       2.739   6.395  18.539  0.00  0.00    +0.000 A 
ATOM     13  C   UNL     1       3.507   5.714  19.496  0.00  0.00    +0.000 A 
ATOM     14  C   UNL     1       3.339   4.339  19.691  0.00  0.00    +0.000 A 
ATOM     15  C   UNL     1       2.408   3.639  18.925  0.00  0.00    +0.000 A 
ATOM     16 CL   UNL     1       2.202   1.948  19.166  0.00  0.00    +0.000 Cl
ATOM     17  C   UNL     1       1.646   4.300  17.966  0.00  0.00    +0.000 A 
ATOM     18  C   UNL     1       1.813   5.672  17.771  0.00  0.00    +0.000 A 
ENDBRANCH  11  12
ENDBRANCH   9  11
ENDBRANCH   4   7
BRANCH   1  19
ATOM     19  S   UNL     1       1.642  13.879  20.567  0.00  0.00    +0.000 S 
ATOM     20  O   UNL     1       2.914  13.404  20.074  0.00  0.00    +0.000 OA
ATOM     21  O   UNL     1       1.499  14.210  21.971  0.00  0.00    +0.000 OA
BRANCH  19  27
ATOM     22  C   UNL     1      -0.169  18.571  17.031  0.00  0.00    +0.000 C 
ATOM     23  C   UNL     1       0.292  17.468  17.943  0.00  0.00    +0.000 A 
ATOM     24  C   UNL     1       1.622  17.069  17.992  0.00  0.00    +0.000 A 
ATOM     25  C   UNL     1       2.038  16.002  18.823  0.00  0.00    +0.000 A 
ATOM     26  C   UNL     1       3.499  15.631  18.759  0.00  0.00    +0.000 C 
ATOM     27  C   UNL     1       1.082  15.321  19.630  0.00  0.00    +0.000 A 
ATOM     28  C   UNL     1      -0.277  15.717  19.577  0.00  0.00    +0.000 A 
ATOM     29  C   UNL     1      -1.463  15.102  20.271  0.00  0.00    +0.000 C 
ATOM     30  C   UNL     1      -0.638  16.800  18.734  0.00  0.00    +0.000 A 
ENDBRANCH  19  27
ENDBRANCH   1  19
TORSDOF 5
ENDMDL
MODEL 9
REMARK VINA RESULT:      -7.6      6.566      9.371
REMARK  Name = 
REMARK  8 active torsions:
REMARK  status: ('A' for Active; 'I' for Inactive)
REMARK    1  A    between atoms: C_1  and  C_2
REMARK    2  A    between atoms: C_4  and  C_5
REMARK    3  A    between atoms: C_6  and  S_7
REMARK    4  A    between atoms: S_7  and  N_10
REMARK    5  A    between atoms: C_13  and  C_14
REMARK    6  A    between atoms: N_16  and  C_17
REMARK    7  A    between atoms: C_17  and  C_18
REMARK    8  A    between atoms: C_27  and  C_28
REMARK                            x       y       z     vdW  Elec       q    Type
REMARK                         _______ _______ _______ _____ _____    ______ ____
ROOT
ATOM      1  N   UNL     1       0.097  12.161  20.037  0.00  0.00    +0.000 NA
ATOM      2  C   UNL     1       1.546  11.974  19.734  0.00  0.00    +0.000 C 
ATOM      3  C   UNL     1       1.778  11.291  18.388  0.00  0.00    +0.000 C 
ATOM      4  C   UNL     1       0.982  10.001  18.195  0.00  0.00    +0.000 C 
ATOM      5  C   UNL     1      -0.492  10.260  18.484  0.00  0.00    +0.000 C 
ATOM      6  C   UNL     1      -0.725  10.924  19.838  0.00  0.00    +0.000 C 
ENDROOT
BRANCH   4   7
ATOM      7  C   UNL     1       1.533   8.822  19.001  0.00  0.00    +0.000 C 
ATOM      8  O   UNL     1       1.401   8.723  20.214  0.00  0.00    +0.000 OA
ATOM      9  N   UNL     1       2.183   7.880  18.233  0.00  0.00    +0.000 N 
ATOM     10  H   UNL     1       2.331   8.053  17.248  0.00  0.00    +0.000 HD
BRANCH   9  11
ATOM     11  C   UNL     1       2.849   6.728  18.807  0.00  0.00    +0.000 C 
BRANCH  11  12
ATOM     12  C   UNL     1       3.698   6.032  17.776  0.00  0.00    +0.000 A 
ATOM     13  C   UNL     1       4.521   6.756  16.900  0.00  0.00    +0.000 A 
ATOM     14  C   UNL     1       5.295   6.092  15.943  0.00  0.00    +0.000 A 
ATOM     15  C   UNL     1       5.244   4.702  15.853  0.00  0.00    +0.000 A 
ATOM     16 CL   UNL     1       6.197   3.886  14.676  0.00  0.00    +0.000 Cl
ATOM     17  C   UNL     1       4.425   3.971  16.709  0.00  0.00    +0.000 A 
ATOM     18  C   UNL     1       3.653   4.634  17.665  0.00  0.00    +0.000 A 
ENDBRANCH  11  12
ENDBRANCH   9  11
ENDBRANCH   4   7
BRANCH   1  19
ATOM     19  S   UNL     1      -0.169  12.778  21.656  0.00  0.00    +0.000 S 
ATOM     20  O   UNL     1       0.912  13.708  21.887  0.00  0.00    +0.000 OA
ATOM     21  O   UNL     1      -0.332  11.639  22.538  0.00  0.00    +0.000 OA
BRANCH  19  27
ATOM     22  C   UNL     1      -5.518  15.799  21.888  0.00  0.00    +0.000 C 
ATOM     23  C   UNL     1      -4.237  15.019  21.786  0.00  0.00    +0.000 A 
ATOM     24  C   UNL     1      -4.023  13.865  22.531  0.00  0.00    +0.000 A 
ATOM     25  C   UNL     1      -2.798  13.161  22.459  0.00  0.00    +0.000 A 
ATOM     26  C   UNL     1      -2.666  11.949  23.346  0.00  0.00    +0.000 C 
ATOM     27  C   UNL     1      -1.760  13.635  21.607  0.00  0.00    +0.000 A 
ATOM     28  C   UNL     1      -1.968  14.816  20.851  0.00  0.00    +0.000 A 
ATOM     29  C   UNL     1      -1.001  15.541  19.954  0.00  0.00    +0.000 C 
ATOM     30  C   UNL     1      -3.220  15.477  20.953  0.00  0.00    +0.000 A 
ENDBRANCH  19  27
ENDBRANCH   1  19
TORSDOF 5
ENDMDL
