MODEL 1
REMARK VINA RESULT:      -8.5      0.000      0.000
REMARK  Name = 
REMARK  9 active torsions:
REMARK  status: ('A' for Active; 'I' for Inactive)
REMARK    1  A    between atoms: C_1  and  C_2
REMARK    2  A    between atoms: C_2  and  C_20
REMARK    3  A    between atoms: N_3  and  N_4
REMARK    4  A    between atoms: C_5  and  C_7
REMARK    5  A    between atoms: C_9  and  C_10
REMARK    6  A    between atoms: C_13  and  C_14
REMARK    7  A    between atoms: C_14  and  C_15
REMARK    8  A    between atoms: C_14  and  C_16
REMARK    9  A    between atoms: C_14  and  C_17
REMARK                            x       y       z     vdW  Elec       q    Type
REMARK                         _______ _______ _______ _____ _____    ______ ____
ROOT
ATOM      1  N   UNL     1       8.598   8.734  18.875  0.00  0.00    +0.000 N 
ATOM      2  C   UNL     1       8.017   7.848  17.982  0.00  0.00    +0.000 C 
ATOM      3  O   UNL     1       7.991   7.975  16.763  0.00  0.00    +0.000 OA
ATOM      4  H   UNL     1       8.555   8.540  19.864  0.00  0.00    +0.000 HD
ENDROOT
BRANCH   1   7
ATOM      5  C   UNL     1       9.322  10.845  20.707  0.00  0.00    +0.000 C 
ATOM      6  C   UNL     1       9.544  10.833  19.207  0.00  0.00    +0.000 C 
ATOM      7  N   UNL     1       9.202   9.863  18.408  0.00  0.00    +0.000 NA
BRANCH   6   8
ATOM      8  C   UNL     1      10.213  12.046  18.604  0.00  0.00    +0.000 A 
ATOM      9  C   UNL     1       9.668  13.335  18.739  0.00  0.00    +0.000 A 
ATOM     10  C   UNL     1      10.300  14.438  18.155  0.00  0.00    +0.000 A 
ATOM     11  C   UNL     1      11.478  14.259  17.439  0.00  0.00    +0.000 A 
ATOM     12  F   UNL     1      12.076  15.317  16.880  0.00  0.00    +0.000 F 
ATOM     13  C   UNL     1      12.038  12.994  17.299  0.00  0.00    +0.000 A 
ATOM     14  C   UNL     1      11.406  11.890  17.880  0.00  0.00    +0.000 A 
ENDBRANCH   6   8
ENDBRANCH   1   7
BRANCH   2  15
ATOM     15  C   UNL     1       7.363   6.665  18.633  0.00  0.00    +0.000 C 
ATOM     16  C   UNL     1       7.824   5.276  18.263  0.00  0.00    +0.000 C 
ATOM     17  C   UNL     1       6.473   5.765  17.792  0.00  0.00    +0.000 C 
BRANCH  17  18
ATOM     18  C   UNL     1       5.242   5.068  18.327  0.00  0.00    +0.000 A 
ATOM     19  C   UNL     1       5.281   3.809  18.937  0.00  0.00    +0.000 A 
ATOM     20  C   UNL     1       4.131   3.227  19.497  0.00  0.00    +0.000 A 
ATOM     21  C   UNL     1       2.888   3.880  19.480  0.00  0.00    +0.000 A 
ATOM     22  C   UNL     1       2.846   5.133  18.846  0.00  0.00    +0.000 A 
ATOM     23  C   UNL     1       3.996   5.710  18.290  0.00  0.00    +0.000 A 
BRANCH  21  24
ATOM     24  C   UNL     1       1.626   3.306  20.150  0.00  0.00    +0.000 C 
ATOM     25  C   UNL     1       1.919   2.576  21.480  0.00  0.00    +0.000 C 
ATOM     26  C   UNL     1       0.635   4.449  20.463  0.00  0.00    +0.000 C 
ATOM     27  C   UNL     1       0.924   2.293  19.218  0.00  0.00    +0.000 C 
ENDBRANCH  21  24
ENDBRANCH  17  18
ENDBRANCH   2  15
TORSDOF 5
ENDMDL
MODEL 2
REMARK VINA RESULT:      -8.5      0.408      1.349
REMARK  Name = 
REMARK  9 active torsions:
REMARK  status: ('A' for Active; 'I' for Inactive)
REMARK    1  A    between atoms: C_1  and  C_2
REMARK    2  A    between atoms: C_2  and  C_20
REMARK    3  A    between atoms: N_3  and  N_4
REMARK    4  A    between atoms: C_5  and  C_7
REMARK    5  A    between atoms: C_9  and  C_10
REMARK    6  A    between atoms: C_13  and  C_14
REMARK    7  A    between atoms: C_14  and  C_15
REMARK    8  A    between atoms: C_14  and  C_16
REMARK    9  A    between atoms: C_14  and  C_17
REMARK                            x       y       z     vdW  Elec       q    Type
REMARK                         _______ _______ _______ _____ _____    ______ ____
ROOT
ATOM      1  N   UNL     1       8.165   8.742  18.603  0.00  0.00    +0.000 N 
ATOM      2  C   UNL     1       7.966   7.648  17.777  0.00  0.00    +0.000 C 
ATOM      3  O   UNL     1       8.275   7.580  16.592  0.00  0.00    +0.000 OA
ATOM      4  H   UNL     1       7.864   8.698  19.564  0.00  0.00    +0.000 HD
ENDROOT
BRANCH   1   7
ATOM      5  C   UNL     1       9.417  10.634  20.389  0.00  0.00    +0.000 C 
ATOM      6  C   UNL     1       9.324  10.740  18.880  0.00  0.00    +0.000 C 
ATOM      7  N   UNL     1       8.749   9.868  18.103  0.00  0.00    +0.000 NA
BRANCH   6   8
ATOM      8  C   UNL     1       9.948  11.958  18.238  0.00  0.00    +0.000 A 
ATOM      9  C   UNL     1      11.149  11.878  17.514  0.00  0.00    +0.000 A 
ATOM     10  C   UNL     1      11.713  13.025  16.945  0.00  0.00    +0.000 A 
ATOM     11  C   UNL     1      11.079  14.252  17.095  0.00  0.00    +0.000 A 
ATOM     12  F   UNL     1      11.626  15.347  16.552  0.00  0.00    +0.000 F 
ATOM     13  C   UNL     1       9.886  14.353  17.802  0.00  0.00    +0.000 A 
ATOM     14  C   UNL     1       9.322  13.207  18.373  0.00  0.00    +0.000 A 
ENDBRANCH   6   8
ENDBRANCH   1   7
BRANCH   2  15
ATOM     15  C   UNL     1       7.288   6.490  18.449  0.00  0.00    +0.000 C 
ATOM     16  C   UNL     1       7.718   5.085  18.101  0.00  0.00    +0.000 C 
ATOM     17  C   UNL     1       6.377   5.596  17.626  0.00  0.00    +0.000 C 
BRANCH  17  18
ATOM     18  C   UNL     1       5.132   4.934  18.176  0.00  0.00    +0.000 A 
ATOM     19  C   UNL     1       5.170   3.855  19.065  0.00  0.00    +0.000 A 
ATOM     20  C   UNL     1       3.997   3.318  19.621  0.00  0.00    +0.000 A 
ATOM     21  C   UNL     1       2.729   3.840  19.319  0.00  0.00    +0.000 A 
ATOM     22  C   UNL     1       2.691   4.909  18.407  0.00  0.00    +0.000 A 
ATOM     23  C   UNL     1       3.864   5.441  17.856  0.00  0.00    +0.000 A 
BRANCH  21  24
ATOM     24  C   UNL     1       1.430   3.326  19.967  0.00  0.00    +0.000 C 
ATOM     25  C   UNL     1       0.590   2.433  19.026  0.00  0.00    +0.000 C 
ATOM     26  C   UNL     1       1.768   2.483  21.217  0.00  0.00    +0.000 C 
ATOM     27  C   UNL     1       0.530   4.505  20.401  0.00  0.00    +0.000 C 
ENDBRANCH  21  24
ENDBRANCH  17  18
ENDBRANCH   2  15
TORSDOF 5
ENDMDL
MODEL 3
REMARK VINA RESULT:      -8.2      0.368      1.299
REMARK  Name = 
REMARK  9 active torsions:
REMARK  status: ('A' for Active; 'I' for Inactive)
REMARK    1  A    between atoms: C_1  and  C_2
REMARK    2  A    between atoms: C_2  and  C_20
REMARK    3  A    between atoms: N_3  and  N_4
REMARK    4  A    between atoms: C_5  and  C_7
REMARK    5  A    between atoms: C_9  and  C_10
REMARK    6  A    between atoms: C_13  and  C_14
REMARK    7  A    between atoms: C_14  and  C_15
REMARK    8  A    between atoms: C_14  and  C_16
REMARK    9  A    between atoms: C_14  and  C_17
REMARK                            x       y       z     vdW  Elec       q    Type
REMARK                         _______ _______ _______ _____ _____    ______ ____
ROOT
ATOM      1  N   UNL     1       8.292   9.002  18.670  0.00  0.00    +0.000 N 
ATOM      2  C   UNL     1       8.064   7.932  17.820  0.00  0.00    +0.000 C 
ATOM      3  O   UNL     1       8.322   7.902  16.622  0.00  0.00    +0.000 OA
ATOM      4  H   UNL     1       8.033   8.927  19.642  0.00  0.00    +0.000 HD
ENDROOT
BRANCH   1   7
ATOM      5  C   UNL     1       9.492  10.912  20.473  0.00  0.00    +0.000 C 
ATOM      6  C   UNL     1       9.398  11.027  18.964  0.00  0.00    +0.000 C 
ATOM      7  N   UNL     1       8.847  10.146  18.179  0.00  0.00    +0.000 NA
BRANCH   6   8
ATOM      8  C   UNL     1       9.992  12.266  18.334  0.00  0.00    +0.000 A 
ATOM      9  C   UNL     1       9.397  13.530  18.483  0.00  0.00    +0.000 A 
ATOM     10  C   UNL     1       9.960  14.656  17.874  0.00  0.00    +0.000 A 
ATOM     11  C   UNL     1      11.118  14.525  17.118  0.00  0.00    +0.000 A 
ATOM     12  F   UNL     1      11.650  15.606  16.535  0.00  0.00    +0.000 F 
ATOM     13  C   UNL     1      11.727  13.285  16.962  0.00  0.00    +0.000 A 
ATOM     14  C   UNL     1      11.165  12.157  17.569  0.00  0.00    +0.000 A 
ENDBRANCH   6   8
ENDBRANCH   1   7
BRANCH   2  15
ATOM     15  C   UNL     1       7.423   6.749  18.486  0.00  0.00    +0.000 C 
ATOM     16  C   UNL     1       7.706   5.365  17.954  0.00  0.00    +0.000 C 
ATOM     17  C   UNL     1       6.344   5.984  17.738  0.00  0.00    +0.000 C 
BRANCH  17  18
ATOM     18  C   UNL     1       5.156   5.335  18.414  0.00  0.00    +0.000 A 
ATOM     19  C   UNL     1       3.885   5.919  18.450  0.00  0.00    +0.000 A 
ATOM     20  C   UNL     1       2.784   5.251  19.013  0.00  0.00    +0.000 A 
ATOM     21  C   UNL     1       2.901   3.963  19.562  0.00  0.00    +0.000 A 
ATOM     22  C   UNL     1       4.184   3.389  19.546  0.00  0.00    +0.000 A 
ATOM     23  C   UNL     1       5.278   4.059  18.982  0.00  0.00    +0.000 A 
BRANCH  21  24
ATOM     24  C   UNL     1       1.703   3.173  20.118  0.00  0.00    +0.000 C 
ATOM     25  C   UNL     1       1.208   2.063  19.164  0.00  0.00    +0.000 C 
ATOM     26  C   UNL     1       2.099   2.492  21.448  0.00  0.00    +0.000 C 
ATOM     27  C   UNL     1       0.505   4.111  20.388  0.00  0.00    +0.000 C 
ENDBRANCH  21  24
ENDBRANCH  17  18
ENDBRANCH   2  15
TORSDOF 5
ENDMDL
MODEL 4
REMARK VINA RESULT:      -8.2      0.791      1.605
REMARK  Name = 
REMARK  9 active torsions:
REMARK  status: ('A' for Active; 'I' for Inactive)
REMARK    1  A    between atoms: C_1  and  C_2
REMARK    2  A    between atoms: C_2  and  C_20
REMARK    3  A    between atoms: N_3  and  N_4
REMARK    4  A    between atoms: C_5  and  C_7
REMARK    5  A    between atoms: C_9  and  C_10
REMARK    6  A    between atoms: C_13  and  C_14
REMARK    7  A    between atoms: C_14  and  C_15
REMARK    8  A    between atoms: C_14  and  C_16
REMARK    9  A    between atoms: C_14  and  C_17
REMARK                            x       y       z     vdW  Elec       q    Type
REMARK                         _______ _______ _______ _____ _____    ______ ____
ROOT
ATOM      1  N   UNL     1       8.928   8.819  18.968  0.00  0.00    +0.000 N 
ATOM      2  C   UNL     1       8.148   8.166  18.028  0.00  0.00    +0.000 C 
ATOM      3  O   UNL     1       7.917   8.561  16.890  0.00  0.00    +0.000 OA
ATOM      4  H   UNL     1       9.047   8.411  19.882  0.00  0.00    +0.000 HD
ENDROOT
BRANCH   1   7
ATOM      5  C   UNL     1       9.196  10.872  20.980  0.00  0.00    +0.000 C 
ATOM      6  C   UNL     1       9.647  10.957  19.535  0.00  0.00    +0.000 C 
ATOM      7  N   UNL     1       9.509  10.011  18.652  0.00  0.00    +0.000 NA
BRANCH   6   8
ATOM      8  C   UNL     1      10.306  12.245  19.098  0.00  0.00    +0.000 A 
ATOM      9  C   UNL     1      10.322  12.648  17.752  0.00  0.00    +0.000 A 
ATOM     10  C   UNL     1      10.953  13.837  17.373  0.00  0.00    +0.000 A 
ATOM     11  C   UNL     1      11.567  14.629  18.336  0.00  0.00    +0.000 A 
ATOM     12  F   UNL     1      12.173  15.764  17.968  0.00  0.00    +0.000 F 
ATOM     13  C   UNL     1      11.557  14.253  19.675  0.00  0.00    +0.000 A 
ATOM     14  C   UNL     1      10.928  13.063  20.055  0.00  0.00    +0.000 A 
ENDBRANCH   6   8
ENDBRANCH   1   7
BRANCH   2  15
ATOM     15  C   UNL     1       7.548   6.881  18.518  0.00  0.00    +0.000 C 
ATOM     16  C   UNL     1       7.679   5.638  17.671  0.00  0.00    +0.000 C 
ATOM     17  C   UNL     1       6.335   6.317  17.798  0.00  0.00    +0.000 C 
BRANCH  17  18
ATOM     18  C   UNL     1       5.223   5.562  18.493  0.00  0.00    +0.000 A 
ATOM     19  C   UNL     1       3.962   6.116  18.740  0.00  0.00    +0.000 A 
ATOM     20  C   UNL     1       2.926   5.359  19.313  0.00  0.00    +0.000 A 
ATOM     21  C   UNL     1       3.099   4.009  19.660  0.00  0.00    +0.000 A 
ATOM     22  C   UNL     1       4.374   3.462  19.433  0.00  0.00    +0.000 A 
ATOM     23  C   UNL     1       5.404   4.221  18.861  0.00  0.00    +0.000 A 
BRANCH  21  24
ATOM     24  C   UNL     1       1.965   3.131  20.219  0.00  0.00    +0.000 C 
ATOM     25  C   UNL     1       0.613   3.871  20.319  0.00  0.00    +0.000 C 
ATOM     26  C   UNL     1       1.751   1.907  19.300  0.00  0.00    +0.000 C 
ATOM     27  C   UNL     1       2.313   2.623  21.636  0.00  0.00    +0.000 C 
ENDBRANCH  21  24
ENDBRANCH  17  18
ENDBRANCH   2  15
TORSDOF 5
ENDMDL
MODEL 5
REMARK VINA RESULT:      -7.9      0.543      1.419
REMARK  Name = 
REMARK  9 active torsions:
REMARK  status: ('A' for Active; 'I' for Inactive)
REMARK    1  A    between atoms: C_1  and  C_2
REMARK    2  A    between atoms: C_2  and  C_20
REMARK    3  A    between atoms: N_3  and  N_4
REMARK    4  A    between atoms: C_5  and  C_7
REMARK    5  A    between atoms: C_9  and  C_10
REMARK    6  A    between atoms: C_13  and  C_14
REMARK    7  A    between atoms: C_14  and  C_15
REMARK    8  A    between atoms: C_14  and  C_16
REMARK    9  A    between atoms: C_14  and  C_17
REMARK                            x       y       z     vdW  Elec       q    Type
REMARK                         _______ _______ _______ _____ _____    ______ ____
ROOT
ATOM      1  N   UNL     1       8.078   9.047  18.495  0.00  0.00    +0.000 N 
ATOM      2  C   UNL     1       8.015   7.914  17.699  0.00  0.00    +0.000 C 
ATOM      3  O   UNL     1       8.452   7.817  16.558  0.00  0.00    +0.000 OA
ATOM      4  H   UNL     1       7.678   9.025  19.421  0.00  0.00    +0.000 HD
ENDROOT
BRANCH   1   7
ATOM      5  C   UNL     1       9.433  10.852  20.295  0.00  0.00    +0.000 C 
ATOM      6  C   UNL     1       9.283  11.013  18.795  0.00  0.00    +0.000 C 
ATOM      7  N   UNL     1       8.662  10.179  18.012  0.00  0.00    +0.000 NA
BRANCH   6   8
ATOM      8  C   UNL     1       9.905  12.242  18.173  0.00  0.00    +0.000 A 
ATOM      9  C   UNL     1      11.103  12.176  17.442  0.00  0.00    +0.000 A 
ATOM     10  C   UNL     1      11.664  13.332  16.891  0.00  0.00    +0.000 A 
ATOM     11  C   UNL     1      11.030  14.557  17.064  0.00  0.00    +0.000 A 
ATOM     12  F   UNL     1      11.574  15.661  16.538  0.00  0.00    +0.000 F 
ATOM     13  C   UNL     1       9.840  14.645  17.778  0.00  0.00    +0.000 A 
ATOM     14  C   UNL     1       9.279  13.489  18.331  0.00  0.00    +0.000 A 
ENDBRANCH   6   8
ENDBRANCH   1   7
BRANCH   2  15
ATOM     15  C   UNL     1       7.321   6.751  18.345  0.00  0.00    +0.000 C 
ATOM     16  C   UNL     1       7.611   5.355  17.850  0.00  0.00    +0.000 C 
ATOM     17  C   UNL     1       6.273   5.991  17.551  0.00  0.00    +0.000 C 
BRANCH  17  18
ATOM     18  C   UNL     1       5.040   5.369  18.170  0.00  0.00    +0.000 A 
ATOM     19  C   UNL     1       3.738   5.731  17.806  0.00  0.00    +0.000 A 
ATOM     20  C   UNL     1       2.616   5.075  18.341  0.00  0.00    +0.000 A 
ATOM     21  C   UNL     1       2.743   4.021  19.259  0.00  0.00    +0.000 A 
ATOM     22  C   UNL     1       4.050   3.675  19.640  0.00  0.00    +0.000 A 
ATOM     23  C   UNL     1       5.166   4.331  19.104  0.00  0.00    +0.000 A 
BRANCH  21  24
ATOM     24  C   UNL     1       1.540   3.231  19.806  0.00  0.00    +0.000 C 
ATOM     25  C   UNL     1       1.936   2.154  20.841  0.00  0.00    +0.000 C 
ATOM     26  C   UNL     1       0.555   4.196  20.504  0.00  0.00    +0.000 C 
ATOM     27  C   UNL     1       0.790   2.511  18.663  0.00  0.00    +0.000 C 
ENDBRANCH  21  24
ENDBRANCH  17  18
ENDBRANCH   2  15
TORSDOF 5
ENDMDL
MODEL 6
REMARK VINA RESULT:      -7.5      7.467     10.149
REMARK  Name = 
REMARK  9 active torsions:
REMARK  status: ('A' for Active; 'I' for Inactive)
REMARK    1  A    between atoms: C_1  and  C_2
REMARK    2  A    between atoms: C_2  and  C_20
REMARK    3  A    between atoms: N_3  and  N_4
REMARK    4  A    between atoms: C_5  and  C_7
REMARK    5  A    between atoms: C_9  and  C_10
REMARK    6  A    between atoms: C_13  and  C_14
REMARK    7  A    between atoms: C_14  and  C_15
REMARK    8  A    between atoms: C_14  and  C_16
REMARK    9  A    between atoms: C_14  and  C_17
REMARK                            x       y       z     vdW  Elec       q    Type
REMARK                         _______ _______ _______ _____ _____    ______ ____
ROOT
ATOM      1  N   UNL     1       1.108   9.352  18.333  0.00  0.00    +0.000 N 
ATOM      2  C   UNL     1       1.523  10.674  18.314  0.00  0.00    +0.000 C 
ATOM      3  O   UNL     1       2.577  11.086  17.842  0.00  0.00    +0.000 OA
ATOM      4  H   UNL     1       0.223   9.117  18.756  0.00  0.00    +0.000 HD
ENDROOT
BRANCH   1   7
ATOM      5  C   UNL     1       2.165   7.257  20.016  0.00  0.00    +0.000 C 
ATOM      6  C   UNL     1       2.397   7.427  18.527  0.00  0.00    +0.000 C 
ATOM      7  N   UNL     1       1.906   8.386  17.797  0.00  0.00    +0.000 NA
BRANCH   6   8
ATOM      8  C   UNL     1       3.270   6.396  17.848  0.00  0.00    +0.000 A 
ATOM      9  C   UNL     1       4.460   6.752  17.190  0.00  0.00    +0.000 A 
ATOM     10  C   UNL     1       5.239   5.779  16.556  0.00  0.00    +0.000 A 
ATOM     11  C   UNL     1       4.837   4.449  16.580  0.00  0.00    +0.000 A 
ATOM     12  F   UNL     1       5.585   3.523  15.969  0.00  0.00    +0.000 F 
ATOM     13  C   UNL     1       3.668   4.073  17.232  0.00  0.00    +0.000 A 
ATOM     14  C   UNL     1       2.886   5.046  17.864  0.00  0.00    +0.000 A 
ENDBRANCH   6   8
ENDBRANCH   1   7
BRANCH   2  15
ATOM     15  C   UNL     1       0.561  11.626  18.963  0.00  0.00    +0.000 C 
ATOM     16  C   UNL     1       1.102  12.830  19.695  0.00  0.00    +0.000 C 
ATOM     17  C   UNL     1       0.501  11.687  20.479  0.00  0.00    +0.000 C 
BRANCH  17  18
ATOM     18  C   UNL     1      -0.768  11.952  21.258  0.00  0.00    +0.000 A 
ATOM     19  C   UNL     1      -0.977  11.487  22.561  0.00  0.00    +0.000 A 
ATOM     20  C   UNL     1      -2.133  11.822  23.286  0.00  0.00    +0.000 A 
ATOM     21  C   UNL     1      -3.134  12.644  22.744  0.00  0.00    +0.000 A 
ATOM     22  C   UNL     1      -2.934  13.091  21.427  0.00  0.00    +0.000 A 
ATOM     23  C   UNL     1      -1.779  12.755  20.708  0.00  0.00    +0.000 A 
BRANCH  21  24
ATOM     24  C   UNL     1      -4.376  13.092  23.536  0.00  0.00    +0.000 C 
ATOM     25  C   UNL     1      -4.624  12.252  24.809  0.00  0.00    +0.000 C 
ATOM     26  C   UNL     1      -4.209  14.562  23.983  0.00  0.00    +0.000 C 
ATOM     27  C   UNL     1      -5.648  12.988  22.665  0.00  0.00    +0.000 C 
ENDBRANCH  21  24
ENDBRANCH  17  18
ENDBRANCH   2  15
TORSDOF 5
ENDMDL
MODEL 7
REMARK VINA RESULT:      -7.5      7.088      9.868
REMARK  Name = 
REMARK  9 active torsions:
REMARK  status: ('A' for Active; 'I' for Inactive)
REMARK    1  A    between atoms: C_1  and  C_2
REMARK    2  A    between atoms: C_2  and  C_20
REMARK    3  A    between atoms: N_3  and  N_4
REMARK    4  A    between atoms: C_5  and  C_7
REMARK    5  A    between atoms: C_9  and  C_10
REMARK    6  A    between atoms: C_13  and  C_14
REMARK    7  A    between atoms: C_14  and  C_15
REMARK    8  A    between atoms: C_14  and  C_16
REMARK    9  A    between atoms: C_14  and  C_17
REMARK                            x       y       z     vdW  Elec       q    Type
REMARK                         _______ _______ _______ _____ _____    ______ ____
ROOT
ATOM      1  N   UNL     1       1.842   8.623  18.391  0.00  0.00    +0.000 N 
ATOM      2  C   UNL     1       1.361   8.784  19.679  0.00  0.00    +0.000 C 
ATOM      3  O   UNL     1       1.906   8.385  20.703  0.00  0.00    +0.000 OA
ATOM      4  H   UNL     1       1.309   8.983  17.614  0.00  0.00    +0.000 HD
ENDROOT
BRANCH   1   7
ATOM      5  C   UNL     1       1.864   5.749  18.117  0.00  0.00    +0.000 C 
ATOM      6  C   UNL     1       3.064   6.673  18.058  0.00  0.00    +0.000 C 
ATOM      7  N   UNL     1       3.020   7.967  18.187  0.00  0.00    +0.000 NA
BRANCH   6   8
ATOM      8  C   UNL     1       4.413   6.029  17.832  0.00  0.00    +0.000 A 
ATOM      9  C   UNL     1       5.045   6.056  16.577  0.00  0.00    +0.000 A 
ATOM     10  C   UNL     1       6.286   5.437  16.393  0.00  0.00    +0.000 A 
ATOM     11  C   UNL     1       6.901   4.795  17.461  0.00  0.00    +0.000 A 
ATOM     12  F   UNL     1       8.087   4.201  17.278  0.00  0.00    +0.000 F 
ATOM     13  C   UNL     1       6.298   4.761  18.713  0.00  0.00    +0.000 A 
ATOM     14  C   UNL     1       5.055   5.378  18.898  0.00  0.00    +0.000 A 
ENDBRANCH   6   8
ENDBRANCH   1   7
BRANCH   2  15
ATOM     15  C   UNL     1       0.042   9.498  19.755  0.00  0.00    +0.000 C 
ATOM     16  C   UNL     1      -0.287  10.542  18.716  0.00  0.00    +0.000 C 
ATOM     17  C   UNL     1       0.027  10.970  20.131  0.00  0.00    +0.000 C 
BRANCH  17  18
ATOM     18  C   UNL     1      -1.077  11.618  20.936  0.00  0.00    +0.000 A 
ATOM     19  C   UNL     1      -2.174  12.261  20.351  0.00  0.00    +0.000 A 
ATOM     20  C   UNL     1      -3.224  12.779  21.128  0.00  0.00    +0.000 A 
ATOM     21  C   UNL     1      -3.231  12.672  22.528  0.00  0.00    +0.000 A 
ATOM     22  C   UNL     1      -2.118  12.047  23.115  0.00  0.00    +0.000 A 
ATOM     23  C   UNL     1      -1.074  11.531  22.336  0.00  0.00    +0.000 A 
BRANCH  21  24
ATOM     24  C   UNL     1      -4.399  13.161  23.404  0.00  0.00    +0.000 C 
ATOM     25  C   UNL     1      -5.777  13.013  22.721  0.00  0.00    +0.000 C 
ATOM     26  C   UNL     1      -4.447  12.343  24.714  0.00  0.00    +0.000 C 
ATOM     27  C   UNL     1      -4.226  14.653  23.765  0.00  0.00    +0.000 C 
ENDBRANCH  21  24
ENDBRANCH  17  18
ENDBRANCH   2  15
TORSDOF 5
ENDMDL
MODEL 8
REMARK VINA RESULT:      -7.5      1.227      1.563
REMARK  Name = 
REMARK  9 active torsions:
REMARK  status: ('A' for Active; 'I' for Inactive)
REMARK    1  A    between atoms: C_1  and  C_2
REMARK    2  A    between atoms: C_2  and  C_20
REMARK    3  A    between atoms: N_3  and  N_4
REMARK    4  A    between atoms: C_5  and  C_7
REMARK    5  A    between atoms: C_9  and  C_10
REMARK    6  A    between atoms: C_13  and  C_14
REMARK    7  A    between atoms: C_14  and  C_15
REMARK    8  A    between atoms: C_14  and  C_16
REMARK    9  A    between atoms: C_14  and  C_17
REMARK                            x       y       z     vdW  Elec       q    Type
REMARK                         _______ _______ _______ _____ _____    ______ ____
ROOT
ATOM      1  N   UNL     1       8.954   8.960  19.106  0.00  0.00    +0.000 N 
ATOM      2  C   UNL     1       8.210   8.518  18.024  0.00  0.00    +0.000 C 
ATOM      3  O   UNL     1       8.054   9.121  16.968  0.00  0.00    +0.000 OA
ATOM      4  H   UNL     1       9.011   8.388  19.935  0.00  0.00    +0.000 HD
ENDROOT
BRANCH   1   7
ATOM      5  C   UNL     1       8.965  10.706  21.406  0.00  0.00    +0.000 C 
ATOM      6  C   UNL     1       9.612  10.976  20.061  0.00  0.00    +0.000 C 
ATOM      7  N   UNL     1       9.586  10.166  19.042  0.00  0.00    +0.000 NA
BRANCH   6   8
ATOM      8  C   UNL     1      10.339  12.291  19.903  0.00  0.00    +0.000 A 
ATOM      9  C   UNL     1      10.092  13.380  20.756  0.00  0.00    +0.000 A 
ATOM     10  C   UNL     1      10.768  14.592  20.575  0.00  0.00    +0.000 A 
ATOM     11  C   UNL     1      11.692  14.719  19.546  0.00  0.00    +0.000 A 
ATOM     12  F   UNL     1      12.333  15.882  19.375  0.00  0.00    +0.000 F 
ATOM     13  C   UNL     1      11.957  13.652  18.694  0.00  0.00    +0.000 A 
ATOM     14  C   UNL     1      11.281  12.441  18.872  0.00  0.00    +0.000 A 
ENDBRANCH   6   8
ENDBRANCH   1   7
BRANCH   2  15
ATOM     15  C   UNL     1       7.546   7.189  18.241  0.00  0.00    +0.000 C 
ATOM     16  C   UNL     1       7.475   6.209  17.096  0.00  0.00    +0.000 C 
ATOM     17  C   UNL     1       6.219   6.913  17.555  0.00  0.00    +0.000 C 
BRANCH  17  18
ATOM     18  C   UNL     1       5.119   6.073  18.166  0.00  0.00    +0.000 A 
ATOM     19  C   UNL     1       3.759   6.314  17.940  0.00  0.00    +0.000 A 
ATOM     20  C   UNL     1       2.765   5.464  18.455  0.00  0.00    +0.000 A 
ATOM     21  C   UNL     1       3.085   4.328  19.215  0.00  0.00    +0.000 A 
ATOM     22  C   UNL     1       4.450   4.101  19.461  0.00  0.00    +0.000 A 
ATOM     23  C   UNL     1       5.437   4.951  18.944  0.00  0.00    +0.000 A 
BRANCH  21  24
ATOM     24  C   UNL     1       2.027   3.335  19.731  0.00  0.00    +0.000 C 
ATOM     25  C   UNL     1       2.530   2.462  20.903  0.00  0.00    +0.000 C 
ATOM     26  C   UNL     1       0.787   4.107  20.234  0.00  0.00    +0.000 C 
ATOM     27  C   UNL     1       1.582   2.375  18.605  0.00  0.00    +0.000 C 
ENDBRANCH  21  24
ENDBRANCH  17  18
ENDBRANCH   2  15
TORSDOF 5
ENDMDL
MODEL 9
REMARK VINA RESULT:      -7.5      7.076      9.840
REMARK  Name = 
REMARK  9 active torsions:
REMARK  status: ('A' for Active; 'I' for Inactive)
REMARK    1  A    between atoms: C_1  and  C_2
REMARK    2  A    between atoms: C_2  and  C_20
REMARK    3  A    between atoms: N_3  and  N_4
REMARK    4  A    between atoms: C_5  and  C_7
REMARK    5  A    between atoms: C_9  and  C_10
REMARK    6  A    between atoms: C_13  and  C_14
REMARK    7  A    between atoms: C_14  and  C_15
REMARK    8  A    between atoms: C_14  and  C_16
REMARK    9  A    between atoms: C_14  and  C_17
REMARK                            x       y       z     vdW  Elec       q    Type
REMARK                         _______ _______ _______ _____ _____    ______ ____
ROOT
ATOM      1  N   UNL     1       1.795   8.565  18.459  0.00  0.00    +0.000 N 
ATOM      2  C   UNL     1       1.323   8.716  19.753  0.00  0.00    +0.000 C 
ATOM      3  O   UNL     1       1.877   8.309  20.769  0.00  0.00    +0.000 OA
ATOM      4  H   UNL     1       1.255   8.930  17.689  0.00  0.00    +0.000 HD
ENDROOT
BRANCH   1   7
ATOM      5  C   UNL     1       1.811   5.698  18.119  0.00  0.00    +0.000 C 
ATOM      6  C   UNL     1       3.014   6.621  18.082  0.00  0.00    +0.000 C 
ATOM      7  N   UNL     1       2.971   7.912  18.242  0.00  0.00    +0.000 NA
BRANCH   6   8
ATOM      8  C   UNL     1       4.362   5.980  17.843  0.00  0.00    +0.000 A 
ATOM      9  C   UNL     1       5.023   5.251  18.845  0.00  0.00    +0.000 A 
ATOM     10  C   UNL     1       6.277   4.682  18.600  0.00  0.00    +0.000 A 
ATOM     11  C   UNL     1       6.873   4.837  17.355  0.00  0.00    +0.000 A 
ATOM     12  F   UNL     1       8.076   4.295  17.127  0.00  0.00    +0.000 F 
ATOM     13  C   UNL     1       6.234   5.549  16.346  0.00  0.00    +0.000 A 
ATOM     14  C   UNL     1       4.980   6.120  16.590  0.00  0.00    +0.000 A 
ENDBRANCH   6   8
ENDBRANCH   1   7
BRANCH   2  15
ATOM     15  C   UNL     1       0.005   9.428  19.844  0.00  0.00    +0.000 C 
ATOM     16  C   UNL     1      -0.348  10.456  18.797  0.00  0.00    +0.000 C 
ATOM     17  C   UNL     1      -0.007  10.905  20.199  0.00  0.00    +0.000 C 
BRANCH  17  18
ATOM     18  C   UNL     1      -1.096  11.562  21.018  0.00  0.00    +0.000 A 
ATOM     19  C   UNL     1      -2.130  12.315  20.449  0.00  0.00    +0.000 A 
ATOM     20  C   UNL     1      -3.172  12.841  21.231  0.00  0.00    +0.000 A 
ATOM     21  C   UNL     1      -3.235  12.633  22.618  0.00  0.00    +0.000 A 
ATOM     22  C   UNL     1      -2.184  11.896  23.190  0.00  0.00    +0.000 A 
ATOM     23  C   UNL     1      -1.147  11.373  22.407  0.00  0.00    +0.000 A 
BRANCH  21  24
ATOM     24  C   UNL     1      -4.401  13.130  23.492  0.00  0.00    +0.000 C 
ATOM     25  C   UNL     1      -4.573  12.322  24.798  0.00  0.00    +0.000 C 
ATOM     26  C   UNL     1      -4.161  14.603  23.894  0.00  0.00    +0.000 C 
ATOM     27  C   UNL     1      -5.738  13.045  22.723  0.00  0.00    +0.000 C 
ENDBRANCH  21  24
ENDBRANCH  17  18
ENDBRANCH   2  15
TORSDOF 5
ENDMDL
