MODEL 1
REMARK VINA RESULT:      -6.8      0.000      0.000
REMARK  Name = 
REMARK  7 active torsions:
REMARK  status: ('A' for Active; 'I' for Inactive)
REMARK    1  A    between atoms: C_1  and  C_2
REMARK    2  A    between atoms: C_2  and  S_3
REMARK    3  A    between atoms: S_3  and  N_6
REMARK    4  A    between atoms: N_10  and  C_11
REMARK    5  A    between atoms: C_11  and  C_12
REMARK    6  A    between atoms: C_15  and  O_16
REMARK    7  A    between atoms: O_16  and  C_17
REMARK                            x       y       z     vdW  Elec       q    Type
REMARK                         _______ _______ _______ _____ _____    ______ ____
ROOT
ATOM      1  N   UNL     1       1.591   4.493  19.885  0.00  0.00    +0.000 NA
ATOM      2  C   UNL     1       1.179   3.981  18.537  0.00  0.00    +0.000 C 
ATOM      3  C   UNL     1       1.803   2.590  18.362  0.00  0.00    +0.000 C 
ATOM      4  C   UNL     1       2.719   2.447  17.150  0.00  0.00    +0.000 C 
ATOM      5  N   UNL     1       4.032   2.774  17.646  0.00  0.00    +0.000 N 
ATOM      6  C   UNL     1       4.097   2.798  19.029  0.00  0.00    +0.000 C 
ATOM      7  O   UNL     1       5.071   3.014  19.730  0.00  0.00    +0.000 OA
ATOM      8  C   UNL     1       2.735   2.418  19.549  0.00  0.00    +0.000 C 
ATOM      9  C   UNL     1       2.242   3.370  20.606  0.00  0.00    +0.000 C 
ENDROOT
BRANCH   1  10
ATOM     10  S   UNL     1       2.375   6.001  19.811  0.00  0.00    +0.000 S 
ATOM     11  O   UNL     1       3.789   5.727  19.981  0.00  0.00    +0.000 OA
ATOM     12  O   UNL     1       1.691   6.888  20.722  0.00  0.00    +0.000 OA
BRANCH  10  14
ATOM     13  C   UNL     1       2.481   8.025  17.984  0.00  0.00    +0.000 C 
ATOM     14  C   UNL     1       2.103   6.562  18.127  0.00  0.00    +0.000 C 
ENDBRANCH  10  14
ENDBRANCH   1  10
BRANCH   5  15
ATOM     15  C   UNL     1       5.176   2.984  16.776  0.00  0.00    +0.000 C 
BRANCH  15  16
ATOM     16  C   UNL     1       5.748   4.383  16.835  0.00  0.00    +0.000 A 
ATOM     17  C   UNL     1       5.036   5.479  16.332  0.00  0.00    +0.000 A 
ATOM     18  C   UNL     1       5.527   6.780  16.492  0.00  0.00    +0.000 A 
ATOM     19  C   UNL     1       6.728   7.010  17.166  0.00  0.00    +0.000 A 
ATOM     20  C   UNL     1       7.466   5.925  17.631  0.00  0.00    +0.000 A 
ATOM     21  C   UNL     1       6.976   4.625  17.470  0.00  0.00    +0.000 A 
BRANCH  19  22
ATOM     22  O   UNL     1       7.100   8.322  17.291  0.00  0.00    +0.000 OA
ATOM     23  C   UNL     1       8.252   8.548  18.098  0.00  0.00    +0.000 C 
ENDBRANCH  19  22
ENDBRANCH  15  16
ENDBRANCH   5  15
TORSDOF 5
ENDMDL
MODEL 2
REMARK VINA RESULT:      -6.8      2.945      5.570
REMARK  Name = 
REMARK  7 active torsions:
REMARK  status: ('A' for Active; 'I' for Inactive)
REMARK    1  A    between atoms: C_1  and  C_2
REMARK    2  A    between atoms: C_2  and  S_3
REMARK    3  A    between atoms: S_3  and  N_6
REMARK    4  A    between atoms: N_10  and  C_11
REMARK    5  A    between atoms: C_11  and  C_12
REMARK    6  A    between atoms: C_15  and  O_16
REMARK    7  A    between atoms: O_16  and  C_17
REMARK                            x       y       z     vdW  Elec       q    Type
REMARK                         _______ _______ _______ _____ _____    ______ ____
ROOT
ATOM      1  N   UNL     1       2.288   1.846  19.608  0.00  0.00    +0.000 NA
ATOM      2  C   UNL     1       2.507   2.598  20.888  0.00  0.00    +0.000 C 
ATOM      3  C   UNL     1       1.446   3.704  20.959  0.00  0.00    +0.000 C 
ATOM      4  C   UNL     1       2.003   5.121  21.070  0.00  0.00    +0.000 C 
ATOM      5  N   UNL     1       2.122   5.573  19.707  0.00  0.00    +0.000 N 
ATOM      6  C   UNL     1       1.442   4.767  18.809  0.00  0.00    +0.000 C 
ATOM      7  O   UNL     1       1.338   4.912  17.602  0.00  0.00    +0.000 OA
ATOM      8  C   UNL     1       0.758   3.686  19.604  0.00  0.00    +0.000 C 
ATOM      9  C   UNL     1       1.002   2.315  19.032  0.00  0.00    +0.000 C 
ENDROOT
BRANCH   1  10
ATOM     10  S   UNL     1       3.674   1.797  18.622  0.00  0.00    +0.000 S 
ATOM     11  O   UNL     1       3.228   2.139  17.285  0.00  0.00    +0.000 OA
ATOM     12  O   UNL     1       4.334   0.537  18.869  0.00  0.00    +0.000 OA
BRANCH  10  14
ATOM     13  C   UNL     1       5.062   4.091  18.114  0.00  0.00    +0.000 C 
ATOM     14  C   UNL     1       4.704   3.132  19.236  0.00  0.00    +0.000 C 
ENDBRANCH  10  14
ENDBRANCH   1  10
BRANCH   5  15
ATOM     15  C   UNL     1       2.823   6.789  19.337  0.00  0.00    +0.000 C 
BRANCH  15  16
ATOM     16  C   UNL     1       1.950   8.025  19.323  0.00  0.00    +0.000 A 
ATOM     17  C   UNL     1       1.369   8.515  20.499  0.00  0.00    +0.000 A 
ATOM     18  C   UNL     1       0.656   9.719  20.491  0.00  0.00    +0.000 A 
ATOM     19  C   UNL     1       0.521  10.460  19.315  0.00  0.00    +0.000 A 
ATOM     20  C   UNL     1       1.056   9.960  18.131  0.00  0.00    +0.000 A 
ATOM     21  C   UNL     1       1.768   8.756  18.139  0.00  0.00    +0.000 A 
BRANCH  19  22
ATOM     22  O   UNL     1      -0.170  11.636  19.426  0.00  0.00    +0.000 OA
ATOM     23  C   UNL     1      -1.037  11.933  18.335  0.00  0.00    +0.000 C 
ENDBRANCH  19  22
ENDBRANCH  15  16
ENDBRANCH   5  15
TORSDOF 5
ENDMDL
MODEL 3
REMARK VINA RESULT:      -6.8      2.843      5.617
REMARK  Name = 
REMARK  7 active torsions:
REMARK  status: ('A' for Active; 'I' for Inactive)
REMARK    1  A    between atoms: C_1  and  C_2
REMARK    2  A    between atoms: C_2  and  S_3
REMARK    3  A    between atoms: S_3  and  N_6
REMARK    4  A    between atoms: N_10  and  C_11
REMARK    5  A    between atoms: C_11  and  C_12
REMARK    6  A    between atoms: C_15  and  O_16
REMARK    7  A    between atoms: O_16  and  C_17
REMARK                            x       y       z     vdW  Elec       q    Type
REMARK                         _______ _______ _______ _____ _____    ______ ____
ROOT
ATOM      1  N   UNL     1       2.658   2.036  20.029  0.00  0.00    +0.000 NA
ATOM      2  C   UNL     1       2.652   2.967  21.205  0.00  0.00    +0.000 C 
ATOM      3  C   UNL     1       1.497   3.957  21.002  0.00  0.00    +0.000 C 
ATOM      4  C   UNL     1       1.909   5.426  20.972  0.00  0.00    +0.000 C 
ATOM      5  N   UNL     1       2.154   5.706  19.580  0.00  0.00    +0.000 N 
ATOM      6  C   UNL     1       1.663   4.724  18.736  0.00  0.00    +0.000 C 
ATOM      7  O   UNL     1       1.695   4.699  17.517  0.00  0.00    +0.000 OA
ATOM      8  C   UNL     1       0.984   3.690  19.597  0.00  0.00    +0.000 C 
ATOM      9  C   UNL     1       1.416   2.290  19.255  0.00  0.00    +0.000 C 
ENDROOT
BRANCH   1  10
ATOM     10  S   UNL     1       4.154   2.004  19.217  0.00  0.00    +0.000 S 
ATOM     11  O   UNL     1       3.849   1.740  17.824  0.00  0.00    +0.000 OA
ATOM     12  O   UNL     1       5.024   1.116  19.952  0.00  0.00    +0.000 OA
BRANCH  10  14
ATOM     13  C   UNL     1       5.224   4.200  18.002  0.00  0.00    +0.000 C 
ATOM     14  C   UNL     1       4.772   3.683  19.357  0.00  0.00    +0.000 C 
ENDBRANCH  10  14
ENDBRANCH   1  10
BRANCH   5  15
ATOM     15  C   UNL     1       2.786   6.930  19.120  0.00  0.00    +0.000 C 
BRANCH  15  16
ATOM     16  C   UNL     1       1.878   8.141  19.149  0.00  0.00    +0.000 A 
ATOM     17  C   UNL     1       1.529   8.813  17.972  0.00  0.00    +0.000 A 
ATOM     18  C   UNL     1       0.602   9.862  18.001  0.00  0.00    +0.000 A 
ATOM     19  C   UNL     1       0.002  10.250  19.200  0.00  0.00    +0.000 A 
ATOM     20  C   UNL     1       0.376   9.618  20.384  0.00  0.00    +0.000 A 
ATOM     21  C   UNL     1       1.302   8.571  20.355  0.00  0.00    +0.000 A 
BRANCH  19  22
ATOM     22  O   UNL     1      -0.910  11.266  19.110  0.00  0.00    +0.000 OA
ATOM     23  C   UNL     1      -1.985  11.035  18.203  0.00  0.00    +0.000 C 
ENDBRANCH  19  22
ENDBRANCH  15  16
ENDBRANCH   5  15
TORSDOF 5
ENDMDL
MODEL 4
REMARK VINA RESULT:      -6.7      2.128      3.754
REMARK  Name = 
REMARK  7 active torsions:
REMARK  status: ('A' for Active; 'I' for Inactive)
REMARK    1  A    between atoms: C_1  and  C_2
REMARK    2  A    between atoms: C_2  and  S_3
REMARK    3  A    between atoms: S_3  and  N_6
REMARK    4  A    between atoms: N_10  and  C_11
REMARK    5  A    between atoms: C_11  and  C_12
REMARK    6  A    between atoms: C_15  and  O_16
REMARK    7  A    between atoms: O_16  and  C_17
REMARK                            x       y       z     vdW  Elec       q    Type
REMARK                         _______ _______ _______ _____ _____    ______ ____
ROOT
ATOM      1  N   UNL     1       2.818   2.707  20.943  0.00  0.00    +0.000 NA
ATOM      2  C   UNL     1       2.857   4.074  21.558  0.00  0.00    +0.000 C 
ATOM      3  C   UNL     1       1.631   4.843  21.046  0.00  0.00    +0.000 C 
ATOM      4  C   UNL     1       1.952   6.139  20.306  0.00  0.00    +0.000 C 
ATOM      5  N   UNL     1       2.060   5.751  18.922  0.00  0.00    +0.000 N 
ATOM      6  C   UNL     1       1.559   4.484  18.676  0.00  0.00    +0.000 C 
ATOM      7  O   UNL     1       1.488   3.901  17.607  0.00  0.00    +0.000 OA
ATOM      8  C   UNL     1       1.018   3.953  19.978  0.00  0.00    +0.000 C 
ATOM      9  C   UNL     1       1.502   2.559  20.271  0.00  0.00    +0.000 C 
ENDROOT
BRANCH   1  10
ATOM     10  S   UNL     1       4.238   2.324  20.087  0.00  0.00    +0.000 S 
ATOM     11  O   UNL     1       5.099   1.630  21.024  0.00  0.00    +0.000 OA
ATOM     12  O   UNL     1       4.691   3.535  19.441  0.00  0.00    +0.000 OA
BRANCH  10  14
ATOM     13  C   UNL     1       3.822   1.764  17.449  0.00  0.00    +0.000 C 
ATOM     14  C   UNL     1       3.701   1.156  18.834  0.00  0.00    +0.000 C 
ENDBRANCH  10  14
ENDBRANCH   1  10
BRANCH   5  15
ATOM     15  C   UNL     1       2.577   6.634  17.892  0.00  0.00    +0.000 C 
BRANCH  15  16
ATOM     16  C   UNL     1       3.937   6.236  17.363  0.00  0.00    +0.000 A 
ATOM     17  C   UNL     1       4.084   5.160  16.479  0.00  0.00    +0.000 A 
ATOM     18  C   UNL     1       5.331   4.872  15.911  0.00  0.00    +0.000 A 
ATOM     19  C   UNL     1       6.447   5.658  16.206  0.00  0.00    +0.000 A 
ATOM     20  C   UNL     1       6.322   6.702  17.118  0.00  0.00    +0.000 A 
ATOM     21  C   UNL     1       5.076   6.989  17.686  0.00  0.00    +0.000 A 
BRANCH  19  22
ATOM     22  O   UNL     1       7.609   5.305  15.574  0.00  0.00    +0.000 OA
ATOM     23  C   UNL     1       7.456   4.880  14.222  0.00  0.00    +0.000 C 
ENDBRANCH  19  22
ENDBRANCH  15  16
ENDBRANCH   5  15
TORSDOF 5
ENDMDL
MODEL 5
REMARK VINA RESULT:      -6.5      2.962      5.907
REMARK  Name = 
REMARK  7 active torsions:
REMARK  status: ('A' for Active; 'I' for Inactive)
REMARK    1  A    between atoms: C_1  and  C_2
REMARK    2  A    between atoms: C_2  and  S_3
REMARK    3  A    between atoms: S_3  and  N_6
REMARK    4  A    between atoms: N_10  and  C_11
REMARK    5  A    between atoms: C_11  and  C_12
REMARK    6  A    between atoms: C_15  and  O_16
REMARK    7  A    between atoms: O_16  and  C_17
REMARK                            x       y       z     vdW  Elec       q    Type
REMARK                         _______ _______ _______ _____ _____    ______ ____
ROOT
ATOM      1  N   UNL     1       7.495   5.315  16.303  0.00  0.00    +0.000 NA
ATOM      2  C   UNL     1       7.165   6.489  17.176  0.00  0.00    +0.000 C 
ATOM      3  C   UNL     1       6.554   5.941  18.473  0.00  0.00    +0.000 C 
ATOM      4  C   UNL     1       5.148   6.449  18.783  0.00  0.00    +0.000 C 
ATOM      5  N   UNL     1       4.270   5.482  18.174  0.00  0.00    +0.000 N 
ATOM      6  C   UNL     1       4.920   4.316  17.807  0.00  0.00    +0.000 C 
ATOM      7  O   UNL     1       4.439   3.317  17.301  0.00  0.00    +0.000 OA
ATOM      8  C   UNL     1       6.361   4.454  18.227  0.00  0.00    +0.000 C 
ATOM      9  C   UNL     1       7.315   4.088  17.122  0.00  0.00    +0.000 C 
ENDROOT
BRANCH   1  10
ATOM     10  S   UNL     1       6.766   5.405  14.768  0.00  0.00    +0.000 S 
ATOM     11  O   UNL     1       7.834   5.706  13.834  0.00  0.00    +0.000 OA
ATOM     12  O   UNL     1       5.628   6.287  14.882  0.00  0.00    +0.000 OA
BRANCH  10  14
ATOM     13  C   UNL     1       6.099   3.475  12.958  0.00  0.00    +0.000 C 
ATOM     14  C   UNL     1       6.188   3.735  14.451  0.00  0.00    +0.000 C 
ENDBRANCH  10  14
ENDBRANCH   1  10
BRANCH   5  15
ATOM     15  C   UNL     1       2.840   5.693  18.032  0.00  0.00    +0.000 C 
BRANCH  15  16
ATOM     16  C   UNL     1       2.363   7.039  18.532  0.00  0.00    +0.000 A 
ATOM     17  C   UNL     1       2.229   8.129  17.664  0.00  0.00    +0.000 A 
ATOM     18  C   UNL     1       1.682   9.335  18.117  0.00  0.00    +0.000 A 
ATOM     19  C   UNL     1       1.249   9.470  19.437  0.00  0.00    +0.000 A 
ATOM     20  C   UNL     1       1.418   8.408  20.321  0.00  0.00    +0.000 A 
ATOM     21  C   UNL     1       1.966   7.203  19.869  0.00  0.00    +0.000 A 
BRANCH  19  22
ATOM     22  O   UNL     1       0.704  10.682  19.766  0.00  0.00    +0.000 OA
ATOM     23  C   UNL     1       0.748  11.009  21.152  0.00  0.00    +0.000 C 
ENDBRANCH  19  22
ENDBRANCH  15  16
ENDBRANCH   5  15
TORSDOF 5
ENDMDL
MODEL 6
REMARK VINA RESULT:      -6.5      2.039      3.799
REMARK  Name = 
REMARK  7 active torsions:
REMARK  status: ('A' for Active; 'I' for Inactive)
REMARK    1  A    between atoms: C_1  and  C_2
REMARK    2  A    between atoms: C_2  and  S_3
REMARK    3  A    between atoms: S_3  and  N_6
REMARK    4  A    between atoms: N_10  and  C_11
REMARK    5  A    between atoms: C_11  and  C_12
REMARK    6  A    between atoms: C_15  and  O_16
REMARK    7  A    between atoms: O_16  and  C_17
REMARK                            x       y       z     vdW  Elec       q    Type
REMARK                         _______ _______ _______ _____ _____    ______ ____
ROOT
ATOM      1  N   UNL     1       2.835   2.209  20.362  0.00  0.00    +0.000 NA
ATOM      2  C   UNL     1       2.749   3.266  21.424  0.00  0.00    +0.000 C 
ATOM      3  C   UNL     1       1.533   4.144  21.101  0.00  0.00    +0.000 C 
ATOM      4  C   UNL     1       1.847   5.625  20.906  0.00  0.00    +0.000 C 
ATOM      5  N   UNL     1       2.092   5.762  19.492  0.00  0.00    +0.000 N 
ATOM      6  C   UNL     1       1.680   4.659  18.764  0.00  0.00    +0.000 C 
ATOM      7  O   UNL     1       1.731   4.498  17.556  0.00  0.00    +0.000 OA
ATOM      8  C   UNL     1       1.060   3.686  19.733  0.00  0.00    +0.000 C 
ATOM      9  C   UNL     1       1.590   2.288  19.555  0.00  0.00    +0.000 C 
ENDROOT
BRANCH   1  10
ATOM     10  S   UNL     1       4.340   2.187  19.568  0.00  0.00    +0.000 S 
ATOM     11  O   UNL     1       5.072   1.067  20.127  0.00  0.00    +0.000 OA
ATOM     12  O   UNL     1       4.886   3.522  19.641  0.00  0.00    +0.000 OA
BRANCH  10  14
ATOM     13  C   UNL     1       4.345   2.952  16.949  0.00  0.00    +0.000 C 
ATOM     14  C   UNL     1       3.937   1.808  17.861  0.00  0.00    +0.000 C 
ENDBRANCH  10  14
ENDBRANCH   1  10
BRANCH   5  15
ATOM     15  C   UNL     1       2.646   6.966  18.900  0.00  0.00    +0.000 C 
BRANCH  15  16
ATOM     16  C   UNL     1       3.915   6.735  18.107  0.00  0.00    +0.000 A 
ATOM     17  C   UNL     1       5.072   6.239  18.719  0.00  0.00    +0.000 A 
ATOM     18  C   UNL     1       6.202   5.926  17.955  0.00  0.00    +0.000 A 
ATOM     19  C   UNL     1       6.193   6.092  16.569  0.00  0.00    +0.000 A 
ATOM     20  C   UNL     1       5.064   6.628  15.955  0.00  0.00    +0.000 A 
ATOM     21  C   UNL     1       3.935   6.941  16.719  0.00  0.00    +0.000 A 
BRANCH  19  22
ATOM     22  O   UNL     1       7.340   5.729  15.916  0.00  0.00    +0.000 OA
ATOM     23  C   UNL     1       7.181   4.705  14.939  0.00  0.00    +0.000 C 
ENDBRANCH  19  22
ENDBRANCH  15  16
ENDBRANCH   5  15
TORSDOF 5
ENDMDL
MODEL 7
REMARK VINA RESULT:      -6.5      0.355      1.064
REMARK  Name = 
REMARK  7 active torsions:
REMARK  status: ('A' for Active; 'I' for Inactive)
REMARK    1  A    between atoms: C_1  and  C_2
REMARK    2  A    between atoms: C_2  and  S_3
REMARK    3  A    between atoms: S_3  and  N_6
REMARK    4  A    between atoms: N_10  and  C_11
REMARK    5  A    between atoms: C_11  and  C_12
REMARK    6  A    between atoms: C_15  and  O_16
REMARK    7  A    between atoms: O_16  and  C_17
REMARK                            x       y       z     vdW  Elec       q    Type
REMARK                         _______ _______ _______ _____ _____    ______ ____
ROOT
ATOM      1  N   UNL     1       1.517   4.429  19.653  0.00  0.00    +0.000 NA
ATOM      2  C   UNL     1       1.241   4.079  18.221  0.00  0.00    +0.000 C 
ATOM      3  C   UNL     1       1.891   2.716  17.948  0.00  0.00    +0.000 C 
ATOM      4  C   UNL     1       2.921   2.711  16.822  0.00  0.00    +0.000 C 
ATOM      5  N   UNL     1       4.177   2.975  17.477  0.00  0.00    +0.000 N 
ATOM      6  C   UNL     1       4.108   2.838  18.853  0.00  0.00    +0.000 C 
ATOM      7  O   UNL     1       5.009   2.969  19.665  0.00  0.00    +0.000 OA
ATOM      8  C   UNL     1       2.705   2.404  19.192  0.00  0.00    +0.000 C 
ATOM      9  C   UNL     1       2.106   3.228  20.299  0.00  0.00    +0.000 C 
ENDROOT
BRANCH   1  10
ATOM     10  S   UNL     1       2.293   5.934  19.830  0.00  0.00    +0.000 S 
ATOM     11  O   UNL     1       3.665   5.638  20.194  0.00  0.00    +0.000 OA
ATOM     12  O   UNL     1       1.468   6.745  20.695  0.00  0.00    +0.000 OA
BRANCH  10  14
ATOM     13  C   UNL     1       2.050   8.136  18.238  0.00  0.00    +0.000 C 
ATOM     14  C   UNL     1       2.282   6.637  18.178  0.00  0.00    +0.000 C 
ENDBRANCH  10  14
ENDBRANCH   1  10
BRANCH   5  15
ATOM     15  C   UNL     1       5.397   3.281  16.751  0.00  0.00    +0.000 C 
BRANCH  15  16
ATOM     16  C   UNL     1       5.921   4.681  16.988  0.00  0.00    +0.000 A 
ATOM     17  C   UNL     1       7.158   4.896  17.607  0.00  0.00    +0.000 A 
ATOM     18  C   UNL     1       7.681   6.190  17.719  0.00  0.00    +0.000 A 
ATOM     19  C   UNL     1       6.985   7.287  17.206  0.00  0.00    +0.000 A 
ATOM     20  C   UNL     1       5.734   7.089  16.629  0.00  0.00    +0.000 A 
ATOM     21  C   UNL     1       5.211   5.796  16.518  0.00  0.00    +0.000 A 
BRANCH  19  22
ATOM     22  O   UNL     1       7.601   8.501  17.345  0.00  0.00    +0.000 OA
ATOM     23  C   UNL     1       8.480   8.610  18.461  0.00  0.00    +0.000 C 
ENDBRANCH  19  22
ENDBRANCH  15  16
ENDBRANCH   5  15
TORSDOF 5
ENDMDL
MODEL 8
REMARK VINA RESULT:      -6.4      3.376      4.711
REMARK  Name = 
REMARK  7 active torsions:
REMARK  status: ('A' for Active; 'I' for Inactive)
REMARK    1  A    between atoms: C_1  and  C_2
REMARK    2  A    between atoms: C_2  and  S_3
REMARK    3  A    between atoms: S_3  and  N_6
REMARK    4  A    between atoms: N_10  and  C_11
REMARK    5  A    between atoms: C_11  and  C_12
REMARK    6  A    between atoms: C_15  and  O_16
REMARK    7  A    between atoms: O_16  and  C_17
REMARK                            x       y       z     vdW  Elec       q    Type
REMARK                         _______ _______ _______ _____ _____    ______ ____
ROOT
ATOM      1  N   UNL     1       3.247   3.804  19.152  0.00  0.00    +0.000 NA
ATOM      2  C   UNL     1       4.497   3.207  18.578  0.00  0.00    +0.000 C 
ATOM      3  C   UNL     1       5.587   4.286  18.627  0.00  0.00    +0.000 C 
ATOM      4  C   UNL     1       6.199   4.640  17.274  0.00  0.00    +0.000 C 
ATOM      5  N   UNL     1       5.395   5.732  16.786  0.00  0.00    +0.000 N 
ATOM      6  C   UNL     1       4.587   6.287  17.764  0.00  0.00    +0.000 C 
ATOM      7  O   UNL     1       3.825   7.233  17.657  0.00  0.00    +0.000 OA
ATOM      8  C   UNL     1       4.872   5.557  19.051  0.00  0.00    +0.000 C 
ATOM      9  C   UNL     1       3.613   5.115  19.747  0.00  0.00    +0.000 C 
ENDROOT
BRANCH   1  10
ATOM     10  S   UNL     1       1.920   3.714  18.089  0.00  0.00    +0.000 S 
ATOM     11  O   UNL     1       2.372   2.944  16.947  0.00  0.00    +0.000 OA
ATOM     12  O   UNL     1       1.420   5.057  17.910  0.00  0.00    +0.000 OA
BRANCH  10  14
ATOM     13  C   UNL     1       1.175   2.460  20.395  0.00  0.00    +0.000 C 
ATOM     14  C   UNL     1       0.700   2.746  18.982  0.00  0.00    +0.000 C 
ENDBRANCH  10  14
ENDBRANCH   1  10
BRANCH   5  15
ATOM     15  C   UNL     1       5.486   6.234  15.427  0.00  0.00    +0.000 C 
BRANCH  15  16
ATOM     16  C   UNL     1       5.919   5.196  14.414  0.00  0.00    +0.000 A 
ATOM     17  C   UNL     1       5.038   4.199  13.976  0.00  0.00    +0.000 A 
ATOM     18  C   UNL     1       5.415   3.315  12.958  0.00  0.00    +0.000 A 
ATOM     19  C   UNL     1       6.669   3.417  12.354  0.00  0.00    +0.000 A 
ATOM     20  C   UNL     1       7.570   4.375  12.812  0.00  0.00    +0.000 A 
ATOM     21  C   UNL     1       7.194   5.258  13.830  0.00  0.00    +0.000 A 
BRANCH  19  22
ATOM     22  O   UNL     1       6.923   2.520  11.351  0.00  0.00    +0.000 OA
ATOM     23  C   UNL     1       6.057   1.390  11.318  0.00  0.00    +0.000 C 
ENDBRANCH  19  22
ENDBRANCH  15  16
ENDBRANCH   5  15
TORSDOF 5
ENDMDL
MODEL 9
REMARK VINA RESULT:      -6.3      2.107      3.709
REMARK  Name = 
REMARK  7 active torsions:
REMARK  status: ('A' for Active; 'I' for Inactive)
REMARK    1  A    between atoms: C_1  and  C_2
REMARK    2  A    between atoms: C_2  and  S_3
REMARK    3  A    between atoms: S_3  and  N_6
REMARK    4  A    between atoms: N_10  and  C_11
REMARK    5  A    between atoms: C_11  and  C_12
REMARK    6  A    between atoms: C_15  and  O_16
REMARK    7  A    between atoms: O_16  and  C_17
REMARK                            x       y       z     vdW  Elec       q    Type
REMARK                         _______ _______ _______ _____ _____    ______ ____
ROOT
ATOM      1  N   UNL     1       2.342   1.799  19.927  0.00  0.00    +0.000 NA
ATOM      2  C   UNL     1       2.562   2.633  21.155  0.00  0.00    +0.000 C 
ATOM      3  C   UNL     1       1.514   3.753  21.144  0.00  0.00    +0.000 C 
ATOM      4  C   UNL     1       2.088   5.167  21.165  0.00  0.00    +0.000 C 
ATOM      5  N   UNL     1       2.221   5.526  19.775  0.00  0.00    +0.000 N 
ATOM      6  C   UNL     1       1.538   4.670  18.928  0.00  0.00    +0.000 C 
ATOM      7  O   UNL     1       1.443   4.735  17.714  0.00  0.00    +0.000 OA
ATOM      8  C   UNL     1       0.834   3.653  19.789  0.00  0.00    +0.000 C 
ATOM      9  C   UNL     1       1.065   2.244  19.311  0.00  0.00    +0.000 C 
ENDROOT
BRANCH   1  10
ATOM     10  S   UNL     1       3.733   1.668  18.956  0.00  0.00    +0.000 S 
ATOM     11  O   UNL     1       4.087   0.262  18.950  0.00  0.00    +0.000 OA
ATOM     12  O   UNL     1       4.679   2.655  19.423  0.00  0.00    +0.000 OA
BRANCH  10  14
ATOM     13  C   UNL     1       4.140   3.098  16.669  0.00  0.00    +0.000 C 
ATOM     14  C   UNL     1       3.173   2.121  17.312  0.00  0.00    +0.000 C 
ENDBRANCH  10  14
ENDBRANCH   1  10
BRANCH   5  15
ATOM     15  C   UNL     1       2.940   6.706  19.330  0.00  0.00    +0.000 C 
BRANCH  15  16
ATOM     16  C   UNL     1       4.110   6.408  18.417  0.00  0.00    +0.000 A 
ATOM     17  C   UNL     1       4.111   6.825  17.081  0.00  0.00    +0.000 A 
ATOM     18  C   UNL     1       5.244   6.641  16.279  0.00  0.00    +0.000 A 
ATOM     19  C   UNL     1       6.396   6.050  16.800  0.00  0.00    +0.000 A 
ATOM     20  C   UNL     1       6.391   5.590  18.114  0.00  0.00    +0.000 A 
ATOM     21  C   UNL     1       5.258   5.774  18.914  0.00  0.00    +0.000 A 
BRANCH  19  22
ATOM     22  O   UNL     1       7.454   5.944  15.938  0.00  0.00    +0.000 OA
ATOM     23  C   UNL     1       7.366   4.875  15.001  0.00  0.00    +0.000 C 
ENDBRANCH  19  22
ENDBRANCH  15  16
ENDBRANCH   5  15
TORSDOF 5
ENDMDL
