MODEL 1
REMARK VINA RESULT:      -9.0      0.000      0.000
REMARK  Name = 
REMARK  4 active torsions:
REMARK  status: ('A' for Active; 'I' for Inactive)
REMARK    1  A    between atoms: C_2  and  O_3
REMARK    2  A    between atoms: C_2  and  C_4
REMARK    3  A    between atoms: N_12  and  C_13
REMARK    4  A    between atoms: C_17  and  C_18
REMARK                            x       y       z     vdW  Elec       q    Type
REMARK                         _______ _______ _______ _____ _____    ______ ____
ROOT
ATOM      1  C   UNL     1       1.811   7.986  19.418  0.00  0.00    +0.000 A 
ATOM      2  C   UNL     1       1.842   7.950  20.820  0.00  0.00    +0.000 A 
ATOM      3  C   UNL     1       1.049   8.816  21.573  0.00  0.00    +0.000 A 
ATOM      4  C   UNL     1       0.167   9.685  20.937  0.00  0.00    +0.000 A 
ATOM      5  C   UNL     1       0.075   9.707  19.540  0.00  0.00    +0.000 A 
ATOM      6  C   UNL     1       0.941   8.894  18.793  0.00  0.00    +0.000 A 
ENDROOT
BRANCH   1  15
ATOM      7  C   UNL     1       5.546   4.768  15.978  0.00  0.00    +0.000 A 
ATOM      8  C   UNL     1       5.013   3.681  16.714  0.00  0.00    +0.000 A 
ATOM      9  C   UNL     1       4.025   3.893  17.681  0.00  0.00    +0.000 A 
ATOM     10  C   UNL     1       3.604   5.194  17.885  0.00  0.00    +0.000 A 
ATOM     11  C   UNL     1       4.108   6.253  17.158  0.00  0.00    +0.000 A 
ATOM     12  C   UNL     1       5.095   6.078  16.207  0.00  0.00    +0.000 A 
ATOM     13  C   UNL     1       3.440   7.469  17.619  0.00  0.00    +0.000 C 
ATOM     14  O   UNL     1       3.695   8.558  17.144  0.00  0.00    +0.000 OA
ATOM     15  N   UNL     1       2.592   7.089  18.642  0.00  0.00    +0.000 N 
ATOM     16  C   UNL     1       2.647   5.727  18.846  0.00  0.00    +0.000 C 
ATOM     17  O   UNL     1       2.046   4.997  19.613  0.00  0.00    +0.000 OA
BRANCH   7  19
ATOM     18  O   UNL     1       7.615   5.301  14.949  0.00  0.00    +0.000 OA
ATOM     19  C   UNL     1       6.639   4.574  14.994  0.00  0.00    +0.000 C 
BRANCH  19  20
ATOM     20  O   UNL     1       6.436   3.548  14.144  0.00  0.00    +0.000 OA
ATOM     21  H   UNL     1       6.981   3.548  13.336  0.00  0.00    +0.000 HD
ENDBRANCH  19  20
ENDBRANCH   7  19
ENDBRANCH   1  15
BRANCH   5  22
ATOM     22  C   UNL     1      -1.015  10.449  18.912  0.00  0.00    +0.000 A 
ATOM     23  N   UNL     1      -1.948  11.175  19.503  0.00  0.00    +0.000 NA
ATOM     24  C   UNL     1      -2.883  11.369  18.522  0.00  0.00    +0.000 A 
ATOM     25  C   UNL     1      -4.142  11.973  18.571  0.00  0.00    +0.000 A 
ATOM     26  C   UNL     1      -4.910  11.964  17.401  0.00  0.00    +0.000 A 
ATOM     27 CL   UNL     1      -6.496  12.636  17.438  0.00  0.00    +0.000 Cl
ATOM     28  C   UNL     1      -4.430  11.403  16.210  0.00  0.00    +0.000 A 
ATOM     29  C   UNL     1      -3.160  10.812  16.145  0.00  0.00    +0.000 A 
ATOM     30  C   UNL     1      -2.442  10.810  17.334  0.00  0.00    +0.000 A 
ATOM     31  O   UNL     1      -1.228  10.232  17.571  0.00  0.00    +0.000 OA
ENDBRANCH   5  22
TORSDOF 4
ENDMDL
MODEL 2
REMARK VINA RESULT:      -9.0      3.475      4.474
REMARK  Name = 
REMARK  4 active torsions:
REMARK  status: ('A' for Active; 'I' for Inactive)
REMARK    1  A    between atoms: C_2  and  O_3
REMARK    2  A    between atoms: C_2  and  C_4
REMARK    3  A    between atoms: N_12  and  C_13
REMARK    4  A    between atoms: C_17  and  C_18
REMARK                            x       y       z     vdW  Elec       q    Type
REMARK                         _______ _______ _______ _____ _____    ______ ____
ROOT
ATOM      1  C   UNL     1       3.443   4.957  19.057  0.00  0.00    +0.000 A 
ATOM      2  C   UNL     1       3.032   3.865  19.835  0.00  0.00    +0.000 A 
ATOM      3  C   UNL     1       2.173   4.043  20.919  0.00  0.00    +0.000 A 
ATOM      4  C   UNL     1       1.662   5.307  21.203  0.00  0.00    +0.000 A 
ATOM      5  C   UNL     1       2.012   6.408  20.414  0.00  0.00    +0.000 A 
ATOM      6  C   UNL     1       2.944   6.230  19.381  0.00  0.00    +0.000 A 
ENDROOT
BRANCH   1  15
ATOM      7  C   UNL     1       6.426   4.085  13.912  0.00  0.00    +0.000 A 
ATOM      8  C   UNL     1       7.434   4.834  14.568  0.00  0.00    +0.000 A 
ATOM      9  C   UNL     1       7.246   5.283  15.880  0.00  0.00    +0.000 A 
ATOM     10  C   UNL     1       6.046   4.971  16.492  0.00  0.00    +0.000 A 
ATOM     11  C   UNL     1       5.070   4.227  15.863  0.00  0.00    +0.000 A 
ATOM     12  C   UNL     1       5.219   3.782  14.563  0.00  0.00    +0.000 A 
ATOM     13  C   UNL     1       3.953   4.077  16.794  0.00  0.00    +0.000 C 
ATOM     14  O   UNL     1       2.950   3.460  16.496  0.00  0.00    +0.000 OA
ATOM     15  N   UNL     1       4.292   4.783  17.933  0.00  0.00    +0.000 N 
ATOM     16  C   UNL     1       5.546   5.342  17.810  0.00  0.00    +0.000 C 
ATOM     17  O   UNL     1       6.219   6.001  18.581  0.00  0.00    +0.000 OA
BRANCH   7  19
ATOM     18  O   UNL     1       7.231   4.287  11.690  0.00  0.00    +0.000 OA
ATOM     19  C   UNL     1       6.578   3.654  12.501  0.00  0.00    +0.000 C 
BRANCH  19  20
ATOM     20  O   UNL     1       5.908   2.525  12.197  0.00  0.00    +0.000 OA
ATOM     21  H   UNL     1       5.464   2.512  11.330  0.00  0.00    +0.000 HD
ENDBRANCH  19  20
ENDBRANCH   7  19
ENDBRANCH   1  15
BRANCH   5  22
ATOM     22  C   UNL     1       1.285   7.664  20.585  0.00  0.00    +0.000 A 
ATOM     23  N   UNL     1       1.434   8.786  19.903  0.00  0.00    +0.000 NA
ATOM     24  C   UNL     1       0.772   9.717  20.657  0.00  0.00    +0.000 A 
ATOM     25  C   UNL     1       0.667  11.103  20.506  0.00  0.00    +0.000 A 
ATOM     26  C   UNL     1      -0.036  11.809  21.489  0.00  0.00    +0.000 A 
ATOM     27 CL   UNL     1      -0.129  13.526  21.377  0.00  0.00    +0.000 Cl
ATOM     28  C   UNL     1      -0.643  11.158  22.571  0.00  0.00    +0.000 A 
ATOM     29  C   UNL     1      -0.560   9.766  22.722  0.00  0.00    +0.000 A 
ATOM     30  C   UNL     1       0.173   9.104  21.745  0.00  0.00    +0.000 A 
ATOM     31  O   UNL     1       0.481   7.775  21.695  0.00  0.00    +0.000 OA
ENDBRANCH   5  22
TORSDOF 4
ENDMDL
MODEL 3
REMARK VINA RESULT:      -9.0      2.880      4.024
REMARK  Name = 
REMARK  4 active torsions:
REMARK  status: ('A' for Active; 'I' for Inactive)
REMARK    1  A    between atoms: C_2  and  O_3
REMARK    2  A    between atoms: C_2  and  C_4
REMARK    3  A    between atoms: N_12  and  C_13
REMARK    4  A    between atoms: C_17  and  C_18
REMARK                            x       y       z     vdW  Elec       q    Type
REMARK                         _______ _______ _______ _____ _____    ______ ____
ROOT
ATOM      1  C   UNL     1       3.343   5.113  18.997  0.00  0.00    +0.000 A 
ATOM      2  C   UNL     1       2.746   4.038  19.671  0.00  0.00    +0.000 A 
ATOM      3  C   UNL     1       1.871   4.260  20.734  0.00  0.00    +0.000 A 
ATOM      4  C   UNL     1       1.530   5.560  21.097  0.00  0.00    +0.000 A 
ATOM      5  C   UNL     1       2.068   6.654  20.409  0.00  0.00    +0.000 A 
ATOM      6  C   UNL     1       3.015   6.418  19.400  0.00  0.00    +0.000 A 
ENDROOT
BRANCH   1  15
ATOM      7  C   UNL     1       6.414   4.076  13.934  0.00  0.00    +0.000 A 
ATOM      8  C   UNL     1       7.421   4.822  14.594  0.00  0.00    +0.000 A 
ATOM      9  C   UNL     1       7.215   5.303  15.891  0.00  0.00    +0.000 A 
ATOM     10  C   UNL     1       5.998   5.026  16.486  0.00  0.00    +0.000 A 
ATOM     11  C   UNL     1       5.022   4.285  15.853  0.00  0.00    +0.000 A 
ATOM     12  C   UNL     1       5.189   3.809  14.567  0.00  0.00    +0.000 A 
ATOM     13  C   UNL     1       3.884   4.175  16.764  0.00  0.00    +0.000 C 
ATOM     14  O   UNL     1       2.876   3.569  16.459  0.00  0.00    +0.000 OA
ATOM     15  N   UNL     1       4.212   4.899  17.894  0.00  0.00    +0.000 N 
ATOM     16  C   UNL     1       5.478   5.434  17.785  0.00  0.00    +0.000 C 
ATOM     17  O   UNL     1       6.147   6.098  18.555  0.00  0.00    +0.000 OA
BRANCH   7  19
ATOM     18  O   UNL     1       7.218   4.245  11.709  0.00  0.00    +0.000 OA
ATOM     19  C   UNL     1       6.586   3.611  12.536  0.00  0.00    +0.000 C 
BRANCH  19  20
ATOM     20  O   UNL     1       5.959   2.450  12.262  0.00  0.00    +0.000 OA
ATOM     21  H   UNL     1       6.460   1.638  12.459  0.00  0.00    +0.000 HD
ENDBRANCH  19  20
ENDBRANCH   7  19
ENDBRANCH   1  15
BRANCH   5  22
ATOM     22  C   UNL     1       1.518   7.986  20.650  0.00  0.00    +0.000 A 
ATOM     23  N   UNL     1       1.052   8.477  21.785  0.00  0.00    +0.000 NA
ATOM     24  C   UNL     1       0.376   9.603  21.401  0.00  0.00    +0.000 A 
ATOM     25  C   UNL     1      -0.415  10.487  22.141  0.00  0.00    +0.000 A 
ATOM     26  C   UNL     1      -1.041  11.529  21.449  0.00  0.00    +0.000 A 
ATOM     27 CL   UNL     1      -2.080  12.600  22.312  0.00  0.00    +0.000 Cl
ATOM     28  C   UNL     1      -0.863  11.709  20.070  0.00  0.00    +0.000 A 
ATOM     29  C   UNL     1      -0.057  10.840  19.322  0.00  0.00    +0.000 A 
ATOM     30  C   UNL     1       0.521   9.798  20.037  0.00  0.00    +0.000 A 
ATOM     31  O   UNL     1       1.274   8.771  19.548  0.00  0.00    +0.000 OA
ENDBRANCH   5  22
TORSDOF 4
ENDMDL
MODEL 4
REMARK VINA RESULT:      -8.9      2.716      4.078
REMARK  Name = 
REMARK  4 active torsions:
REMARK  status: ('A' for Active; 'I' for Inactive)
REMARK    1  A    between atoms: C_2  and  O_3
REMARK    2  A    between atoms: C_2  and  C_4
REMARK    3  A    between atoms: N_12  and  C_13
REMARK    4  A    between atoms: C_17  and  C_18
REMARK                            x       y       z     vdW  Elec       q    Type
REMARK                         _______ _______ _______ _____ _____    ______ ____
ROOT
ATOM      1  C   UNL     1       1.061  10.257  18.954  0.00  0.00    +0.000 A 
ATOM      2  C   UNL     1       1.922  11.364  18.919  0.00  0.00    +0.000 A 
ATOM      3  C   UNL     1       1.419  12.655  18.764  0.00  0.00    +0.000 A 
ATOM      4  C   UNL     1       0.044  12.865  18.706  0.00  0.00    +0.000 A 
ATOM      5  C   UNL     1      -0.844  11.787  18.791  0.00  0.00    +0.000 A 
ATOM      6  C   UNL     1      -0.321  10.486  18.858  0.00  0.00    +0.000 A 
ENDROOT
BRANCH   1  15
ATOM      7  C   UNL     1       2.662   4.615  20.271  0.00  0.00    +0.000 A 
ATOM      8  C   UNL     1       3.220   4.651  18.970  0.00  0.00    +0.000 A 
ATOM      9  C   UNL     1       3.146   5.813  18.196  0.00  0.00    +0.000 A 
ATOM     10  C   UNL     1       2.507   6.907  18.751  0.00  0.00    +0.000 A 
ATOM     11  C   UNL     1       1.978   6.881  20.025  0.00  0.00    +0.000 A 
ATOM     12  C   UNL     1       2.022   5.744  20.808  0.00  0.00    +0.000 A 
ATOM     13  C   UNL     1       1.395   8.195  20.292  0.00  0.00    +0.000 C 
ATOM     14  O   UNL     1       0.857   8.452  21.351  0.00  0.00    +0.000 OA
ATOM     15  N   UNL     1       1.561   8.941  19.141  0.00  0.00    +0.000 N 
ATOM     16  C   UNL     1       2.227   8.217  18.177  0.00  0.00    +0.000 C 
ATOM     17  O   UNL     1       2.595   8.508  17.053  0.00  0.00    +0.000 OA
BRANCH   7  19
ATOM     18  O   UNL     1       1.924   3.205  22.030  0.00  0.00    +0.000 OA
ATOM     19  C   UNL     1       2.673   3.374  21.084  0.00  0.00    +0.000 C 
BRANCH  19  20
ATOM     20  O   UNL     1       3.601   2.475  20.700  0.00  0.00    +0.000 OA
ATOM     21  H   UNL     1       4.530   2.746  20.810  0.00  0.00    +0.000 HD
ENDBRANCH  19  20
ENDBRANCH   7  19
ENDBRANCH   1  15
BRANCH   5  22
ATOM     22  C   UNL     1      -2.270  12.052  18.965  0.00  0.00    +0.000 A 
ATOM     23  N   UNL     1      -2.865  12.647  19.984  0.00  0.00    +0.000 NA
ATOM     24  C   UNL     1      -4.190  12.350  19.808  0.00  0.00    +0.000 A 
ATOM     25  C   UNL     1      -5.298  12.613  20.618  0.00  0.00    +0.000 A 
ATOM     26  C   UNL     1      -6.538  12.121  20.199  0.00  0.00    +0.000 A 
ATOM     27 CL   UNL     1      -7.917  12.364  21.203  0.00  0.00    +0.000 Cl
ATOM     28  C   UNL     1      -6.682  11.417  18.995  0.00  0.00    +0.000 A 
ATOM     29  C   UNL     1      -5.580  11.164  18.165  0.00  0.00    +0.000 A 
ATOM     30  C   UNL     1      -4.361  11.639  18.631  0.00  0.00    +0.000 A 
ATOM     31  O   UNL     1      -3.129  11.460  18.071  0.00  0.00    +0.000 OA
ENDBRANCH   5  22
TORSDOF 4
ENDMDL
MODEL 5
REMARK VINA RESULT:      -8.8      2.304      3.260
REMARK  Name = 
REMARK  4 active torsions:
REMARK  status: ('A' for Active; 'I' for Inactive)
REMARK    1  A    between atoms: C_2  and  O_3
REMARK    2  A    between atoms: C_2  and  C_4
REMARK    3  A    between atoms: N_12  and  C_13
REMARK    4  A    between atoms: C_17  and  C_18
REMARK                            x       y       z     vdW  Elec       q    Type
REMARK                         _______ _______ _______ _____ _____    ______ ____
ROOT
ATOM      1  C   UNL     1       1.014  10.278  18.852  0.00  0.00    +0.000 A 
ATOM      2  C   UNL     1       1.883  11.379  18.833  0.00  0.00    +0.000 A 
ATOM      3  C   UNL     1       1.387  12.678  18.724  0.00  0.00    +0.000 A 
ATOM      4  C   UNL     1       0.012  12.899  18.697  0.00  0.00    +0.000 A 
ATOM      5  C   UNL     1      -0.882  11.825  18.768  0.00  0.00    +0.000 A 
ATOM      6  C   UNL     1      -0.369  10.519  18.788  0.00  0.00    +0.000 A 
ENDROOT
BRANCH   1  15
ATOM      7  C   UNL     1       3.591   4.848  18.925  0.00  0.00    +0.000 A 
ATOM      8  C   UNL     1       3.004   4.775  20.213  0.00  0.00    +0.000 A 
ATOM      9  C   UNL     1       2.223   5.829  20.699  0.00  0.00    +0.000 A 
ATOM     10  C   UNL     1       2.062   6.931  19.879  0.00  0.00    +0.000 A 
ATOM     11  C   UNL     1       2.618   6.998  18.619  0.00  0.00    +0.000 A 
ATOM     12  C   UNL     1       3.405   5.980  18.116  0.00  0.00    +0.000 A 
ATOM     13  C   UNL     1       2.239   8.283  18.032  0.00  0.00    +0.000 C 
ATOM     14  O   UNL     1       2.597   8.606  16.917  0.00  0.00    +0.000 OA
ATOM     15  N   UNL     1       1.506   8.954  18.992  0.00  0.00    +0.000 N 
ATOM     16  C   UNL     1       1.364   8.187  20.128  0.00  0.00    +0.000 C 
ATOM     17  O   UNL     1       0.775   8.388  21.174  0.00  0.00    +0.000 OA
BRANCH   7  19
ATOM     18  O   UNL     1       4.156   3.051  17.484  0.00  0.00    +0.000 OA
ATOM     19  C   UNL     1       4.473   3.770  18.415  0.00  0.00    +0.000 C 
BRANCH  19  20
ATOM     20  O   UNL     1       5.631   3.642  19.092  0.00  0.00    +0.000 OA
ATOM     21  H   UNL     1       5.931   2.730  19.258  0.00  0.00    +0.000 HD
ENDBRANCH  19  20
ENDBRANCH   7  19
ENDBRANCH   1  15
BRANCH   5  22
ATOM     22  C   UNL     1      -2.303  12.096  18.976  0.00  0.00    +0.000 A 
ATOM     23  N   UNL     1      -2.878  12.640  20.034  0.00  0.00    +0.000 NA
ATOM     24  C   UNL     1      -4.208  12.367  19.859  0.00  0.00    +0.000 A 
ATOM     25  C   UNL     1      -5.303  12.597  20.698  0.00  0.00    +0.000 A 
ATOM     26  C   UNL     1      -6.554  12.142  20.269  0.00  0.00    +0.000 A 
ATOM     27 CL   UNL     1      -7.916  12.343  21.304  0.00  0.00    +0.000 Cl
ATOM     28  C   UNL     1      -6.721  11.507  19.030  0.00  0.00    +0.000 A 
ATOM     29  C   UNL     1      -5.633  11.288  18.173  0.00  0.00    +0.000 A 
ATOM     30  C   UNL     1      -4.403  11.724  18.648  0.00  0.00    +0.000 A 
ATOM     31  O   UNL     1      -3.181  11.563  18.062  0.00  0.00    +0.000 OA
ENDBRANCH   5  22
TORSDOF 4
ENDMDL
MODEL 6
REMARK VINA RESULT:      -8.7      1.159      1.417
REMARK  Name = 
REMARK  4 active torsions:
REMARK  status: ('A' for Active; 'I' for Inactive)
REMARK    1  A    between atoms: C_2  and  O_3
REMARK    2  A    between atoms: C_2  and  C_4
REMARK    3  A    between atoms: N_12  and  C_13
REMARK    4  A    between atoms: C_17  and  C_18
REMARK                            x       y       z     vdW  Elec       q    Type
REMARK                         _______ _______ _______ _____ _____    ______ ____
ROOT
ATOM      1  C   UNL     1       1.139   8.993  20.153  0.00  0.00    +0.000 A 
ATOM      2  C   UNL     1       1.281   9.184  21.536  0.00  0.00    +0.000 A 
ATOM      3  C   UNL     1       0.526  10.147  22.205  0.00  0.00    +0.000 A 
ATOM      4  C   UNL     1      -0.429  10.887  21.513  0.00  0.00    +0.000 A 
ATOM      5  C   UNL     1      -0.633  10.682  20.144  0.00  0.00    +0.000 A 
ATOM      6  C   UNL     1       0.195   9.774  19.466  0.00  0.00    +0.000 A 
ENDROOT
BRANCH   1  15
ATOM      7  C   UNL     1       4.658   5.327  16.943  0.00  0.00    +0.000 A 
ATOM      8  C   UNL     1       4.278   4.380  17.925  0.00  0.00    +0.000 A 
ATOM      9  C   UNL     1       3.391   4.733  18.948  0.00  0.00    +0.000 A 
ATOM     10  C   UNL     1       2.918   6.033  18.958  0.00  0.00    +0.000 A 
ATOM     11  C   UNL     1       3.273   6.952  17.993  0.00  0.00    +0.000 A 
ATOM     12  C   UNL     1       4.157   6.638  16.979  0.00  0.00    +0.000 A 
ATOM     13  C   UNL     1       2.587   8.207  18.298  0.00  0.00    +0.000 C 
ATOM     14  O   UNL     1       2.721   9.194  17.603  0.00  0.00    +0.000 OA
ATOM     15  N   UNL     1       1.882   7.996  19.468  0.00  0.00    +0.000 N 
ATOM     16  C   UNL     1       2.042   6.701  19.912  0.00  0.00    +0.000 C 
ATOM     17  O   UNL     1       1.576   6.108  20.867  0.00  0.00    +0.000 OA
BRANCH   7  19
ATOM     18  O   UNL     1       5.913   5.755  14.976  0.00  0.00    +0.000 OA
ATOM     19  C   UNL     1       5.645   4.992  15.887  0.00  0.00    +0.000 C 
BRANCH  19  20
ATOM     20  O   UNL     1       6.188   3.764  16.012  0.00  0.00    +0.000 OA
ATOM     21  H   UNL     1       6.166   3.377  16.906  0.00  0.00    +0.000 HD
ENDBRANCH  19  20
ENDBRANCH   7  19
ENDBRANCH   1  15
BRANCH   5  22
ATOM     22  C   UNL     1      -1.791  11.296  19.497  0.00  0.00    +0.000 A 
ATOM     23  N   UNL     1      -2.752  12.006  20.062  0.00  0.00    +0.000 NA
ATOM     24  C   UNL     1      -3.728  12.055  19.103  0.00  0.00    +0.000 A 
ATOM     25  C   UNL     1      -5.024  12.575  19.149  0.00  0.00    +0.000 A 
ATOM     26  C   UNL     1      -5.826  12.418  18.013  0.00  0.00    +0.000 A 
ATOM     27 CL   UNL     1      -7.453  12.984  18.054  0.00  0.00    +0.000 Cl
ATOM     28  C   UNL     1      -5.346  11.792  16.855  0.00  0.00    +0.000 A 
ATOM     29  C   UNL     1      -4.041  11.282  16.791  0.00  0.00    +0.000 A 
ATOM     30  C   UNL     1      -3.287  11.428  17.949  0.00  0.00    +0.000 A 
ATOM     31  O   UNL     1      -2.030  10.954  18.188  0.00  0.00    +0.000 OA
ENDBRANCH   5  22
TORSDOF 4
ENDMDL
MODEL 7
REMARK VINA RESULT:      -8.5      3.240      4.646
REMARK  Name = 
REMARK  4 active torsions:
REMARK  status: ('A' for Active; 'I' for Inactive)
REMARK    1  A    between atoms: C_2  and  O_3
REMARK    2  A    between atoms: C_2  and  C_4
REMARK    3  A    between atoms: N_12  and  C_13
REMARK    4  A    between atoms: C_17  and  C_18
REMARK                            x       y       z     vdW  Elec       q    Type
REMARK                         _______ _______ _______ _____ _____    ______ ____
ROOT
ATOM      1  C   UNL     1       0.628  10.841  19.478  0.00  0.00    +0.000 A 
ATOM      2  C   UNL     1       1.477  11.952  19.368  0.00  0.00    +0.000 A 
ATOM      3  C   UNL     1       0.962  13.248  19.366  0.00  0.00    +0.000 A 
ATOM      4  C   UNL     1      -0.404  13.455  19.539  0.00  0.00    +0.000 A 
ATOM      5  C   UNL     1      -1.272  12.369  19.705  0.00  0.00    +0.000 A 
ATOM      6  C   UNL     1      -0.752  11.069  19.616  0.00  0.00    +0.000 A 
ENDROOT
BRANCH   1  15
ATOM      7  C   UNL     1       2.322   5.113  20.149  0.00  0.00    +0.000 A 
ATOM      8  C   UNL     1       2.831   5.289  18.839  0.00  0.00    +0.000 A 
ATOM      9  C   UNL     1       2.720   6.524  18.192  0.00  0.00    +0.000 A 
ATOM     10  C   UNL     1       2.092   7.547  18.880  0.00  0.00    +0.000 A 
ATOM     11  C   UNL     1       1.611   7.384  20.162  0.00  0.00    +0.000 A 
ATOM     12  C   UNL     1       1.692   6.173  20.822  0.00  0.00    +0.000 A 
ATOM     13  C   UNL     1       1.027   8.657  20.584  0.00  0.00    +0.000 C 
ATOM     14  O   UNL     1       0.526   8.797  21.682  0.00  0.00    +0.000 OA
ATOM     15  N   UNL     1       1.144   9.519  19.511  0.00  0.00    +0.000 N 
ATOM     16  C   UNL     1       1.781   8.906  18.454  0.00  0.00    +0.000 C 
ATOM     17  O   UNL     1       2.105   9.315  17.354  0.00  0.00    +0.000 OA
BRANCH   7  19
ATOM     18  O   UNL     1       2.348   3.683  22.041  0.00  0.00    +0.000 OA
ATOM     19  C   UNL     1       2.373   3.795  20.828  0.00  0.00    +0.000 C 
BRANCH  19  20
ATOM     20  O   UNL     1       2.479   2.748  19.987  0.00  0.00    +0.000 OA
ATOM     21  H   UNL     1       1.711   2.150  19.949  0.00  0.00    +0.000 HD
ENDBRANCH  19  20
ENDBRANCH   7  19
ENDBRANCH   1  15
BRANCH   5  22
ATOM     22  C   UNL     1      -2.651  12.619  20.118  0.00  0.00    +0.000 A 
ATOM     23  N   UNL     1      -3.080  13.062  21.286  0.00  0.00    +0.000 NA
ATOM     24  C   UNL     1      -4.424  12.806  21.260  0.00  0.00    +0.000 A 
ATOM     25  C   UNL     1      -5.399  12.956  22.250  0.00  0.00    +0.000 A 
ATOM     26  C   UNL     1      -6.700  12.543  21.945  0.00  0.00    +0.000 A 
ATOM     27 CL   UNL     1      -7.917  12.647  23.162  0.00  0.00    +0.000 Cl
ATOM     28  C   UNL     1      -7.032  12.025  20.686  0.00  0.00    +0.000 A 
ATOM     29  C   UNL     1      -6.066  11.887  19.679  0.00  0.00    +0.000 A 
ATOM     30  C   UNL     1      -4.780  12.277  20.030  0.00  0.00    +0.000 A 
ATOM     31  O   UNL     1      -3.645  12.173  19.279  0.00  0.00    +0.000 OA
ENDBRANCH   5  22
TORSDOF 4
ENDMDL
MODEL 8
REMARK VINA RESULT:      -8.4      4.534     10.130
REMARK  Name = 
REMARK  4 active torsions:
REMARK  status: ('A' for Active; 'I' for Inactive)
REMARK    1  A    between atoms: C_2  and  O_3
REMARK    2  A    between atoms: C_2  and  C_4
REMARK    3  A    between atoms: N_12  and  C_13
REMARK    4  A    between atoms: C_17  and  C_18
REMARK                            x       y       z     vdW  Elec       q    Type
REMARK                         _______ _______ _______ _____ _____    ______ ____
ROOT
ATOM      1  C   UNL     1       0.584  10.232  19.728  0.00  0.00    +0.000 A 
ATOM      2  C   UNL     1       1.064  10.819  18.549  0.00  0.00    +0.000 A 
ATOM      3  C   UNL     1       2.050  10.191  17.788  0.00  0.00    +0.000 A 
ATOM      4  C   UNL     1       2.524   8.936  18.162  0.00  0.00    +0.000 A 
ATOM      5  C   UNL     1       2.026   8.299  19.304  0.00  0.00    +0.000 A 
ATOM      6  C   UNL     1       1.100   8.981  20.108  0.00  0.00    +0.000 A 
ENDROOT
BRANCH   1  15
ATOM      7  C   UNL     1      -3.250  12.911  23.505  0.00  0.00    +0.000 A 
ATOM      8  C   UNL     1      -3.950  13.210  22.310  0.00  0.00    +0.000 A 
ATOM      9  C   UNL     1      -3.472  12.762  21.074  0.00  0.00    +0.000 A 
ATOM     10  C   UNL     1      -2.298  12.032  21.074  0.00  0.00    +0.000 A 
ATOM     11  C   UNL     1      -1.623  11.724  22.236  0.00  0.00    +0.000 A 
ATOM     12  C   UNL     1      -2.061  12.164  23.471  0.00  0.00    +0.000 A 
ATOM     13  C   UNL     1      -0.444  10.939  21.873  0.00  0.00    +0.000 C 
ATOM     14  O   UNL     1       0.335  10.531  22.711  0.00  0.00    +0.000 OA
ATOM     15  N   UNL     1      -0.440  10.849  20.494  0.00  0.00    +0.000 N 
ATOM     16  C   UNL     1      -1.536  11.488  19.956  0.00  0.00    +0.000 C 
ATOM     17  O   UNL     1      -1.919  11.614  18.808  0.00  0.00    +0.000 OA
BRANCH   7  19
ATOM     18  O   UNL     1      -3.393  14.534  25.229  0.00  0.00    +0.000 OA
ATOM     19  C   UNL     1      -3.704  13.429  24.818  0.00  0.00    +0.000 C 
BRANCH  19  20
ATOM     20  O   UNL     1      -4.459  12.561  25.519  0.00  0.00    +0.000 OA
ATOM     21  H   UNL     1      -5.150  12.953  26.083  0.00  0.00    +0.000 HD
ENDBRANCH  19  20
ENDBRANCH   7  19
ENDBRANCH   1  15
BRANCH   5  22
ATOM     22  C   UNL     1       2.362   6.897  19.540  0.00  0.00    +0.000 A 
ATOM     23  N   UNL     1       3.317   6.185  18.968  0.00  0.00    +0.000 NA
ATOM     24  C   UNL     1       2.997   4.893  19.286  0.00  0.00    +0.000 A 
ATOM     25  C   UNL     1       3.573   3.686  18.881  0.00  0.00    +0.000 A 
ATOM     26  C   UNL     1       2.978   2.502  19.329  0.00  0.00    +0.000 A 
ATOM     27 CL   UNL     1       3.616   0.992  18.796  0.00  0.00    +0.000 Cl
ATOM     28  C   UNL     1       1.863   2.514  20.178  0.00  0.00    +0.000 A 
ATOM     29  C   UNL     1       1.288   3.719  20.606  0.00  0.00    +0.000 A 
ATOM     30  C   UNL     1       1.887   4.872  20.115  0.00  0.00    +0.000 A 
ATOM     31  O   UNL     1       1.483   6.163  20.301  0.00  0.00    +0.000 OA
ENDBRANCH   5  22
TORSDOF 4
ENDMDL
MODEL 9
REMARK VINA RESULT:      -8.4      2.820      3.830
REMARK  Name = 
REMARK  4 active torsions:
REMARK  status: ('A' for Active; 'I' for Inactive)
REMARK    1  A    between atoms: C_2  and  O_3
REMARK    2  A    between atoms: C_2  and  C_4
REMARK    3  A    between atoms: N_12  and  C_13
REMARK    4  A    between atoms: C_17  and  C_18
REMARK                            x       y       z     vdW  Elec       q    Type
REMARK                         _______ _______ _______ _____ _____    ______ ____
ROOT
ATOM      1  C   UNL     1       1.135  10.333  19.045  0.00  0.00    +0.000 A 
ATOM      2  C   UNL     1       2.001  11.340  18.592  0.00  0.00    +0.000 A 
ATOM      3  C   UNL     1       1.581  12.669  18.533  0.00  0.00    +0.000 A 
ATOM      4  C   UNL     1       0.312  13.020  18.985  0.00  0.00    +0.000 A 
ATOM      5  C   UNL     1      -0.556  12.046  19.493  0.00  0.00    +0.000 A 
ATOM      6  C   UNL     1      -0.154  10.702  19.464  0.00  0.00    +0.000 A 
ENDROOT
BRANCH   1  15
ATOM      7  C   UNL     1       3.424   4.777  18.902  0.00  0.00    +0.000 A 
ATOM      8  C   UNL     1       2.879   4.703  20.208  0.00  0.00    +0.000 A 
ATOM      9  C   UNL     1       2.173   5.784  20.746  0.00  0.00    +0.000 A 
ATOM     10  C   UNL     1       2.041   6.912  19.958  0.00  0.00    +0.000 A 
ATOM     11  C   UNL     1       2.555   6.981  18.680  0.00  0.00    +0.000 A 
ATOM     12  C   UNL     1       3.270   5.936  18.126  0.00  0.00    +0.000 A 
ATOM     13  C   UNL     1       2.225   8.298  18.137  0.00  0.00    +0.000 C 
ATOM     14  O   UNL     1       2.559   8.629  17.017  0.00  0.00    +0.000 OA
ATOM     15  N   UNL     1       1.562   8.982  19.137  0.00  0.00    +0.000 N 
ATOM     16  C   UNL     1       1.420   8.196  20.260  0.00  0.00    +0.000 C 
ATOM     17  O   UNL     1       0.879   8.402  21.331  0.00  0.00    +0.000 OA
BRANCH   7  19
ATOM     18  O   UNL     1       3.956   3.135  17.275  0.00  0.00    +0.000 OA
ATOM     19  C   UNL     1       4.230   3.667  18.337  0.00  0.00    +0.000 C 
BRANCH  19  20
ATOM     20  O   UNL     1       5.263   3.287  19.114  0.00  0.00    +0.000 OA
ATOM     21  H   UNL     1       6.097   3.774  18.984  0.00  0.00    +0.000 HD
ENDBRANCH  19  20
ENDBRANCH   7  19
ENDBRANCH   1  15
BRANCH   5  22
ATOM     22  C   UNL     1      -1.778  12.468  20.174  0.00  0.00    +0.000 A 
ATOM     23  N   UNL     1      -1.932  12.763  21.453  0.00  0.00    +0.000 NA
ATOM     24  C   UNL     1      -3.290  12.771  21.625  0.00  0.00    +0.000 A 
ATOM     25  C   UNL     1      -4.060  12.917  22.782  0.00  0.00    +0.000 A 
ATOM     26  C   UNL     1      -5.449  12.815  22.652  0.00  0.00    +0.000 A 
ATOM     27 CL   UNL     1      -6.430  12.920  24.065  0.00  0.00    +0.000 Cl
ATOM     28  C   UNL     1      -6.059  12.606  21.408  0.00  0.00    +0.000 A 
ATOM     29  C   UNL     1      -5.297  12.477  20.238  0.00  0.00    +0.000 A 
ATOM     30  C   UNL     1      -3.921  12.550  20.411  0.00  0.00    +0.000 A 
ATOM     31  O   UNL     1      -2.952  12.375  19.466  0.00  0.00    +0.000 OA
ENDBRANCH   5  22
TORSDOF 4
ENDMDL
