MODEL 1
REMARK VINA RESULT:      -6.6      0.000      0.000
REMARK  Name = 
REMARK  11 active torsions:
REMARK  status: ('A' for Active; 'I' for Inactive)
REMARK    1  A    between atoms: C_1  and  C_2
REMARK    2  A    between atoms: C_6  and  C_7
REMARK    3  A    between atoms: C_15  and  C_16
REMARK    4  A    between atoms: C_22  and  C_23
REMARK    5  A    between atoms: C_23  and  O_24
REMARK    6  A    between atoms: C_23  and  C_29
REMARK    7  A    between atoms: O_24  and  C_25
REMARK    8  A    between atoms: C_25  and  C_26
REMARK    9  A    between atoms: C_25  and  C_27
REMARK   10  A    between atoms: C_25  and  C_28
REMARK   11  A    between atoms: C_29  and  O_31
REMARK                            x       y       z     vdW  Elec       q    Type
REMARK                         _______ _______ _______ _____ _____    ______ ____
ROOT
ATOM      1  C   UNL     1      -1.207  13.315  23.291  0.00  0.00    +0.000 C 
ATOM      2  C   UNL     1      -1.013  12.300  22.201  0.00  0.00    +0.000 A 
ATOM      3  N   UNL     1      -0.032  11.489  22.459  0.00  0.00    +0.000 NA
ATOM      4  C   UNL     1       0.265  10.565  21.541  0.00  0.00    +0.000 A 
ATOM      5  C   UNL     1       1.126   9.505  21.628  0.00  0.00    +0.000 A 
ATOM      6  C   UNL     1       1.069   8.869  20.376  0.00  0.00    +0.000 A 
ATOM      7  N   UNL     1       0.283   9.556  19.538  0.00  0.00    +0.000 NA
ATOM      8  N   UNL     1      -0.338  10.519  20.290  0.00  0.00    +0.000 N 
ATOM      9  C   UNL     1      -1.470  11.355  19.965  0.00  0.00    +0.000 A 
ATOM     10  C   UNL     1      -1.892  12.250  20.942  0.00  0.00    +0.000 A 
ENDROOT
BRANCH   6  11
ATOM     11  C   UNL     1       1.760   7.642  19.979  0.00  0.00    +0.000 A 
ATOM     12  C   UNL     1       2.477   7.583  18.771  0.00  0.00    +0.000 A 
ATOM     13  C   UNL     1       3.121   6.406  18.382  0.00  0.00    +0.000 A 
ATOM     14  C   UNL     1       3.057   5.278  19.195  0.00  0.00    +0.000 A 
ATOM     15  C   UNL     1       2.362   5.328  20.403  0.00  0.00    +0.000 A 
ATOM     16  C   UNL     1       1.722   6.505  20.796  0.00  0.00    +0.000 A 
ENDBRANCH   6  11
BRANCH   9  17
ATOM     17  C   UNL     1      -2.147  11.106  18.600  0.00  0.00    +0.000 A 
ATOM     18  C   UNL     1      -1.903  11.857  17.435  0.00  0.00    +0.000 A 
ATOM     19  C   UNL     1      -2.410  11.490  16.172  0.00  0.00    +0.000 A 
ATOM     20  C   UNL     1      -3.125  10.314  16.012  0.00  0.00    +0.000 A 
ATOM     21  C   UNL     1      -3.416   9.557  17.133  0.00  0.00    +0.000 A 
ATOM     22  C   UNL     1      -2.982   9.981  18.401  0.00  0.00    +0.000 A 
ENDBRANCH   9  17
BRANCH  10  23
ATOM     23  C   UNL     1      -3.194  13.036  20.907  0.00  0.00    +0.000 C 
BRANCH  23  24
ATOM     24  C   UNL     1      -4.661  12.619  20.523  0.00  0.00    +0.000 C 
ATOM     25  O   UNL     1      -5.516  12.106  21.221  0.00  0.00    +0.000 OA
BRANCH  24  26
ATOM     26  O   UNL     1      -4.949  12.989  19.238  0.00  0.00    +0.000 OA
ATOM     27  H   UNL     1      -5.818  13.445  19.191  0.00  0.00    +0.000 HD
ENDBRANCH  24  26
ENDBRANCH  23  24
BRANCH  23  28
ATOM     28  O   UNL     1      -2.968  14.411  20.536  0.00  0.00    +0.000 OA
BRANCH  28  29
ATOM     29  C   UNL     1      -3.526  15.488  21.314  0.00  0.00    +0.000 C 
ATOM     30  C   UNL     1      -4.093  15.022  22.659  0.00  0.00    +0.000 C 
ATOM     31  C   UNL     1      -2.328  16.420  21.559  0.00  0.00    +0.000 C 
ATOM     32  C   UNL     1      -4.588  16.320  20.584  0.00  0.00    +0.000 C 
ENDBRANCH  28  29
ENDBRANCH  23  28
ENDBRANCH  10  23
TORSDOF 7
ENDMDL
MODEL 2
REMARK VINA RESULT:      -6.4      0.278      1.306
REMARK  Name = 
REMARK  11 active torsions:
REMARK  status: ('A' for Active; 'I' for Inactive)
REMARK    1  A    between atoms: C_1  and  C_2
REMARK    2  A    between atoms: C_6  and  C_7
REMARK    3  A    between atoms: C_15  and  C_16
REMARK    4  A    between atoms: C_22  and  C_23
REMARK    5  A    between atoms: C_23  and  O_24
REMARK    6  A    between atoms: C_23  and  C_29
REMARK    7  A    between atoms: O_24  and  C_25
REMARK    8  A    between atoms: C_25  and  C_26
REMARK    9  A    between atoms: C_25  and  C_27
REMARK   10  A    between atoms: C_25  and  C_28
REMARK   11  A    between atoms: C_29  and  O_31
REMARK                            x       y       z     vdW  Elec       q    Type
REMARK                         _______ _______ _______ _____ _____    ______ ____
ROOT
ATOM      1  C   UNL     1      -1.216  13.267  23.380  0.00  0.00    +0.000 C 
ATOM      2  C   UNL     1      -1.022  12.277  22.267  0.00  0.00    +0.000 A 
ATOM      3  N   UNL     1      -0.037  11.466  22.503  0.00  0.00    +0.000 NA
ATOM      4  C   UNL     1       0.261  10.562  21.564  0.00  0.00    +0.000 A 
ATOM      5  C   UNL     1       1.126   9.505  21.625  0.00  0.00    +0.000 A 
ATOM      6  C   UNL     1       1.066   8.896  20.360  0.00  0.00    +0.000 A 
ATOM      7  N   UNL     1       0.274   9.598  19.540  0.00  0.00    +0.000 NA
ATOM      8  N   UNL     1      -0.348  10.541  20.315  0.00  0.00    +0.000 N 
ATOM      9  C   UNL     1      -1.485  11.379  20.014  0.00  0.00    +0.000 A 
ATOM     10  C   UNL     1      -1.907  12.250  21.011  0.00  0.00    +0.000 A 
ENDROOT
BRANCH   6  11
ATOM     11  C   UNL     1       1.761   7.681  19.933  0.00  0.00    +0.000 A 
ATOM     12  C   UNL     1       1.723   6.519  20.723  0.00  0.00    +0.000 A 
ATOM     13  C   UNL     1       2.402   5.365  20.325  0.00  0.00    +0.000 A 
ATOM     14  C   UNL     1       3.124   5.359  19.134  0.00  0.00    +0.000 A 
ATOM     15  C   UNL     1       3.157   6.500  18.334  0.00  0.00    +0.000 A 
ATOM     16  C   UNL     1       2.474   7.653  18.728  0.00  0.00    +0.000 A 
ENDBRANCH   6  11
BRANCH   9  17
ATOM     17  C   UNL     1      -2.167  11.157  18.646  0.00  0.00    +0.000 A 
ATOM     18  C   UNL     1      -1.883  11.891  17.480  0.00  0.00    +0.000 A 
ATOM     19  C   UNL     1      -2.401  11.544  16.216  0.00  0.00    +0.000 A 
ATOM     20  C   UNL     1      -3.169  10.401  16.057  0.00  0.00    +0.000 A 
ATOM     21  C   UNL     1      -3.499   9.663  17.178  0.00  0.00    +0.000 A 
ATOM     22  C   UNL     1      -3.053  10.071  18.447  0.00  0.00    +0.000 A 
ENDBRANCH   9  17
BRANCH  10  23
ATOM     23  C   UNL     1      -3.212  13.032  20.999  0.00  0.00    +0.000 C 
BRANCH  23  24
ATOM     24  C   UNL     1      -4.707  12.574  20.820  0.00  0.00    +0.000 C 
ATOM     25  O   UNL     1      -5.350  12.454  19.794  0.00  0.00    +0.000 OA
BRANCH  24  26
ATOM     26  O   UNL     1      -5.251  12.213  22.022  0.00  0.00    +0.000 OA
ATOM     27  H   UNL     1      -5.584  11.290  21.992  0.00  0.00    +0.000 HD
ENDBRANCH  24  26
ENDBRANCH  23  24
BRANCH  23  28
ATOM     28  O   UNL     1      -3.035  14.343  20.427  0.00  0.00    +0.000 OA
BRANCH  28  29
ATOM     29  C   UNL     1      -3.198  15.528  21.231  0.00  0.00    +0.000 C 
ATOM     30  C   UNL     1      -1.893  16.311  21.411  0.00  0.00    +0.000 C 
ATOM     31  C   UNL     1      -4.199  16.377  20.430  0.00  0.00    +0.000 C 
ATOM     32  C   UNL     1      -3.831  15.285  22.608  0.00  0.00    +0.000 C 
ENDBRANCH  28  29
ENDBRANCH  23  28
ENDBRANCH  10  23
TORSDOF 7
ENDMDL
MODEL 3
REMARK VINA RESULT:      -6.3      0.899      2.090
REMARK  Name = 
REMARK  11 active torsions:
REMARK  status: ('A' for Active; 'I' for Inactive)
REMARK    1  A    between atoms: C_1  and  C_2
REMARK    2  A    between atoms: C_6  and  C_7
REMARK    3  A    between atoms: C_15  and  C_16
REMARK    4  A    between atoms: C_22  and  C_23
REMARK    5  A    between atoms: C_23  and  O_24
REMARK    6  A    between atoms: C_23  and  C_29
REMARK    7  A    between atoms: O_24  and  C_25
REMARK    8  A    between atoms: C_25  and  C_26
REMARK    9  A    between atoms: C_25  and  C_27
REMARK   10  A    between atoms: C_25  and  C_28
REMARK   11  A    between atoms: C_29  and  O_31
REMARK                            x       y       z     vdW  Elec       q    Type
REMARK                         _______ _______ _______ _____ _____    ______ ____
ROOT
ATOM      1  C   UNL     1      -1.399  13.426  23.060  0.00  0.00    +0.000 C 
ATOM      2  C   UNL     1      -1.179  12.394  21.991  0.00  0.00    +0.000 A 
ATOM      3  N   UNL     1      -0.183  11.609  22.270  0.00  0.00    +0.000 NA
ATOM      4  C   UNL     1       0.137  10.672  21.372  0.00  0.00    +0.000 A 
ATOM      5  C   UNL     1       1.018   9.632  21.484  0.00  0.00    +0.000 A 
ATOM      6  C   UNL     1       0.980   8.970  20.245  0.00  0.00    +0.000 A 
ATOM      7  N   UNL     1       0.184   9.625  19.389  0.00  0.00    +0.000 NA
ATOM      8  N   UNL     1      -0.459  10.589  20.120  0.00  0.00    +0.000 N 
ATOM      9  C   UNL     1      -1.607  11.396  19.773  0.00  0.00    +0.000 A 
ATOM     10  C   UNL     1      -2.051  12.301  20.730  0.00  0.00    +0.000 A 
ENDROOT
BRANCH   6  11
ATOM     11  C   UNL     1       1.698   7.750  19.875  0.00  0.00    +0.000 A 
ATOM     12  C   UNL     1       2.431   7.686  18.678  0.00  0.00    +0.000 A 
ATOM     13  C   UNL     1       3.100   6.515  18.315  0.00  0.00    +0.000 A 
ATOM     14  C   UNL     1       3.045   5.398  19.144  0.00  0.00    +0.000 A 
ATOM     15  C   UNL     1       2.335   5.453  20.342  0.00  0.00    +0.000 A 
ATOM     16  C   UNL     1       1.669   6.625  20.709  0.00  0.00    +0.000 A 
ENDBRANCH   6  11
BRANCH   9  17
ATOM     17  C   UNL     1      -2.272  11.106  18.410  0.00  0.00    +0.000 A 
ATOM     18  C   UNL     1      -2.025  11.829  17.228  0.00  0.00    +0.000 A 
ATOM     19  C   UNL     1      -2.521  11.425  15.971  0.00  0.00    +0.000 A 
ATOM     20  C   UNL     1      -3.225  10.240  15.837  0.00  0.00    +0.000 A 
ATOM     21  C   UNL     1      -3.517   9.510  16.974  0.00  0.00    +0.000 A 
ATOM     22  C   UNL     1      -3.096   9.970  18.234  0.00  0.00    +0.000 A 
ENDBRANCH   9  17
BRANCH  10  23
ATOM     23  C   UNL     1      -3.369  13.060  20.674  0.00  0.00    +0.000 C 
BRANCH  23  24
ATOM     24  C   UNL     1      -3.752  14.528  21.089  0.00  0.00    +0.000 C 
ATOM     25  O   UNL     1      -4.297  14.916  22.106  0.00  0.00    +0.000 OA
BRANCH  24  26
ATOM     26  O   UNL     1      -3.308  15.427  20.158  0.00  0.00    +0.000 OA
ATOM     27  H   UNL     1      -2.329  15.496  20.176  0.00  0.00    +0.000 HD
ENDBRANCH  24  26
ENDBRANCH  23  24
BRANCH  23  28
ATOM     28  O   UNL     1      -4.490  12.184  20.901  0.00  0.00    +0.000 OA
BRANCH  28  29
ATOM     29  C   UNL     1      -5.685  12.290  20.102  0.00  0.00    +0.000 C 
ATOM     30  C   UNL     1      -5.414  12.816  18.689  0.00  0.00    +0.000 C 
ATOM     31  C   UNL     1      -6.198  10.843  20.020  0.00  0.00    +0.000 C 
ATOM     32  C   UNL     1      -6.809  13.119  20.739  0.00  0.00    +0.000 C 
ENDBRANCH  28  29
ENDBRANCH  23  28
ENDBRANCH  10  23
TORSDOF 7
ENDMDL
MODEL 4
REMARK VINA RESULT:      -6.3      0.393      1.197
REMARK  Name = 
REMARK  11 active torsions:
REMARK  status: ('A' for Active; 'I' for Inactive)
REMARK    1  A    between atoms: C_1  and  C_2
REMARK    2  A    between atoms: C_6  and  C_7
REMARK    3  A    between atoms: C_15  and  C_16
REMARK    4  A    between atoms: C_22  and  C_23
REMARK    5  A    between atoms: C_23  and  O_24
REMARK    6  A    between atoms: C_23  and  C_29
REMARK    7  A    between atoms: O_24  and  C_25
REMARK    8  A    between atoms: C_25  and  C_26
REMARK    9  A    between atoms: C_25  and  C_27
REMARK   10  A    between atoms: C_25  and  C_28
REMARK   11  A    between atoms: C_29  and  O_31
REMARK                            x       y       z     vdW  Elec       q    Type
REMARK                         _______ _______ _______ _____ _____    ______ ____
ROOT
ATOM      1  C   UNL     1      -1.214  12.915  23.351  0.00  0.00    +0.000 C 
ATOM      2  C   UNL     1      -0.971  11.928  22.246  0.00  0.00    +0.000 A 
ATOM      3  N   UNL     1      -0.031  11.083  22.545  0.00  0.00    +0.000 NA
ATOM      4  C   UNL     1       0.305  10.178  21.621  0.00  0.00    +0.000 A 
ATOM      5  C   UNL     1       1.130   9.092  21.734  0.00  0.00    +0.000 A 
ATOM      6  C   UNL     1       1.143   8.495  20.463  0.00  0.00    +0.000 A 
ATOM      7  N   UNL     1       0.435   9.228  19.594  0.00  0.00    +0.000 NA
ATOM      8  N   UNL     1      -0.211  10.185  20.331  0.00  0.00    +0.000 N 
ATOM      9  C   UNL     1      -1.296  11.062  19.956  0.00  0.00    +0.000 A 
ATOM     10  C   UNL     1      -1.761  11.939  20.929  0.00  0.00    +0.000 A 
ENDROOT
BRANCH   6  11
ATOM     11  C   UNL     1       1.829   7.261  20.075  0.00  0.00    +0.000 A 
ATOM     12  C   UNL     1       2.660   7.230  18.943  0.00  0.00    +0.000 A 
ATOM     13  C   UNL     1       3.300   6.048  18.562  0.00  0.00    +0.000 A 
ATOM     14  C   UNL     1       3.116   4.887  19.309  0.00  0.00    +0.000 A 
ATOM     15  C   UNL     1       2.307   4.909  20.443  0.00  0.00    +0.000 A 
ATOM     16  C   UNL     1       1.671   6.091  20.828  0.00  0.00    +0.000 A 
ENDBRANCH   6  11
BRANCH   9  17
ATOM     17  C   UNL     1      -1.883  10.872  18.540  0.00  0.00    +0.000 A 
ATOM     18  C   UNL     1      -2.759   9.835  18.168  0.00  0.00    +0.000 A 
ATOM     19  C   UNL     1      -3.405   9.796  16.916  0.00  0.00    +0.000 A 
ATOM     20  C   UNL     1      -3.254  10.835  16.011  0.00  0.00    +0.000 A 
ATOM     21  C   UNL     1      -2.381  11.862  16.319  0.00  0.00    +0.000 A 
ATOM     22  C   UNL     1      -1.672  11.843  17.533  0.00  0.00    +0.000 A 
ENDBRANCH   9  17
BRANCH  10  23
ATOM     23  C   UNL     1      -3.037  12.762  20.829  0.00  0.00    +0.000 C 
BRANCH  23  24
ATOM     24  C   UNL     1      -4.496  12.385  20.377  0.00  0.00    +0.000 C 
ATOM     25  O   UNL     1      -5.409  11.934  21.043  0.00  0.00    +0.000 OA
BRANCH  24  26
ATOM     26  O   UNL     1      -4.695  12.711  19.063  0.00  0.00    +0.000 OA
ATOM     27  H   UNL     1      -5.440  13.344  18.968  0.00  0.00    +0.000 HD
ENDBRANCH  24  26
ENDBRANCH  23  24
BRANCH  23  28
ATOM     28  O   UNL     1      -2.754  14.128  20.465  0.00  0.00    +0.000 OA
BRANCH  28  29
ATOM     29  C   UNL     1      -3.170  15.219  21.310  0.00  0.00    +0.000 C 
ATOM     30  C   UNL     1      -2.009  16.132  21.720  0.00  0.00    +0.000 C 
ATOM     31  C   UNL     1      -4.154  16.007  20.431  0.00  0.00    +0.000 C 
ATOM     32  C   UNL     1      -3.944  14.796  22.566  0.00  0.00    +0.000 C 
ENDBRANCH  28  29
ENDBRANCH  23  28
ENDBRANCH  10  23
TORSDOF 7
ENDMDL
MODEL 5
REMARK VINA RESULT:      -6.1      2.684      3.554
REMARK  Name = 
REMARK  11 active torsions:
REMARK  status: ('A' for Active; 'I' for Inactive)
REMARK    1  A    between atoms: C_1  and  C_2
REMARK    2  A    between atoms: C_6  and  C_7
REMARK    3  A    between atoms: C_15  and  C_16
REMARK    4  A    between atoms: C_22  and  C_23
REMARK    5  A    between atoms: C_23  and  O_24
REMARK    6  A    between atoms: C_23  and  C_29
REMARK    7  A    between atoms: O_24  and  C_25
REMARK    8  A    between atoms: C_25  and  C_26
REMARK    9  A    between atoms: C_25  and  C_27
REMARK   10  A    between atoms: C_25  and  C_28
REMARK   11  A    between atoms: C_29  and  O_31
REMARK                            x       y       z     vdW  Elec       q    Type
REMARK                         _______ _______ _______ _____ _____    ______ ____
ROOT
ATOM      1  C   UNL     1      -2.606  12.212  23.760  0.00  0.00    +0.000 C 
ATOM      2  C   UNL     1      -1.521  11.801  22.806  0.00  0.00    +0.000 A 
ATOM      3  N   UNL     1      -1.354  10.514  22.782  0.00  0.00    +0.000 NA
ATOM      4  C   UNL     1      -0.385  10.030  21.999  0.00  0.00    +0.000 A 
ATOM      5  C   UNL     1      -0.108   8.732  21.669  0.00  0.00    +0.000 A 
ATOM      6  C   UNL     1       1.020   8.787  20.833  0.00  0.00    +0.000 A 
ATOM      7  N   UNL     1       1.464  10.047  20.730  0.00  0.00    +0.000 NA
ATOM      8  N   UNL     1       0.516  10.841  21.321  0.00  0.00    +0.000 N 
ATOM      9  C   UNL     1       0.349  12.275  21.264  0.00  0.00    +0.000 A 
ATOM     10  C   UNL     1      -0.723  12.811  21.966  0.00  0.00    +0.000 A 
ENDROOT
BRANCH   6  11
ATOM     11  C   UNL     1       1.674   7.665  20.159  0.00  0.00    +0.000 A 
ATOM     12  C   UNL     1       2.287   7.841  18.907  0.00  0.00    +0.000 A 
ATOM     13  C   UNL     1       2.895   6.766  18.254  0.00  0.00    +0.000 A 
ATOM     14  C   UNL     1       2.898   5.505  18.846  0.00  0.00    +0.000 A 
ATOM     15  C   UNL     1       2.306   5.321  20.095  0.00  0.00    +0.000 A 
ATOM     16  C   UNL     1       1.703   6.396  20.751  0.00  0.00    +0.000 A 
ENDBRANCH   6  11
BRANCH   9  17
ATOM     17  C   UNL     1       1.329  13.051  20.356  0.00  0.00    +0.000 A 
ATOM     18  C   UNL     1       2.457  13.757  20.813  0.00  0.00    +0.000 A 
ATOM     19  C   UNL     1       3.417  14.305  19.939  0.00  0.00    +0.000 A 
ATOM     20  C   UNL     1       3.322  14.107  18.571  0.00  0.00    +0.000 A 
ATOM     21  C   UNL     1       2.216  13.445  18.071  0.00  0.00    +0.000 A 
ATOM     22  C   UNL     1       1.218  12.982  18.947  0.00  0.00    +0.000 A 
ENDBRANCH   9  17
BRANCH  10  23
ATOM     23  C   UNL     1      -1.223  14.243  21.844  0.00  0.00    +0.000 C 
BRANCH  23  24
ATOM     24  C   UNL     1      -1.639  15.105  20.596  0.00  0.00    +0.000 C 
ATOM     25  O   UNL     1      -1.018  15.994  20.041  0.00  0.00    +0.000 OA
BRANCH  24  26
ATOM     26  O   UNL     1      -2.837  14.680  20.090  0.00  0.00    +0.000 OA
ATOM     27  H   UNL     1      -2.717  13.885  19.526  0.00  0.00    +0.000 HD
ENDBRANCH  24  26
ENDBRANCH  23  24
BRANCH  23  28
ATOM     28  O   UNL     1      -0.632  15.094  22.846  0.00  0.00    +0.000 OA
BRANCH  28  29
ATOM     29  C   UNL     1      -1.456  15.820  23.779  0.00  0.00    +0.000 C 
ATOM     30  C   UNL     1      -1.242  15.382  25.231  0.00  0.00    +0.000 C 
ATOM     31  C   UNL     1      -0.999  17.279  23.611  0.00  0.00    +0.000 C 
ATOM     32  C   UNL     1      -2.957  15.792  23.462  0.00  0.00    +0.000 C 
ENDBRANCH  28  29
ENDBRANCH  23  28
ENDBRANCH  10  23
TORSDOF 7
ENDMDL
MODEL 6
REMARK VINA RESULT:      -6.1      3.712      5.571
REMARK  Name = 
REMARK  11 active torsions:
REMARK  status: ('A' for Active; 'I' for Inactive)
REMARK    1  A    between atoms: C_1  and  C_2
REMARK    2  A    between atoms: C_6  and  C_7
REMARK    3  A    between atoms: C_15  and  C_16
REMARK    4  A    between atoms: C_22  and  C_23
REMARK    5  A    between atoms: C_23  and  O_24
REMARK    6  A    between atoms: C_23  and  C_29
REMARK    7  A    between atoms: O_24  and  C_25
REMARK    8  A    between atoms: C_25  and  C_26
REMARK    9  A    between atoms: C_25  and  C_27
REMARK   10  A    between atoms: C_25  and  C_28
REMARK   11  A    between atoms: C_29  and  O_31
REMARK                            x       y       z     vdW  Elec       q    Type
REMARK                         _______ _______ _______ _____ _____    ______ ____
ROOT
ATOM      1  C   UNL     1      -4.722  10.956  17.550  0.00  0.00    +0.000 C 
ATOM      2  C   UNL     1      -3.736  11.663  18.436  0.00  0.00    +0.000 A 
ATOM      3  N   UNL     1      -2.542  11.670  17.928  0.00  0.00    +0.000 NA
ATOM      4  C   UNL     1      -1.567  12.236  18.645  0.00  0.00    +0.000 A 
ATOM      5  C   UNL     1      -0.279  12.519  18.282  0.00  0.00    +0.000 A 
ATOM      6  C   UNL     1       0.315  13.095  19.418  0.00  0.00    +0.000 A 
ATOM      7  N   UNL     1      -0.538  13.081  20.450  0.00  0.00    +0.000 NA
ATOM      8  N   UNL     1      -1.751  12.694  19.944  0.00  0.00    +0.000 N 
ATOM      9  C   UNL     1      -3.065  12.763  20.542  0.00  0.00    +0.000 A 
ATOM     10  C   UNL     1      -4.128  12.297  19.779  0.00  0.00    +0.000 A 
ENDROOT
BRANCH   6  11
ATOM     11  C   UNL     1       1.673  13.631  19.527  0.00  0.00    +0.000 A 
ATOM     12  C   UNL     1       2.372  14.045  18.381  0.00  0.00    +0.000 A 
ATOM     13  C   UNL     1       3.675  14.539  18.482  0.00  0.00    +0.000 A 
ATOM     14  C   UNL     1       4.290  14.627  19.728  0.00  0.00    +0.000 A 
ATOM     15  C   UNL     1       3.601  14.234  20.874  0.00  0.00    +0.000 A 
ATOM     16  C   UNL     1       2.297  13.744  20.775  0.00  0.00    +0.000 A 
ENDBRANCH   6  11
BRANCH   9  17
ATOM     17  C   UNL     1      -3.159  13.430  21.932  0.00  0.00    +0.000 A 
ATOM     18  C   UNL     1      -3.034  14.811  22.169  0.00  0.00    +0.000 A 
ATOM     19  C   UNL     1      -3.297  15.396  23.425  0.00  0.00    +0.000 A 
ATOM     20  C   UNL     1      -3.766  14.627  24.477  0.00  0.00    +0.000 A 
ATOM     21  C   UNL     1      -3.877  13.260  24.302  0.00  0.00    +0.000 A 
ATOM     22  C   UNL     1      -3.525  12.676  23.073  0.00  0.00    +0.000 A 
ENDBRANCH   9  17
BRANCH  10  23
ATOM     23  C   UNL     1      -5.600  12.501  20.109  0.00  0.00    +0.000 C 
BRANCH  23  24
ATOM     24  C   UNL     1      -6.765  11.481  20.382  0.00  0.00    +0.000 C 
ATOM     25  O   UNL     1      -6.953  10.782  21.361  0.00  0.00    +0.000 OA
BRANCH  24  26
ATOM     26  O   UNL     1      -7.679  11.504  19.364  0.00  0.00    +0.000 OA
ATOM     27  H   UNL     1      -8.244  12.305  19.419  0.00  0.00    +0.000 HD
ENDBRANCH  24  26
ENDBRANCH  23  24
BRANCH  23  28
ATOM     28  O   UNL     1      -6.126  13.674  19.457  0.00  0.00    +0.000 OA
BRANCH  28  29
ATOM     29  C   UNL     1      -6.499  14.839  20.220  0.00  0.00    +0.000 C 
ATOM     30  C   UNL     1      -5.545  16.019  20.012  0.00  0.00    +0.000 C 
ATOM     31  C   UNL     1      -7.889  15.203  19.674  0.00  0.00    +0.000 C 
ATOM     32  C   UNL     1      -6.669  14.590  21.724  0.00  0.00    +0.000 C 
ENDBRANCH  28  29
ENDBRANCH  23  28
ENDBRANCH  10  23
TORSDOF 7
ENDMDL
MODEL 7
REMARK VINA RESULT:      -6.0      1.433      2.249
REMARK  Name = 
REMARK  11 active torsions:
REMARK  status: ('A' for Active; 'I' for Inactive)
REMARK    1  A    between atoms: C_1  and  C_2
REMARK    2  A    between atoms: C_6  and  C_7
REMARK    3  A    between atoms: C_15  and  C_16
REMARK    4  A    between atoms: C_22  and  C_23
REMARK    5  A    between atoms: C_23  and  O_24
REMARK    6  A    between atoms: C_23  and  C_29
REMARK    7  A    between atoms: O_24  and  C_25
REMARK    8  A    between atoms: C_25  and  C_26
REMARK    9  A    between atoms: C_25  and  C_27
REMARK   10  A    between atoms: C_25  and  C_28
REMARK   11  A    between atoms: C_29  and  O_31
REMARK                            x       y       z     vdW  Elec       q    Type
REMARK                         _______ _______ _______ _____ _____    ______ ____
ROOT
ATOM      1  C   UNL     1      -1.211  14.199  23.516  0.00  0.00    +0.000 C 
ATOM      2  C   UNL     1      -1.144  13.176  22.417  0.00  0.00    +0.000 A 
ATOM      3  N   UNL     1      -0.142  12.365  22.567  0.00  0.00    +0.000 NA
ATOM      4  C   UNL     1       0.047  11.433  21.627  0.00  0.00    +0.000 A 
ATOM      5  C   UNL     1       0.909  10.372  21.623  0.00  0.00    +0.000 A 
ATOM      6  C   UNL     1       0.709   9.728  20.390  0.00  0.00    +0.000 A 
ATOM      7  N   UNL     1      -0.166  10.412  19.642  0.00  0.00    +0.000 NA
ATOM      8  N   UNL     1      -0.695  11.381  20.454  0.00  0.00    +0.000 N 
ATOM      9  C   UNL     1      -1.856  12.219  20.255  0.00  0.00    +0.000 A 
ATOM     10  C   UNL     1      -2.162  13.120  21.267  0.00  0.00    +0.000 A 
ENDROOT
BRANCH   6  11
ATOM     11  C   UNL     1       1.348   8.497  19.925  0.00  0.00    +0.000 A 
ATOM     12  C   UNL     1       1.417   7.367  20.758  0.00  0.00    +0.000 A 
ATOM     13  C   UNL     1       2.044   6.198  20.321  0.00  0.00    +0.000 A 
ATOM     14  C   UNL     1       2.606   6.144  19.048  0.00  0.00    +0.000 A 
ATOM     15  C   UNL     1       2.530   7.253  18.206  0.00  0.00    +0.000 A 
ATOM     16  C   UNL     1       1.898   8.421  18.640  0.00  0.00    +0.000 A 
ENDBRANCH   6  11
BRANCH   9  17
ATOM     17  C   UNL     1      -2.685  11.963  18.977  0.00  0.00    +0.000 A 
ATOM     18  C   UNL     1      -2.138  11.702  17.707  0.00  0.00    +0.000 A 
ATOM     19  C   UNL     1      -2.925  11.305  16.606  0.00  0.00    +0.000 A 
ATOM     20  C   UNL     1      -4.285  11.083  16.754  0.00  0.00    +0.000 A 
ATOM     21  C   UNL     1      -4.873  11.354  17.976  0.00  0.00    +0.000 A 
ATOM     22  C   UNL     1      -4.093  11.837  19.041  0.00  0.00    +0.000 A 
ENDBRANCH   9  17
BRANCH  10  23
ATOM     23  C   UNL     1      -3.458  13.910  21.376  0.00  0.00    +0.000 C 
BRANCH  23  24
ATOM     24  C   UNL     1      -4.009  15.138  20.562  0.00  0.00    +0.000 C 
ATOM     25  O   UNL     1      -5.163  15.430  20.309  0.00  0.00    +0.000 OA
BRANCH  24  26
ATOM     26  O   UNL     1      -2.989  15.973  20.195  0.00  0.00    +0.000 OA
ATOM     27  H   UNL     1      -2.257  15.941  20.849  0.00  0.00    +0.000 HD
ENDBRANCH  24  26
ENDBRANCH  23  24
BRANCH  23  28
ATOM     28  O   UNL     1      -3.911  13.991  22.742  0.00  0.00    +0.000 OA
BRANCH  28  29
ATOM     29  C   UNL     1      -5.161  13.396  23.143  0.00  0.00    +0.000 C 
ATOM     30  C   UNL     1      -5.767  12.497  22.061  0.00  0.00    +0.000 C 
ATOM     31  C   UNL     1      -4.783  12.544  24.365  0.00  0.00    +0.000 C 
ATOM     32  C   UNL     1      -6.222  14.398  23.617  0.00  0.00    +0.000 C 
ENDBRANCH  28  29
ENDBRANCH  23  28
ENDBRANCH  10  23
TORSDOF 7
ENDMDL
MODEL 8
REMARK VINA RESULT:      -5.9      2.855      3.851
REMARK  Name = 
REMARK  11 active torsions:
REMARK  status: ('A' for Active; 'I' for Inactive)
REMARK    1  A    between atoms: C_1  and  C_2
REMARK    2  A    between atoms: C_6  and  C_7
REMARK    3  A    between atoms: C_15  and  C_16
REMARK    4  A    between atoms: C_22  and  C_23
REMARK    5  A    between atoms: C_23  and  O_24
REMARK    6  A    between atoms: C_23  and  C_29
REMARK    7  A    between atoms: O_24  and  C_25
REMARK    8  A    between atoms: C_25  and  C_26
REMARK    9  A    between atoms: C_25  and  C_27
REMARK   10  A    between atoms: C_25  and  C_28
REMARK   11  A    between atoms: C_29  and  O_31
REMARK                            x       y       z     vdW  Elec       q    Type
REMARK                         _______ _______ _______ _____ _____    ______ ____
ROOT
ATOM      1  C   UNL     1      -2.346  12.506  23.560  0.00  0.00    +0.000 C 
ATOM      2  C   UNL     1      -1.268  11.997  22.646  0.00  0.00    +0.000 A 
ATOM      3  N   UNL     1      -1.209  10.701  22.636  0.00  0.00    +0.000 NA
ATOM      4  C   UNL     1      -0.259  10.129  21.889  0.00  0.00    +0.000 A 
ATOM      5  C   UNL     1      -0.082   8.810  21.577  0.00  0.00    +0.000 A 
ATOM      6  C   UNL     1       1.074   8.763  20.780  0.00  0.00    +0.000 A 
ATOM      7  N   UNL     1       1.626   9.980  20.684  0.00  0.00    +0.000 NA
ATOM      8  N   UNL     1       0.729  10.856  21.237  0.00  0.00    +0.000 N 
ATOM      9  C   UNL     1       0.685  12.298  21.165  0.00  0.00    +0.000 A 
ATOM     10  C   UNL     1      -0.360  12.929  21.828  0.00  0.00    +0.000 A 
ENDROOT
BRANCH   6  11
ATOM     11  C   UNL     1       1.654   7.584  20.135  0.00  0.00    +0.000 A 
ATOM     12  C   UNL     1       2.278   7.688  18.880  0.00  0.00    +0.000 A 
ATOM     13  C   UNL     1       2.814   6.559  18.255  0.00  0.00    +0.000 A 
ATOM     14  C   UNL     1       2.733   5.317  18.878  0.00  0.00    +0.000 A 
ATOM     15  C   UNL     1       2.131   5.203  20.130  0.00  0.00    +0.000 A 
ATOM     16  C   UNL     1       1.599   6.331  20.758  0.00  0.00    +0.000 A 
ENDBRANCH   6  11
BRANCH   9  17
ATOM     17  C   UNL     1       1.756  12.982  20.286  0.00  0.00    +0.000 A 
ATOM     18  C   UNL     1       1.718  13.045  18.881  0.00  0.00    +0.000 A 
ATOM     19  C   UNL     1       2.621  13.824  18.130  0.00  0.00    +0.000 A 
ATOM     20  C   UNL     1       3.556  14.628  18.761  0.00  0.00    +0.000 A 
ATOM     21  C   UNL     1       3.651  14.577  20.140  0.00  0.00    +0.000 A 
ATOM     22  C   UNL     1       2.806  13.727  20.873  0.00  0.00    +0.000 A 
ENDBRANCH   9  17
BRANCH  10  23
ATOM     23  C   UNL     1      -0.734  14.397  21.680  0.00  0.00    +0.000 C 
BRANCH  23  24
ATOM     24  C   UNL     1      -0.877  15.320  20.414  0.00  0.00    +0.000 C 
ATOM     25  O   UNL     1      -0.054  16.066  19.917  0.00  0.00    +0.000 OA
BRANCH  24  26
ATOM     26  O   UNL     1      -2.094  15.138  19.817  0.00  0.00    +0.000 OA
ATOM     27  H   UNL     1      -2.512  14.302  20.119  0.00  0.00    +0.000 HD
ENDBRANCH  24  26
ENDBRANCH  23  24
BRANCH  23  28
ATOM     28  O   UNL     1      -0.260  15.175  22.797  0.00  0.00    +0.000 OA
BRANCH  28  29
ATOM     29  C   UNL     1      -1.130  16.107  23.470  0.00  0.00    +0.000 C 
ATOM     30  C   UNL     1      -2.610  15.883  23.146  0.00  0.00    +0.000 C 
ATOM     31  C   UNL     1      -0.884  15.823  24.961  0.00  0.00    +0.000 C 
ATOM     32  C   UNL     1      -0.784  17.584  23.241  0.00  0.00    +0.000 C 
ENDBRANCH  28  29
ENDBRANCH  23  28
ENDBRANCH  10  23
TORSDOF 7
ENDMDL
MODEL 9
REMARK VINA RESULT:      -5.9      2.678      4.069
REMARK  Name = 
REMARK  11 active torsions:
REMARK  status: ('A' for Active; 'I' for Inactive)
REMARK    1  A    between atoms: C_1  and  C_2
REMARK    2  A    between atoms: C_6  and  C_7
REMARK    3  A    between atoms: C_15  and  C_16
REMARK    4  A    between atoms: C_22  and  C_23
REMARK    5  A    between atoms: C_23  and  O_24
REMARK    6  A    between atoms: C_23  and  C_29
REMARK    7  A    between atoms: O_24  and  C_25
REMARK    8  A    between atoms: C_25  and  C_26
REMARK    9  A    between atoms: C_25  and  C_27
REMARK   10  A    between atoms: C_25  and  C_28
REMARK   11  A    between atoms: C_29  and  O_31
REMARK                            x       y       z     vdW  Elec       q    Type
REMARK                         _______ _______ _______ _____ _____    ______ ____
ROOT
ATOM      1  C   UNL     1       0.776  16.432  18.377  0.00  0.00    +0.000 C 
ATOM      2  C   UNL     1       0.421  15.080  18.927  0.00  0.00    +0.000 A 
ATOM      3  N   UNL     1       1.211  14.150  18.484  0.00  0.00    +0.000 NA
ATOM      4  C   UNL     1       0.968  12.894  18.872  0.00  0.00    +0.000 A 
ATOM      5  C   UNL     1       1.727  11.771  18.688  0.00  0.00    +0.000 A 
ATOM      6  C   UNL     1       1.000  10.724  19.278  0.00  0.00    +0.000 A 
ATOM      7  N   UNL     1      -0.184  11.169  19.721  0.00  0.00    +0.000 NA
ATOM      8  N   UNL     1      -0.150  12.534  19.613  0.00  0.00    +0.000 N 
ATOM      9  C   UNL     1      -1.033  13.526  20.181  0.00  0.00    +0.000 A 
ATOM     10  C   UNL     1      -0.745  14.857  19.903  0.00  0.00    +0.000 A 
ENDROOT
BRANCH   6  11
ATOM     11  C   UNL     1       1.412   9.326  19.405  0.00  0.00    +0.000 A 
ATOM     12  C   UNL     1       1.968   8.642  18.310  0.00  0.00    +0.000 A 
ATOM     13  C   UNL     1       2.344   7.301  18.425  0.00  0.00    +0.000 A 
ATOM     14  C   UNL     1       2.171   6.632  19.634  0.00  0.00    +0.000 A 
ATOM     15  C   UNL     1       1.636   7.304  20.732  0.00  0.00    +0.000 A 
ATOM     16  C   UNL     1       1.264   8.646  20.620  0.00  0.00    +0.000 A 
ENDBRANCH   6  11
BRANCH   9  17
ATOM     17  C   UNL     1      -2.154  13.007  21.109  0.00  0.00    +0.000 A 
ATOM     18  C   UNL     1      -1.966  12.608  22.445  0.00  0.00    +0.000 A 
ATOM     19  C   UNL     1      -3.040  12.306  23.307  0.00  0.00    +0.000 A 
ATOM     20  C   UNL     1      -4.351  12.460  22.883  0.00  0.00    +0.000 A 
ATOM     21  C   UNL     1      -4.585  12.822  21.569  0.00  0.00    +0.000 A 
ATOM     22  C   UNL     1      -3.506  13.032  20.694  0.00  0.00    +0.000 A 
ENDBRANCH   9  17
BRANCH  10  23
ATOM     23  C   UNL     1      -1.385  16.055  20.590  0.00  0.00    +0.000 C 
BRANCH  23  24
ATOM     24  C   UNL     1      -2.025  17.373  20.019  0.00  0.00    +0.000 C 
ATOM     25  O   UNL     1      -1.571  18.502  20.014  0.00  0.00    +0.000 OA
BRANCH  24  26
ATOM     26  O   UNL     1      -3.215  17.105  19.399  0.00  0.00    +0.000 OA
ATOM     27  H   UNL     1      -3.626  17.929  19.058  0.00  0.00    +0.000 HD
ENDBRANCH  24  26
ENDBRANCH  23  24
BRANCH  23  28
ATOM     28  O   UNL     1      -0.756  16.331  21.858  0.00  0.00    +0.000 OA
BRANCH  28  29
ATOM     29  C   UNL     1      -1.547  16.544  23.044  0.00  0.00    +0.000 C 
ATOM     30  C   UNL     1      -3.006  16.109  22.874  0.00  0.00    +0.000 C 
ATOM     31  C   UNL     1      -0.868  15.656  24.099  0.00  0.00    +0.000 C 
ATOM     32  C   UNL     1      -1.510  17.978  23.587  0.00  0.00    +0.000 C 
ENDBRANCH  28  29
ENDBRANCH  23  28
ENDBRANCH  10  23
TORSDOF 7
ENDMDL
