MODEL 1
REMARK VINA RESULT:      -7.6      0.000      0.000
REMARK  Name = 
REMARK  5 active torsions:
REMARK  status: ('A' for Active; 'I' for Inactive)
REMARK    1  A    between atoms: C_1  and  C_2
REMARK    2  A    between atoms: C_7  and  C_8
REMARK    3  A    between atoms: N_10  and  N_11
REMARK    4  A    between atoms: C_12  and  C_14
REMARK    5  A    between atoms: C_17  and  N_18
REMARK                            x       y       z     vdW  Elec       q    Type
REMARK                         _______ _______ _______ _____ _____    ______ ____
ROOT
ATOM      1  N   UNL     1       7.541   8.552  18.219  0.00  0.00    +0.000 N 
ATOM      2  C   UNL     1       7.385   7.426  17.434  0.00  0.00    +0.000 C 
ATOM      3  O   UNL     1       8.043   7.236  16.411  0.00  0.00    +0.000 OA
ATOM      4  H   UNL     1       6.841   8.864  18.893  0.00  0.00    +0.000 HD
ENDROOT
BRANCH   2   5
ATOM      5  C   UNL     1       6.357   6.441  17.867  0.00  0.00    +0.000 A 
ATOM      6  C   UNL     1       5.065   6.543  17.340  0.00  0.00    +0.000 A 
ATOM      7  C   UNL     1       4.076   5.613  17.692  0.00  0.00    +0.000 A 
ATOM      8  C   UNL     1       4.369   4.554  18.566  0.00  0.00    +0.000 A 
ATOM      9  C   UNL     1       5.675   4.443  19.068  0.00  0.00    +0.000 A 
ATOM     10  C   UNL     1       6.663   5.380  18.725  0.00  0.00    +0.000 A 
BRANCH   8  11
ATOM     11  N   UNL     1       3.353   3.616  18.945  0.00  0.00    +0.000 N 
ATOM     12  C   UNL     1       3.124   2.368  18.387  0.00  0.00    +0.000 A 
ATOM     13  C   UNL     1       2.023   1.791  18.982  0.00  0.00    +0.000 A 
ATOM     14  C   UNL     1       1.558   2.692  19.957  0.00  0.00    +0.000 A 
ATOM     15  C   UNL     1       2.392   3.789  19.928  0.00  0.00    +0.000 A 
ENDBRANCH   8  11
ENDBRANCH   2   5
BRANCH   1  18
ATOM     16  C   UNL     1       9.049  10.327  18.765  0.00  0.00    +0.000 C 
ATOM     17  O   UNL     1       8.788  10.192  19.961  0.00  0.00    +0.000 OA
ATOM     18  N   UNL     1       8.467   9.528  17.802  0.00  0.00    +0.000 N 
ATOM     19  H   UNL     1       8.444   9.767  16.813  0.00  0.00    +0.000 HD
BRANCH  16  26
ATOM     20  C   UNL     1       8.177  12.956  17.327  0.00  0.00    +0.000 C 
ATOM     21  C   UNL     1       9.599  12.593  17.650  0.00  0.00    +0.000 A 
ATOM     22  C   UNL     1      10.609  13.480  17.215  0.00  0.00    +0.000 A 
ATOM     23  C   UNL     1      11.960  13.202  17.421  0.00  0.00    +0.000 A 
ATOM     24  C   UNL     1      12.333  12.034  18.074  0.00  0.00    +0.000 A 
ATOM     25  C   UNL     1      11.351  11.145  18.514  0.00  0.00    +0.000 A 
ATOM     26  C   UNL     1       9.981  11.409  18.315  0.00  0.00    +0.000 A 
ENDBRANCH  16  26
ENDBRANCH   1  18
TORSDOF 4
ENDMDL
MODEL 2
REMARK VINA RESULT:      -7.6      7.032     10.440
REMARK  Name = 
REMARK  5 active torsions:
REMARK  status: ('A' for Active; 'I' for Inactive)
REMARK    1  A    between atoms: C_1  and  C_2
REMARK    2  A    between atoms: C_7  and  C_8
REMARK    3  A    between atoms: N_10  and  N_11
REMARK    4  A    between atoms: C_12  and  C_14
REMARK    5  A    between atoms: C_17  and  N_18
REMARK                            x       y       z     vdW  Elec       q    Type
REMARK                         _______ _______ _______ _____ _____    ______ ____
ROOT
ATOM      1  N   UNL     1       1.561   7.151  21.158  0.00  0.00    +0.000 N 
ATOM      2  C   UNL     1       1.331   8.330  20.476  0.00  0.00    +0.000 C 
ATOM      3  O   UNL     1       1.754   8.531  19.337  0.00  0.00    +0.000 OA
ATOM      4  H   UNL     1       1.469   7.065  22.170  0.00  0.00    +0.000 HD
ENDROOT
BRANCH   2   5
ATOM      5  C   UNL     1       0.555   9.380  21.189  0.00  0.00    +0.000 A 
ATOM      6  C   UNL     1       0.270  10.576  20.522  0.00  0.00    +0.000 A 
ATOM      7  C   UNL     1      -0.490  11.577  21.144  0.00  0.00    +0.000 A 
ATOM      8  C   UNL     1      -0.993  11.390  22.441  0.00  0.00    +0.000 A 
ATOM      9  C   UNL     1      -0.727  10.176  23.094  0.00  0.00    +0.000 A 
ATOM     10  C   UNL     1       0.044   9.179  22.476  0.00  0.00    +0.000 A 
BRANCH   8  11
ATOM     11  N   UNL     1      -1.751  12.422  23.087  0.00  0.00    +0.000 N 
ATOM     12  C   UNL     1      -1.315  13.698  23.404  0.00  0.00    +0.000 A 
ATOM     13  C   UNL     1      -2.315  14.376  24.070  0.00  0.00    +0.000 A 
ATOM     14  C   UNL     1      -3.419  13.508  24.154  0.00  0.00    +0.000 A 
ATOM     15  C   UNL     1      -3.059  12.331  23.536  0.00  0.00    +0.000 A 
ENDBRANCH   8  11
ENDBRANCH   2   5
BRANCH   1  18
ATOM     16  C   UNL     1       1.766   4.931  20.294  0.00  0.00    +0.000 C 
ATOM     17  O   UNL     1       0.599   4.692  20.608  0.00  0.00    +0.000 OA
ATOM     18  N   UNL     1       2.341   6.163  20.527  0.00  0.00    +0.000 N 
ATOM     19  H   UNL     1       3.346   6.321  20.533  0.00  0.00    +0.000 HD
BRANCH  16  26
ATOM     20  C   UNL     1       1.655   4.036  17.305  0.00  0.00    +0.000 C 
ATOM     21  C   UNL     1       2.562   3.435  18.342  0.00  0.00    +0.000 A 
ATOM     22  C   UNL     1       3.374   2.350  17.942  0.00  0.00    +0.000 A 
ATOM     23  C   UNL     1       4.207   1.692  18.846  0.00  0.00    +0.000 A 
ATOM     24  C   UNL     1       4.257   2.110  20.170  0.00  0.00    +0.000 A 
ATOM     25  C   UNL     1       3.466   3.182  20.586  0.00  0.00    +0.000 A 
ATOM     26  C   UNL     1       2.616   3.858  19.687  0.00  0.00    +0.000 A 
ENDBRANCH  16  26
ENDBRANCH   1  18
TORSDOF 4
ENDMDL
MODEL 3
REMARK VINA RESULT:      -7.5      7.172     10.481
REMARK  Name = 
REMARK  5 active torsions:
REMARK  status: ('A' for Active; 'I' for Inactive)
REMARK    1  A    between atoms: C_1  and  C_2
REMARK    2  A    between atoms: C_7  and  C_8
REMARK    3  A    between atoms: N_10  and  N_11
REMARK    4  A    between atoms: C_12  and  C_14
REMARK    5  A    between atoms: C_17  and  N_18
REMARK                            x       y       z     vdW  Elec       q    Type
REMARK                         _______ _______ _______ _____ _____    ______ ____
ROOT
ATOM      1  N   UNL     1       1.503   7.401  21.071  0.00  0.00    +0.000 N 
ATOM      2  C   UNL     1       1.189   8.574  20.411  0.00  0.00    +0.000 C 
ATOM      3  O   UNL     1       1.531   8.792  19.248  0.00  0.00    +0.000 OA
ATOM      4  H   UNL     1       1.479   7.310  22.087  0.00  0.00    +0.000 HD
ENDROOT
BRANCH   2   5
ATOM      5  C   UNL     1       0.424   9.594  21.178  0.00  0.00    +0.000 A 
ATOM      6  C   UNL     1       0.018  10.762  20.524  0.00  0.00    +0.000 A 
ATOM      7  C   UNL     1      -0.736  11.733  21.199  0.00  0.00    +0.000 A 
ATOM      8  C   UNL     1      -1.111  11.542  22.538  0.00  0.00    +0.000 A 
ATOM      9  C   UNL     1      -0.724  10.355  23.180  0.00  0.00    +0.000 A 
ATOM     10  C   UNL     1       0.041   9.388  22.507  0.00  0.00    +0.000 A 
BRANCH   8  11
ATOM     11  N   UNL     1      -1.863  12.544  23.237  0.00  0.00    +0.000 N 
ATOM     12  C   UNL     1      -3.186  12.460  23.638  0.00  0.00    +0.000 A 
ATOM     13  C   UNL     1      -3.566  13.646  24.229  0.00  0.00    +0.000 A 
ATOM     14  C   UNL     1      -2.442  14.493  24.219  0.00  0.00    +0.000 A 
ATOM     15  C   UNL     1      -1.413  13.796  23.625  0.00  0.00    +0.000 A 
ENDBRANCH   8  11
ENDBRANCH   2   5
BRANCH   1  18
ATOM     16  C   UNL     1       1.710   5.209  20.139  0.00  0.00    +0.000 C 
ATOM     17  O   UNL     1       0.558   4.944  20.486  0.00  0.00    +0.000 OA
ATOM     18  N   UNL     1       2.275   6.443  20.387  0.00  0.00    +0.000 N 
ATOM     19  H   UNL     1       3.277   6.616  20.363  0.00  0.00    +0.000 HD
BRANCH  16  26
ATOM     20  C   UNL     1       2.721   2.588  21.500  0.00  0.00    +0.000 C 
ATOM     21  C   UNL     1       3.030   2.987  20.084  0.00  0.00    +0.000 A 
ATOM     22  C   UNL     1       3.887   2.142  19.346  0.00  0.00    +0.000 A 
ATOM     23  C   UNL     1       4.274   2.457  18.043  0.00  0.00    +0.000 A 
ATOM     24  C   UNL     1       3.805   3.620  17.445  0.00  0.00    +0.000 A 
ATOM     25  C   UNL     1       2.955   4.467  18.156  0.00  0.00    +0.000 A 
ATOM     26  C   UNL     1       2.554   4.166  19.473  0.00  0.00    +0.000 A 
ENDBRANCH  16  26
ENDBRANCH   1  18
TORSDOF 4
ENDMDL
MODEL 4
REMARK VINA RESULT:      -7.5      7.647      9.479
REMARK  Name = 
REMARK  5 active torsions:
REMARK  status: ('A' for Active; 'I' for Inactive)
REMARK    1  A    between atoms: C_1  and  C_2
REMARK    2  A    between atoms: C_7  and  C_8
REMARK    3  A    between atoms: N_10  and  N_11
REMARK    4  A    between atoms: C_12  and  C_14
REMARK    5  A    between atoms: C_17  and  N_18
REMARK                            x       y       z     vdW  Elec       q    Type
REMARK                         _______ _______ _______ _____ _____    ______ ____
ROOT
ATOM      1  N   UNL     1      -0.287  10.000  20.744  0.00  0.00    +0.000 N 
ATOM      2  C   UNL     1       0.744  10.239  19.856  0.00  0.00    +0.000 C 
ATOM      3  O   UNL     1       1.059  11.374  19.496  0.00  0.00    +0.000 OA
ATOM      4  H   UNL     1      -0.740   9.091  20.841  0.00  0.00    +0.000 HD
ENDROOT
BRANCH   2   5
ATOM      5  C   UNL     1       1.461   9.050  19.321  0.00  0.00    +0.000 A 
ATOM      6  C   UNL     1       1.958   9.096  18.014  0.00  0.00    +0.000 A 
ATOM      7  C   UNL     1       2.672   8.012  17.483  0.00  0.00    +0.000 A 
ATOM      8  C   UNL     1       2.914   6.868  18.259  0.00  0.00    +0.000 A 
ATOM      9  C   UNL     1       2.436   6.840  19.578  0.00  0.00    +0.000 A 
ATOM     10  C   UNL     1       1.711   7.921  20.106  0.00  0.00    +0.000 A 
BRANCH   8  11
ATOM     11  N   UNL     1       3.624   5.749  17.710  0.00  0.00    +0.000 N 
ATOM     12  C   UNL     1       4.741   5.795  16.891  0.00  0.00    +0.000 A 
ATOM     13  C   UNL     1       5.099   4.515  16.525  0.00  0.00    +0.000 A 
ATOM     14  C   UNL     1       4.193   3.637  17.149  0.00  0.00    +0.000 A 
ATOM     15  C   UNL     1       3.315   4.409  17.878  0.00  0.00    +0.000 A 
ENDBRANCH   8  11
ENDBRANCH   2   5
BRANCH   1  18
ATOM     16  C   UNL     1      -1.015  11.349  22.580  0.00  0.00    +0.000 C 
ATOM     17  O   UNL     1      -0.381  10.641  23.363  0.00  0.00    +0.000 OA
ATOM     18  N   UNL     1      -1.019  11.104  21.222  0.00  0.00    +0.000 N 
ATOM     19  H   UNL     1      -1.717  11.483  20.586  0.00  0.00    +0.000 HD
BRANCH  16  26
ATOM     20  C   UNL     1      -0.176  14.355  22.533  0.00  0.00    +0.000 C 
ATOM     21  C   UNL     1      -1.472  13.841  23.095  0.00  0.00    +0.000 A 
ATOM     22  C   UNL     1      -2.336  14.782  23.696  0.00  0.00    +0.000 A 
ATOM     23  C   UNL     1      -3.535  14.392  24.292  0.00  0.00    +0.000 A 
ATOM     24  C   UNL     1      -3.903  13.052  24.293  0.00  0.00    +0.000 A 
ATOM     25  C   UNL     1      -3.064  12.106  23.702  0.00  0.00    +0.000 A 
ATOM     26  C   UNL     1      -1.848  12.481  23.096  0.00  0.00    +0.000 A 
ENDBRANCH  16  26
ENDBRANCH   1  18
TORSDOF 4
ENDMDL
MODEL 5
REMARK VINA RESULT:      -7.5      6.250      8.629
REMARK  Name = 
REMARK  5 active torsions:
REMARK  status: ('A' for Active; 'I' for Inactive)
REMARK    1  A    between atoms: C_1  and  C_2
REMARK    2  A    between atoms: C_7  and  C_8
REMARK    3  A    between atoms: N_10  and  N_11
REMARK    4  A    between atoms: C_12  and  C_14
REMARK    5  A    between atoms: C_17  and  N_18
REMARK                            x       y       z     vdW  Elec       q    Type
REMARK                         _______ _______ _______ _____ _____    ______ ____
ROOT
ATOM      1  N   UNL     1       2.455   7.694  18.741  0.00  0.00    +0.000 N 
ATOM      2  C   UNL     1       1.925   8.874  18.257  0.00  0.00    +0.000 C 
ATOM      3  O   UNL     1       2.235   9.339  17.159  0.00  0.00    +0.000 OA
ATOM      4  H   UNL     1       2.435   7.437  19.728  0.00  0.00    +0.000 HD
ENDROOT
BRANCH   2   5
ATOM      5  C   UNL     1       0.963   9.591  19.137  0.00  0.00    +0.000 A 
ATOM      6  C   UNL     1       0.949   9.292  20.503  0.00  0.00    +0.000 A 
ATOM      7  C   UNL     1       0.084   9.970  21.374  0.00  0.00    +0.000 A 
ATOM      8  C   UNL     1      -0.771  10.974  20.893  0.00  0.00    +0.000 A 
ATOM      9  C   UNL     1      -0.732  11.288  19.525  0.00  0.00    +0.000 A 
ATOM     10  C   UNL     1       0.126  10.601  18.651  0.00  0.00    +0.000 A 
BRANCH   8  11
ATOM     11  N   UNL     1      -1.672  11.653  21.778  0.00  0.00    +0.000 N 
ATOM     12  C   UNL     1      -1.795  11.462  23.145  0.00  0.00    +0.000 A 
ATOM     13  C   UNL     1      -2.809  12.259  23.634  0.00  0.00    +0.000 A 
ATOM     14  C   UNL     1      -3.324  12.987  22.546  0.00  0.00    +0.000 A 
ATOM     15  C   UNL     1      -2.607  12.614  21.430  0.00  0.00    +0.000 A 
ENDBRANCH   8  11
ENDBRANCH   2   5
BRANCH   1  18
ATOM     16  C   UNL     1       4.052   5.931  18.497  0.00  0.00    +0.000 C 
ATOM     17  O   UNL     1       3.795   5.530  19.633  0.00  0.00    +0.000 OA
ATOM     18  N   UNL     1       3.411   7.024  17.953  0.00  0.00    +0.000 N 
ATOM     19  H   UNL     1       3.766   7.541  17.152  0.00  0.00    +0.000 HD
BRANCH  16  26
ATOM     20  C   UNL     1       7.048   5.677  19.337  0.00  0.00    +0.000 C 
ATOM     21  C   UNL     1       6.477   5.156  18.048  0.00  0.00    +0.000 A 
ATOM     22  C   UNL     1       7.377   4.565  17.134  0.00  0.00    +0.000 A 
ATOM     23  C   UNL     1       6.950   4.102  15.890  0.00  0.00    +0.000 A 
ATOM     24  C   UNL     1       5.611   4.208  15.535  0.00  0.00    +0.000 A 
ATOM     25  C   UNL     1       4.705   4.786  16.425  0.00  0.00    +0.000 A 
ATOM     26  C   UNL     1       5.118   5.261  17.686  0.00  0.00    +0.000 A 
ENDBRANCH  16  26
ENDBRANCH   1  18
TORSDOF 4
ENDMDL
MODEL 6
REMARK VINA RESULT:      -7.5      5.707      8.133
REMARK  Name = 
REMARK  5 active torsions:
REMARK  status: ('A' for Active; 'I' for Inactive)
REMARK    1  A    between atoms: C_1  and  C_2
REMARK    2  A    between atoms: C_7  and  C_8
REMARK    3  A    between atoms: N_10  and  N_11
REMARK    4  A    between atoms: C_12  and  C_14
REMARK    5  A    between atoms: C_17  and  N_18
REMARK                            x       y       z     vdW  Elec       q    Type
REMARK                         _______ _______ _______ _____ _____    ______ ____
ROOT
ATOM      1  N   UNL     1       2.482   7.618  18.573  0.00  0.00    +0.000 N 
ATOM      2  C   UNL     1       3.173   6.431  18.718  0.00  0.00    +0.000 C 
ATOM      3  O   UNL     1       3.207   5.810  19.781  0.00  0.00    +0.000 OA
ATOM      4  H   UNL     1       2.659   8.277  17.814  0.00  0.00    +0.000 HD
ENDROOT
BRANCH   2   5
ATOM      5  C   UNL     1       3.907   5.928  17.525  0.00  0.00    +0.000 A 
ATOM      6  C   UNL     1       4.534   6.852  16.683  0.00  0.00    +0.000 A 
ATOM      7  C   UNL     1       5.268   6.419  15.569  0.00  0.00    +0.000 A 
ATOM      8  C   UNL     1       5.399   5.050  15.288  0.00  0.00    +0.000 A 
ATOM      9  C   UNL     1       4.790   4.128  16.153  0.00  0.00    +0.000 A 
ATOM     10  C   UNL     1       4.046   4.562  17.262  0.00  0.00    +0.000 A 
BRANCH   8  11
ATOM     11  N   UNL     1       6.130   4.607  14.136  0.00  0.00    +0.000 N 
ATOM     12  C   UNL     1       7.358   5.077  13.700  0.00  0.00    +0.000 A 
ATOM     13  C   UNL     1       7.705   4.443  12.526  0.00  0.00    +0.000 A 
ATOM     14  C   UNL     1       6.675   3.532  12.227  0.00  0.00    +0.000 A 
ATOM     15  C   UNL     1       5.735   3.638  13.228  0.00  0.00    +0.000 A 
ENDBRANCH   8  11
ENDBRANCH   2   5
BRANCH   1  18
ATOM     16  C   UNL     1       0.927   9.175  19.510  0.00  0.00    +0.000 C 
ATOM     17  O   UNL     1       0.684   9.620  18.388  0.00  0.00    +0.000 OA
ATOM     18  N   UNL     1       1.826   8.145  19.701  0.00  0.00    +0.000 N 
ATOM     19  H   UNL     1       2.248   7.930  20.601  0.00  0.00    +0.000 HD
BRANCH  16  26
ATOM     20  C   UNL     1       0.443  12.229  19.935  0.00  0.00    +0.000 C 
ATOM     21  C   UNL     1       0.073  11.161  20.927  0.00  0.00    +0.000 A 
ATOM     22  C   UNL     1      -0.476  11.582  22.158  0.00  0.00    +0.000 A 
ATOM     23  C   UNL     1      -0.800  10.669  23.161  0.00  0.00    +0.000 A 
ATOM     24  C   UNL     1      -0.592   9.311  22.952  0.00  0.00    +0.000 A 
ATOM     25  C   UNL     1      -0.053   8.873  21.742  0.00  0.00    +0.000 A 
ATOM     26  C   UNL     1       0.281   9.782  20.717  0.00  0.00    +0.000 A 
ENDBRANCH  16  26
ENDBRANCH   1  18
TORSDOF 4
ENDMDL
MODEL 7
REMARK VINA RESULT:      -7.4      7.248     10.472
REMARK  Name = 
REMARK  5 active torsions:
REMARK  status: ('A' for Active; 'I' for Inactive)
REMARK    1  A    between atoms: C_1  and  C_2
REMARK    2  A    between atoms: C_7  and  C_8
REMARK    3  A    between atoms: N_10  and  N_11
REMARK    4  A    between atoms: C_12  and  C_14
REMARK    5  A    between atoms: C_17  and  N_18
REMARK                            x       y       z     vdW  Elec       q    Type
REMARK                         _______ _______ _______ _____ _____    ______ ____
ROOT
ATOM      1  N   UNL     1       1.508   7.609  21.119  0.00  0.00    +0.000 N 
ATOM      2  C   UNL     1       1.147   8.730  20.397  0.00  0.00    +0.000 C 
ATOM      3  O   UNL     1       1.496   8.907  19.230  0.00  0.00    +0.000 OA
ATOM      4  H   UNL     1       1.472   7.567  22.138  0.00  0.00    +0.000 HD
ENDROOT
BRANCH   2   5
ATOM      5  C   UNL     1       0.321   9.748  21.102  0.00  0.00    +0.000 A 
ATOM      6  C   UNL     1      -0.134   9.468  22.394  0.00  0.00    +0.000 A 
ATOM      7  C   UNL     1      -0.884  10.414  23.108  0.00  0.00    +0.000 A 
ATOM      8  C   UNL     1      -1.177  11.665  22.545  0.00  0.00    +0.000 A 
ATOM      9  C   UNL     1      -0.693  11.950  21.258  0.00  0.00    +0.000 A 
ATOM     10  C   UNL     1       0.048  10.999  20.539  0.00  0.00    +0.000 A 
BRANCH   8  11
ATOM     11  N   UNL     1      -1.962  12.625  23.265  0.00  0.00    +0.000 N 
ATOM     12  C   UNL     1      -1.563  13.888  23.672  0.00  0.00    +0.000 A 
ATOM     13  C   UNL     1      -2.579  14.486  24.386  0.00  0.00    +0.000 A 
ATOM     14  C   UNL     1      -3.657  13.582  24.410  0.00  0.00    +0.000 A 
ATOM     15  C   UNL     1      -3.265  12.463  23.708  0.00  0.00    +0.000 A 
ENDBRANCH   8  11
ENDBRANCH   2   5
BRANCH   1  18
ATOM     16  C   UNL     1       1.812   5.407  20.238  0.00  0.00    +0.000 C 
ATOM     17  O   UNL     1       0.649   5.122  20.526  0.00  0.00    +0.000 OA
ATOM     18  N   UNL     1       2.336   6.657  20.495  0.00  0.00    +0.000 N 
ATOM     19  H   UNL     1       3.334   6.852  20.521  0.00  0.00    +0.000 HD
BRANCH  16  26
ATOM     20  C   UNL     1       2.535   2.675  21.563  0.00  0.00    +0.000 C 
ATOM     21  C   UNL     1       3.060   3.143  20.234  0.00  0.00    +0.000 A 
ATOM     22  C   UNL     1       3.991   2.310  19.576  0.00  0.00    +0.000 A 
ATOM     23  C   UNL     1       4.574   2.685  18.366  0.00  0.00    +0.000 A 
ATOM     24  C   UNL     1       4.233   3.898  17.781  0.00  0.00    +0.000 A 
ATOM     25  C   UNL     1       3.313   4.735  18.413  0.00  0.00    +0.000 A 
ATOM     26  C   UNL     1       2.713   4.373  19.637  0.00  0.00    +0.000 A 
ENDBRANCH  16  26
ENDBRANCH   1  18
TORSDOF 4
ENDMDL
MODEL 8
REMARK VINA RESULT:      -7.4      6.594      8.892
REMARK  Name = 
REMARK  5 active torsions:
REMARK  status: ('A' for Active; 'I' for Inactive)
REMARK    1  A    between atoms: C_1  and  C_2
REMARK    2  A    between atoms: C_7  and  C_8
REMARK    3  A    between atoms: N_10  and  N_11
REMARK    4  A    between atoms: C_12  and  C_14
REMARK    5  A    between atoms: C_17  and  N_18
REMARK                            x       y       z     vdW  Elec       q    Type
REMARK                         _______ _______ _______ _____ _____    ______ ____
ROOT
ATOM      1  N   UNL     1       2.024   8.045  18.672  0.00  0.00    +0.000 N 
ATOM      2  C   UNL     1       1.684   9.347  18.357  0.00  0.00    +0.000 C 
ATOM      3  O   UNL     1       2.141   9.931  17.374  0.00  0.00    +0.000 OA
ATOM      4  H   UNL     1       1.887   7.643  19.600  0.00  0.00    +0.000 HD
ENDROOT
BRANCH   2   5
ATOM      5  C   UNL     1       0.743  10.039  19.278  0.00  0.00    +0.000 A 
ATOM      6  C   UNL     1      -0.305  10.787  18.731  0.00  0.00    +0.000 A 
ATOM      7  C   UNL     1      -1.236  11.425  19.563  0.00  0.00    +0.000 A 
ATOM      8  C   UNL     1      -1.143  11.312  20.959  0.00  0.00    +0.000 A 
ATOM      9  C   UNL     1      -0.105  10.537  21.500  0.00  0.00    +0.000 A 
ATOM     10  C   UNL     1       0.835   9.908  20.667  0.00  0.00    +0.000 A 
BRANCH   8  11
ATOM     11  N   UNL     1      -2.081  11.983  21.811  0.00  0.00    +0.000 N 
ATOM     12  C   UNL     1      -3.019  12.930  21.432  0.00  0.00    +0.000 A 
ATOM     13  C   UNL     1      -3.695  13.382  22.545  0.00  0.00    +0.000 A 
ATOM     14  C   UNL     1      -3.183  12.683  23.653  0.00  0.00    +0.000 A 
ATOM     15  C   UNL     1      -2.214  11.826  23.182  0.00  0.00    +0.000 A 
ENDBRANCH   8  11
ENDBRANCH   2   5
BRANCH   1  18
ATOM     16  C   UNL     1       3.674   6.338  18.389  0.00  0.00    +0.000 C 
ATOM     17  O   UNL     1       3.504   5.969  19.551  0.00  0.00    +0.000 OA
ATOM     18  N   UNL     1       2.956   7.386  17.849  0.00  0.00    +0.000 N 
ATOM     19  H   UNL     1       3.240   7.887  17.010  0.00  0.00    +0.000 HD
BRANCH  16  26
ATOM     20  C   UNL     1       3.379   3.536  17.045  0.00  0.00    +0.000 C 
ATOM     21  C   UNL     1       4.598   4.409  16.937  0.00  0.00    +0.000 A 
ATOM     22  C   UNL     1       5.705   3.892  16.228  0.00  0.00    +0.000 A 
ATOM     23  C   UNL     1       6.898   4.604  16.121  0.00  0.00    +0.000 A 
ATOM     24  C   UNL     1       7.011   5.856  16.712  0.00  0.00    +0.000 A 
ATOM     25  C   UNL     1       5.929   6.388  17.415  0.00  0.00    +0.000 A 
ATOM     26  C   UNL     1       4.715   5.681  17.535  0.00  0.00    +0.000 A 
ENDBRANCH  16  26
ENDBRANCH   1  18
TORSDOF 4
ENDMDL
MODEL 9
REMARK VINA RESULT:      -7.4      5.674      8.204
REMARK  Name = 
REMARK  5 active torsions:
REMARK  status: ('A' for Active; 'I' for Inactive)
REMARK    1  A    between atoms: C_1  and  C_2
REMARK    2  A    between atoms: C_7  and  C_8
REMARK    3  A    between atoms: N_10  and  N_11
REMARK    4  A    between atoms: C_12  and  C_14
REMARK    5  A    between atoms: C_17  and  N_18
REMARK                            x       y       z     vdW  Elec       q    Type
REMARK                         _______ _______ _______ _____ _____    ______ ____
ROOT
ATOM      1  N   UNL     1       2.502   7.675  18.628  0.00  0.00    +0.000 N 
ATOM      2  C   UNL     1       3.177   6.476  18.750  0.00  0.00    +0.000 C 
ATOM      3  O   UNL     1       3.164   5.811  19.787  0.00  0.00    +0.000 OA
ATOM      4  H   UNL     1       2.714   8.363  17.906  0.00  0.00    +0.000 HD
ENDROOT
BRANCH   2   5
ATOM      5  C   UNL     1       3.952   6.016  17.566  0.00  0.00    +0.000 A 
ATOM      6  C   UNL     1       3.966   4.652  17.260  0.00  0.00    +0.000 A 
ATOM      7  C   UNL     1       4.653   4.180  16.132  0.00  0.00    +0.000 A 
ATOM      8  C   UNL     1       5.327   5.071  15.282  0.00  0.00    +0.000 A 
ATOM      9  C   UNL     1       5.286   6.442  15.581  0.00  0.00    +0.000 A 
ATOM     10  C   UNL     1       4.607   6.913  16.716  0.00  0.00    +0.000 A 
BRANCH   8  11
ATOM     11  N   UNL     1       6.049   4.588  14.141  0.00  0.00    +0.000 N 
ATOM     12  C   UNL     1       7.280   5.034  13.688  0.00  0.00    +0.000 A 
ATOM     13  C   UNL     1       7.618   4.363  12.532  0.00  0.00    +0.000 A 
ATOM     14  C   UNL     1       6.579   3.453  12.262  0.00  0.00    +0.000 A 
ATOM     15  C   UNL     1       5.643   3.596  13.263  0.00  0.00    +0.000 A 
ENDBRANCH   8  11
ENDBRANCH   2   5
BRANCH   1  18
ATOM     16  C   UNL     1       0.906   9.189  19.565  0.00  0.00    +0.000 C 
ATOM     17  O   UNL     1       0.693   9.668  18.451  0.00  0.00    +0.000 OA
ATOM     18  N   UNL     1       1.807   8.162  19.752  0.00  0.00    +0.000 N 
ATOM     19  H   UNL     1       2.204   7.921  20.658  0.00  0.00    +0.000 HD
BRANCH  16  26
ATOM     20  C   UNL     1      -0.442  12.002  19.704  0.00  0.00    +0.000 C 
ATOM     21  C   UNL     1      -0.380  11.029  20.849  0.00  0.00    +0.000 A 
ATOM     22  C   UNL     1      -0.917  11.448  22.085  0.00  0.00    +0.000 A 
ATOM     23  C   UNL     1      -0.857  10.637  23.218  0.00  0.00    +0.000 A 
ATOM     24  C   UNL     1      -0.267   9.382  23.138  0.00  0.00    +0.000 A 
ATOM     25  C   UNL     1       0.268   8.946  21.925  0.00  0.00    +0.000 A 
ATOM     26  C   UNL     1       0.217   9.753  20.770  0.00  0.00    +0.000 A 
ENDBRANCH  16  26
ENDBRANCH   1  18
TORSDOF 4
ENDMDL
