MODEL 1
REMARK VINA RESULT:      -8.2      0.000      0.000
REMARK  Name = 
REMARK  7 active torsions:
REMARK  status: ('A' for Active; 'I' for Inactive)
REMARK    1  A    between atoms: C_7  and  O_8
REMARK    2  A    between atoms: O_8  and  C_9
REMARK    3  A    between atoms: N_16  and  N_17
REMARK    4  A    between atoms: N_17  and  C_18
REMARK    5  A    between atoms: C_18  and  N_20
REMARK    6  A    between atoms: N_20  and  C_21
REMARK    7  A    between atoms: C_21  and  C_22
REMARK                            x       y       z     vdW  Elec       q    Type
REMARK                         _______ _______ _______ _____ _____    ______ ____
ROOT
ATOM      1  O   UNL     1       7.097   5.430  17.424  0.00  0.00    +0.000 OA
ATOM      2  C   UNL     1       6.874   5.134  16.271  0.00  0.00    +0.000 C 
ATOM      3  N   UNL     1       7.641   5.348  15.139  0.00  0.00    +0.000 N 
ATOM      4  C   UNL     1       7.040   4.770  14.022  0.00  0.00    +0.000 A 
ATOM      5  C   UNL     1       7.495   4.751  12.722  0.00  0.00    +0.000 A 
ATOM      6  C   UNL     1       6.711   4.063  11.781  0.00  0.00    +0.000 A 
ATOM      7  C   UNL     1       5.512   3.404  12.139  0.00  0.00    +0.000 A 
ATOM      8  C   UNL     1       5.041   3.489  13.446  0.00  0.00    +0.000 A 
ATOM      9  C   UNL     1       5.838   4.159  14.357  0.00  0.00    +0.000 A 
ATOM     10  C   UNL     1       5.633   4.397  15.777  0.00  0.00    +0.000 C 
ATOM     11  N   UNL     1       4.550   4.081  16.400  0.00  0.00    +0.000 NA
ATOM     12  H   UNL     1       8.524   5.837  15.152  0.00  0.00    +0.000 HD
ENDROOT
BRANCH  11  13
ATOM     13  N   UNL     1       4.444   4.346  17.729  0.00  0.00    +0.000 N 
ATOM     14  H   UNL     1       5.064   5.037  18.153  0.00  0.00    +0.000 HD
BRANCH  13  15
ATOM     15  C   UNL     1       3.456   3.702  18.465  0.00  0.00    +0.000 C 
ATOM     16  S   UNL     1       3.429   2.038  18.707  0.00  0.00    +0.000 S 
BRANCH  15  17
ATOM     17  N   UNL     1       2.551   4.591  19.015  0.00  0.00    +0.000 N 
ATOM     18  H   UNL     1       1.664   4.689  18.537  0.00  0.00    +0.000 HD
BRANCH  17  19
ATOM     19  C   UNL     1       2.901   5.703  19.892  0.00  0.00    +0.000 C 
BRANCH  19  20
ATOM     20  C   UNL     1       2.320   7.031  19.448  0.00  0.00    +0.000 A 
ATOM     21  C   UNL     1       1.672   7.837  20.402  0.00  0.00    +0.000 A 
ATOM     22  C   UNL     1       1.155   9.087  20.052  0.00  0.00    +0.000 A 
ATOM     23  C   UNL     1       1.287   9.557  18.748  0.00  0.00    +0.000 A 
ATOM     24  C   UNL     1       1.947   8.783  17.798  0.00  0.00    +0.000 A 
ATOM     25  C   UNL     1       2.467   7.536  18.147  0.00  0.00    +0.000 A 
ENDBRANCH  19  20
ENDBRANCH  17  19
ENDBRANCH  15  17
ENDBRANCH  13  15
ENDBRANCH  11  13
BRANCH   7  26
ATOM     26  O   UNL     1       4.880   2.774  11.110  0.00  0.00    +0.000 OA
BRANCH  26  27
ATOM     27  C   UNL     1       3.595   3.222  10.690  0.00  0.00    +0.000 C 
ATOM     28  F   UNL     1       2.569   2.725  11.411  0.00  0.00    +0.000 F 
ATOM     29  F   UNL     1       3.555   4.570  10.741  0.00  0.00    +0.000 F 
ATOM     30  F   UNL     1       3.413   2.843   9.405  0.00  0.00    +0.000 F 
ENDBRANCH  26  27
ENDBRANCH   7  26
TORSDOF 7
ENDMDL
MODEL 2
REMARK VINA RESULT:      -8.0      0.727      1.389
REMARK  Name = 
REMARK  7 active torsions:
REMARK  status: ('A' for Active; 'I' for Inactive)
REMARK    1  A    between atoms: C_7  and  O_8
REMARK    2  A    between atoms: O_8  and  C_9
REMARK    3  A    between atoms: N_16  and  N_17
REMARK    4  A    between atoms: N_17  and  C_18
REMARK    5  A    between atoms: C_18  and  N_20
REMARK    6  A    between atoms: N_20  and  C_21
REMARK    7  A    between atoms: C_21  and  C_22
REMARK                            x       y       z     vdW  Elec       q    Type
REMARK                         _______ _______ _______ _____ _____    ______ ____
ROOT
ATOM      1  O   UNL     1       7.133   5.400  17.427  0.00  0.00    +0.000 OA
ATOM      2  C   UNL     1       6.899   5.108  16.275  0.00  0.00    +0.000 C 
ATOM      3  N   UNL     1       7.641   5.353  15.133  0.00  0.00    +0.000 N 
ATOM      4  C   UNL     1       7.038   4.769  14.020  0.00  0.00    +0.000 A 
ATOM      5  C   UNL     1       7.471   4.774  12.713  0.00  0.00    +0.000 A 
ATOM      6  C   UNL     1       6.690   4.074  11.778  0.00  0.00    +0.000 A 
ATOM      7  C   UNL     1       5.515   3.379  12.150  0.00  0.00    +0.000 A 
ATOM      8  C   UNL     1       5.063   3.440  13.465  0.00  0.00    +0.000 A 
ATOM      9  C   UNL     1       5.858   4.123  14.369  0.00  0.00    +0.000 A 
ATOM     10  C   UNL     1       5.670   4.343  15.794  0.00  0.00    +0.000 C 
ATOM     11  N   UNL     1       4.606   3.992  16.432  0.00  0.00    +0.000 NA
ATOM     12  H   UNL     1       8.511   5.865  15.136  0.00  0.00    +0.000 HD
ENDROOT
BRANCH  11  13
ATOM     13  N   UNL     1       4.516   4.242  17.765  0.00  0.00    +0.000 N 
ATOM     14  H   UNL     1       5.336   4.110  18.357  0.00  0.00    +0.000 HD
BRANCH  13  15
ATOM     15  C   UNL     1       3.315   4.723  18.277  0.00  0.00    +0.000 C 
ATOM     16  S   UNL     1       1.827   4.014  17.945  0.00  0.00    +0.000 S 
BRANCH  15  17
ATOM     17  N   UNL     1       3.503   5.796  19.128  0.00  0.00    +0.000 N 
ATOM     18  H   UNL     1       4.457   5.995  19.403  0.00  0.00    +0.000 HD
BRANCH  17  19
ATOM     19  C   UNL     1       2.482   6.354  20.007  0.00  0.00    +0.000 C 
BRANCH  19  20
ATOM     20  C   UNL     1       2.003   7.730  19.582  0.00  0.00    +0.000 A 
ATOM     21  C   UNL     1       2.269   8.161  18.269  0.00  0.00    +0.000 A 
ATOM     22  C   UNL     1       1.815   9.402  17.817  0.00  0.00    +0.000 A 
ATOM     23  C   UNL     1       1.078  10.226  18.662  0.00  0.00    +0.000 A 
ATOM     24  C   UNL     1       0.785   9.805  19.956  0.00  0.00    +0.000 A 
ATOM     25  C   UNL     1       1.235   8.564  20.409  0.00  0.00    +0.000 A 
ENDBRANCH  19  20
ENDBRANCH  17  19
ENDBRANCH  15  17
ENDBRANCH  13  15
ENDBRANCH  11  13
BRANCH   7  26
ATOM     26  O   UNL     1       4.883   2.741  11.125  0.00  0.00    +0.000 OA
BRANCH  26  27
ATOM     27  C   UNL     1       3.622   3.219  10.667  0.00  0.00    +0.000 C 
ATOM     28  F   UNL     1       3.351   2.926   9.378  0.00  0.00    +0.000 F 
ATOM     29  F   UNL     1       2.643   2.713  11.447  0.00  0.00    +0.000 F 
ATOM     30  F   UNL     1       3.607   4.565  10.792  0.00  0.00    +0.000 F 
ENDBRANCH  26  27
ENDBRANCH   7  26
TORSDOF 7
ENDMDL
MODEL 3
REMARK VINA RESULT:      -7.9      1.524      1.711
REMARK  Name = 
REMARK  7 active torsions:
REMARK  status: ('A' for Active; 'I' for Inactive)
REMARK    1  A    between atoms: C_7  and  O_8
REMARK    2  A    between atoms: O_8  and  C_9
REMARK    3  A    between atoms: N_16  and  N_17
REMARK    4  A    between atoms: N_17  and  C_18
REMARK    5  A    between atoms: C_18  and  N_20
REMARK    6  A    between atoms: N_20  and  C_21
REMARK    7  A    between atoms: C_21  and  C_22
REMARK                            x       y       z     vdW  Elec       q    Type
REMARK                         _______ _______ _______ _____ _____    ______ ____
ROOT
ATOM      1  O   UNL     1       6.874   5.898  17.655  0.00  0.00    +0.000 OA
ATOM      2  C   UNL     1       6.796   5.510  16.509  0.00  0.00    +0.000 C 
ATOM      3  N   UNL     1       7.579   5.827  15.413  0.00  0.00    +0.000 N 
ATOM      4  C   UNL     1       7.187   5.086  14.299  0.00  0.00    +0.000 A 
ATOM      5  C   UNL     1       7.724   5.103  13.032  0.00  0.00    +0.000 A 
ATOM      6  C   UNL     1       7.164   4.225  12.088  0.00  0.00    +0.000 A 
ATOM      7  C   UNL     1       6.102   3.348  12.415  0.00  0.00    +0.000 A 
ATOM      8  C   UNL     1       5.535   3.393  13.685  0.00  0.00    +0.000 A 
ATOM      9  C   UNL     1       6.115   4.255  14.599  0.00  0.00    +0.000 A 
ATOM     10  C   UNL     1       5.768   4.510  15.989  0.00  0.00    +0.000 C 
ATOM     11  N   UNL     1       4.733   4.005  16.565  0.00  0.00    +0.000 NA
ATOM     12  H   UNL     1       8.340   6.488  15.449  0.00  0.00    +0.000 HD
ENDROOT
BRANCH  11  13
ATOM     13  N   UNL     1       4.484   4.303  17.869  0.00  0.00    +0.000 N 
ATOM     14  H   UNL     1       5.020   5.040  18.325  0.00  0.00    +0.000 HD
BRANCH  13  15
ATOM     15  C   UNL     1       3.465   3.625  18.529  0.00  0.00    +0.000 C 
ATOM     16  S   UNL     1       3.381   1.947  18.609  0.00  0.00    +0.000 S 
BRANCH  15  17
ATOM     17  N   UNL     1       2.582   4.488  19.152  0.00  0.00    +0.000 N 
ATOM     18  H   UNL     1       1.646   4.532  18.771  0.00  0.00    +0.000 HD
BRANCH  17  19
ATOM     19  C   UNL     1       2.970   5.637  19.961  0.00  0.00    +0.000 C 
BRANCH  19  20
ATOM     20  C   UNL     1       2.375   6.946  19.478  0.00  0.00    +0.000 A 
ATOM     21  C   UNL     1       1.713   7.770  20.407  0.00  0.00    +0.000 A 
ATOM     22  C   UNL     1       1.183   9.003  20.020  0.00  0.00    +0.000 A 
ATOM     23  C   UNL     1       1.315   9.439  18.705  0.00  0.00    +0.000 A 
ATOM     24  C   UNL     1       1.988   8.647  17.779  0.00  0.00    +0.000 A 
ATOM     25  C   UNL     1       2.522   7.416  18.164  0.00  0.00    +0.000 A 
ENDBRANCH  19  20
ENDBRANCH  17  19
ENDBRANCH  15  17
ENDBRANCH  13  15
ENDBRANCH  11  13
BRANCH   7  26
ATOM     26  O   UNL     1       5.684   2.555  11.390  0.00  0.00    +0.000 OA
BRANCH  26  27
ATOM     27  C   UNL     1       6.434   1.394  11.043  0.00  0.00    +0.000 C 
ATOM     28  F   UNL     1       7.715   1.414  11.467  0.00  0.00    +0.000 F 
ATOM     29  F   UNL     1       5.822   0.302  11.545  0.00  0.00    +0.000 F 
ATOM     30  F   UNL     1       6.451   1.287   9.696  0.00  0.00    +0.000 F 
ENDBRANCH  26  27
ENDBRANCH   7  26
TORSDOF 7
ENDMDL
MODEL 4
REMARK VINA RESULT:      -7.9      1.897      2.451
REMARK  Name = 
REMARK  7 active torsions:
REMARK  status: ('A' for Active; 'I' for Inactive)
REMARK    1  A    between atoms: C_7  and  O_8
REMARK    2  A    between atoms: O_8  and  C_9
REMARK    3  A    between atoms: N_16  and  N_17
REMARK    4  A    between atoms: N_17  and  C_18
REMARK    5  A    between atoms: C_18  and  N_20
REMARK    6  A    between atoms: N_20  and  C_21
REMARK    7  A    between atoms: C_21  and  C_22
REMARK                            x       y       z     vdW  Elec       q    Type
REMARK                         _______ _______ _______ _____ _____    ______ ____
ROOT
ATOM      1  O   UNL     1       7.085   5.497  17.801  0.00  0.00    +0.000 OA
ATOM      2  C   UNL     1       6.953   5.202  16.633  0.00  0.00    +0.000 C 
ATOM      3  N   UNL     1       7.581   5.721  15.514  0.00  0.00    +0.000 N 
ATOM      4  C   UNL     1       7.189   5.032  14.367  0.00  0.00    +0.000 A 
ATOM      5  C   UNL     1       7.598   5.235  13.068  0.00  0.00    +0.000 A 
ATOM      6  C   UNL     1       7.074   4.372  12.091  0.00  0.00    +0.000 A 
ATOM      7  C   UNL     1       6.175   3.328  12.414  0.00  0.00    +0.000 A 
ATOM      8  C   UNL     1       5.728   3.181  13.724  0.00  0.00    +0.000 A 
ATOM      9  C   UNL     1       6.271   4.034  14.669  0.00  0.00    +0.000 A 
ATOM     10  C   UNL     1       6.024   4.115  16.100  0.00  0.00    +0.000 C 
ATOM     11  N   UNL     1       5.124   3.420  16.705  0.00  0.00    +0.000 NA
ATOM     12  H   UNL     1       8.247   6.478  15.553  0.00  0.00    +0.000 HD
ENDROOT
BRANCH  11  13
ATOM     13  N   UNL     1       4.961   3.565  18.048  0.00  0.00    +0.000 N 
ATOM     14  H   UNL     1       5.456   4.312  18.535  0.00  0.00    +0.000 HD
BRANCH  13  15
ATOM     15  C   UNL     1       4.079   2.719  18.712  0.00  0.00    +0.000 C 
ATOM     16  S   UNL     1       4.374   2.112  20.252  0.00  0.00    +0.000 S 
BRANCH  15  17
ATOM     17  N   UNL     1       2.924   2.496  17.986  0.00  0.00    +0.000 N 
ATOM     18  H   UNL     1       3.028   1.998  17.110  0.00  0.00    +0.000 HD
BRANCH  17  19
ATOM     19  C   UNL     1       1.698   3.277  18.105  0.00  0.00    +0.000 C 
BRANCH  19  20
ATOM     20  C   UNL     1       1.907   4.636  18.746  0.00  0.00    +0.000 A 
ATOM     21  C   UNL     1       2.313   5.710  17.932  0.00  0.00    +0.000 A 
ATOM     22  C   UNL     1       2.480   6.990  18.467  0.00  0.00    +0.000 A 
ATOM     23  C   UNL     1       2.233   7.221  19.817  0.00  0.00    +0.000 A 
ATOM     24  C   UNL     1       1.807   6.175  20.630  0.00  0.00    +0.000 A 
ATOM     25  C   UNL     1       1.636   4.896  20.098  0.00  0.00    +0.000 A 
ENDBRANCH  19  20
ENDBRANCH  17  19
ENDBRANCH  15  17
ENDBRANCH  13  15
ENDBRANCH  11  13
BRANCH   7  26
ATOM     26  O   UNL     1       5.773   2.575  11.352  0.00  0.00    +0.000 OA
BRANCH  26  27
ATOM     27  C   UNL     1       6.481   1.384  11.022  0.00  0.00    +0.000 C 
ATOM     28  F   UNL     1       5.847   0.246  11.371  0.00  0.00    +0.000 F 
ATOM     29  F   UNL     1       6.723   1.362   9.694  0.00  0.00    +0.000 F 
ATOM     30  F   UNL     1       7.670   1.405  11.667  0.00  0.00    +0.000 F 
ENDBRANCH  26  27
ENDBRANCH   7  26
TORSDOF 7
ENDMDL
MODEL 5
REMARK VINA RESULT:      -7.6      3.967      5.843
REMARK  Name = 
REMARK  7 active torsions:
REMARK  status: ('A' for Active; 'I' for Inactive)
REMARK    1  A    between atoms: C_7  and  O_8
REMARK    2  A    between atoms: O_8  and  C_9
REMARK    3  A    between atoms: N_16  and  N_17
REMARK    4  A    between atoms: N_17  and  C_18
REMARK    5  A    between atoms: C_18  and  N_20
REMARK    6  A    between atoms: N_20  and  C_21
REMARK    7  A    between atoms: C_21  and  C_22
REMARK                            x       y       z     vdW  Elec       q    Type
REMARK                         _______ _______ _______ _____ _____    ______ ____
ROOT
ATOM      1  O   UNL     1       0.772   4.465  20.723  0.00  0.00    +0.000 OA
ATOM      2  C   UNL     1       1.630   4.414  19.868  0.00  0.00    +0.000 C 
ATOM      3  N   UNL     1       2.072   3.336  19.123  0.00  0.00    +0.000 N 
ATOM      4  C   UNL     1       3.024   3.742  18.189  0.00  0.00    +0.000 A 
ATOM      5  C   UNL     1       3.688   2.975  17.258  0.00  0.00    +0.000 A 
ATOM      6  C   UNL     1       4.580   3.640  16.401  0.00  0.00    +0.000 A 
ATOM      7  C   UNL     1       4.789   5.038  16.471  0.00  0.00    +0.000 A 
ATOM      8  C   UNL     1       4.154   5.783  17.460  0.00  0.00    +0.000 A 
ATOM      9  C   UNL     1       3.269   5.107  18.281  0.00  0.00    +0.000 A 
ATOM     10  C   UNL     1       2.451   5.602  19.377  0.00  0.00    +0.000 C 
ATOM     11  N   UNL     1       2.525   6.807  19.828  0.00  0.00    +0.000 NA
ATOM     12  H   UNL     1       1.720   2.398  19.242  0.00  0.00    +0.000 HD
ENDROOT
BRANCH  11  13
ATOM     13  N   UNL     1       1.723   7.182  20.861  0.00  0.00    +0.000 N 
ATOM     14  H   UNL     1       1.527   6.517  21.609  0.00  0.00    +0.000 HD
BRANCH  13  15
ATOM     15  C   UNL     1       1.233   8.483  20.892  0.00  0.00    +0.000 C 
ATOM     16  S   UNL     1       0.929   9.315  22.321  0.00  0.00    +0.000 S 
BRANCH  15  17
ATOM     17  N   UNL     1       1.091   9.017  19.625  0.00  0.00    +0.000 N 
ATOM     18  H   UNL     1       1.493   8.487  18.861  0.00  0.00    +0.000 HD
BRANCH  17  19
ATOM     19  C   UNL     1       0.854  10.427  19.334  0.00  0.00    +0.000 C 
BRANCH  19  20
ATOM     20  C   UNL     1      -0.524  10.704  18.765  0.00  0.00    +0.000 A 
ATOM     21  C   UNL     1      -0.946   9.976  17.636  0.00  0.00    +0.000 A 
ATOM     22  C   UNL     1      -2.221  10.166  17.098  0.00  0.00    +0.000 A 
ATOM     23  C   UNL     1      -3.098  11.075  17.683  0.00  0.00    +0.000 A 
ATOM     24  C   UNL     1      -2.706  11.784  18.814  0.00  0.00    +0.000 A 
ATOM     25  C   UNL     1      -1.434  11.594  19.356  0.00  0.00    +0.000 A 
ENDBRANCH  19  20
ENDBRANCH  17  19
ENDBRANCH  15  17
ENDBRANCH  13  15
ENDBRANCH  11  13
BRANCH   7  26
ATOM     26  O   UNL     1       5.677   5.527  15.560  0.00  0.00    +0.000 OA
BRANCH  26  27
ATOM     27  C   UNL     1       7.075   5.365  15.779  0.00  0.00    +0.000 C 
ATOM     28  F   UNL     1       7.400   4.289  16.526  0.00  0.00    +0.000 F 
ATOM     29  F   UNL     1       7.706   5.280  14.590  0.00  0.00    +0.000 F 
ATOM     30  F   UNL     1       7.533   6.462  16.423  0.00  0.00    +0.000 F 
ENDBRANCH  26  27
ENDBRANCH   7  26
TORSDOF 7
ENDMDL
MODEL 6
REMARK VINA RESULT:      -7.6      5.970      8.096
REMARK  Name = 
REMARK  7 active torsions:
REMARK  status: ('A' for Active; 'I' for Inactive)
REMARK    1  A    between atoms: C_7  and  O_8
REMARK    2  A    between atoms: O_8  and  C_9
REMARK    3  A    between atoms: N_16  and  N_17
REMARK    4  A    between atoms: N_17  and  C_18
REMARK    5  A    between atoms: C_18  and  N_20
REMARK    6  A    between atoms: N_20  and  C_21
REMARK    7  A    between atoms: C_21  and  C_22
REMARK                            x       y       z     vdW  Elec       q    Type
REMARK                         _______ _______ _______ _____ _____    ______ ____
ROOT
ATOM      1  O   UNL     1       2.267  10.126  17.534  0.00  0.00    +0.000 OA
ATOM      2  C   UNL     1       2.348   9.000  17.974  0.00  0.00    +0.000 C 
ATOM      3  N   UNL     1       3.017   7.899  17.468  0.00  0.00    +0.000 N 
ATOM      4  C   UNL     1       2.914   6.818  18.342  0.00  0.00    +0.000 A 
ATOM      5  C   UNL     1       3.450   5.557  18.207  0.00  0.00    +0.000 A 
ATOM      6  C   UNL     1       3.227   4.651  19.258  0.00  0.00    +0.000 A 
ATOM      7  C   UNL     1       2.496   5.008  20.415  0.00  0.00    +0.000 A 
ATOM      8  C   UNL     1       1.911   6.268  20.502  0.00  0.00    +0.000 A 
ATOM      9  C   UNL     1       2.159   7.146  19.462  0.00  0.00    +0.000 A 
ATOM     10  C   UNL     1       1.712   8.517  19.274  0.00  0.00    +0.000 C 
ATOM     11  N   UNL     1       0.879   9.106  20.061  0.00  0.00    +0.000 NA
ATOM     12  H   UNL     1       3.524   7.911  16.596  0.00  0.00    +0.000 HD
ENDROOT
BRANCH  11  13
ATOM     13  N   UNL     1       0.513  10.390  19.805  0.00  0.00    +0.000 N 
ATOM     14  H   UNL     1       0.845  10.845  18.954  0.00  0.00    +0.000 HD
BRANCH  13  15
ATOM     15  C   UNL     1      -0.349  11.031  20.688  0.00  0.00    +0.000 C 
ATOM     16  S   UNL     1      -0.486  10.604  22.309  0.00  0.00    +0.000 S 
BRANCH  15  17
ATOM     17  N   UNL     1      -1.019  12.084  20.092  0.00  0.00    +0.000 N 
ATOM     18  H   UNL     1      -0.540  12.976  20.077  0.00  0.00    +0.000 HD
BRANCH  17  19
ATOM     19  C   UNL     1      -2.464  12.161  19.915  0.00  0.00    +0.000 C 
BRANCH  19  20
ATOM     20  C   UNL     1      -2.933  11.689  18.551  0.00  0.00    +0.000 A 
ATOM     21  C   UNL     1      -4.316  11.654  18.288  0.00  0.00    +0.000 A 
ATOM     22  C   UNL     1      -4.796  11.265  17.036  0.00  0.00    +0.000 A 
ATOM     23  C   UNL     1      -3.907  10.917  16.023  0.00  0.00    +0.000 A 
ATOM     24  C   UNL     1      -2.536  10.971  16.259  0.00  0.00    +0.000 A 
ATOM     25  C   UNL     1      -2.053  11.362  17.509  0.00  0.00    +0.000 A 
ENDBRANCH  19  20
ENDBRANCH  17  19
ENDBRANCH  15  17
ENDBRANCH  13  15
ENDBRANCH  11  13
BRANCH   7  26
ATOM     26  O   UNL     1       2.383   4.018  21.344  0.00  0.00    +0.000 OA
BRANCH  26  27
ATOM     27  C   UNL     1       1.407   2.995  21.170  0.00  0.00    +0.000 C 
ATOM     28  F   UNL     1       0.940   2.472  22.323  0.00  0.00    +0.000 F 
ATOM     29  F   UNL     1       0.371   3.484  20.458  0.00  0.00    +0.000 F 
ATOM     30  F   UNL     1       1.969   1.989  20.463  0.00  0.00    +0.000 F 
ENDBRANCH  26  27
ENDBRANCH   7  26
TORSDOF 7
ENDMDL
MODEL 7
REMARK VINA RESULT:      -7.5      5.255      9.147
REMARK  Name = 
REMARK  7 active torsions:
REMARK  status: ('A' for Active; 'I' for Inactive)
REMARK    1  A    between atoms: C_7  and  O_8
REMARK    2  A    between atoms: O_8  and  C_9
REMARK    3  A    between atoms: N_16  and  N_17
REMARK    4  A    between atoms: N_17  and  C_18
REMARK    5  A    between atoms: C_18  and  N_20
REMARK    6  A    between atoms: N_20  and  C_21
REMARK    7  A    between atoms: C_21  and  C_22
REMARK                            x       y       z     vdW  Elec       q    Type
REMARK                         _______ _______ _______ _____ _____    ______ ____
ROOT
ATOM      1  O   UNL     1       1.498   9.362  22.768  0.00  0.00    +0.000 OA
ATOM      2  C   UNL     1       0.759   9.821  21.924  0.00  0.00    +0.000 C 
ATOM      3  N   UNL     1      -0.144  10.865  22.015  0.00  0.00    +0.000 N 
ATOM      4  C   UNL     1      -0.731  11.115  20.775  0.00  0.00    +0.000 A 
ATOM      5  C   UNL     1      -1.663  12.075  20.450  0.00  0.00    +0.000 A 
ATOM      6  C   UNL     1      -2.071  12.141  19.108  0.00  0.00    +0.000 A 
ATOM      7  C   UNL     1      -1.549  11.274  18.120  0.00  0.00    +0.000 A 
ATOM      8  C   UNL     1      -0.655  10.271  18.483  0.00  0.00    +0.000 A 
ATOM      9  C   UNL     1      -0.257  10.237  19.808  0.00  0.00    +0.000 A 
ATOM     10  C   UNL     1       0.665   9.337  20.481  0.00  0.00    +0.000 C 
ATOM     11  N   UNL     1       1.195   8.309  19.912  0.00  0.00    +0.000 NA
ATOM     12  H   UNL     1      -0.317  11.377  22.867  0.00  0.00    +0.000 HD
ENDROOT
BRANCH  11  13
ATOM     13  N   UNL     1       2.045   7.519  20.621  0.00  0.00    +0.000 N 
ATOM     14  H   UNL     1       2.315   7.795  21.565  0.00  0.00    +0.000 HD
BRANCH  13  15
ATOM     15  C   UNL     1       2.480   6.325  20.055  0.00  0.00    +0.000 C 
ATOM     16  S   UNL     1       2.175   4.820  20.740  0.00  0.00    +0.000 S 
BRANCH  15  17
ATOM     17  N   UNL     1       3.127   6.525  18.850  0.00  0.00    +0.000 N 
ATOM     18  H   UNL     1       3.240   7.485  18.549  0.00  0.00    +0.000 HD
BRANCH  17  19
ATOM     19  C   UNL     1       3.238   5.532  17.787  0.00  0.00    +0.000 C 
BRANCH  19  20
ATOM     20  C   UNL     1       4.671   5.202  17.414  0.00  0.00    +0.000 A 
ATOM     21  C   UNL     1       5.703   5.589  18.290  0.00  0.00    +0.000 A 
ATOM     22  C   UNL     1       7.034   5.273  18.012  0.00  0.00    +0.000 A 
ATOM     23  C   UNL     1       7.357   4.558  16.862  0.00  0.00    +0.000 A 
ATOM     24  C   UNL     1       6.347   4.147  15.997  0.00  0.00    +0.000 A 
ATOM     25  C   UNL     1       5.015   4.458  16.275  0.00  0.00    +0.000 A 
ENDBRANCH  19  20
ENDBRANCH  17  19
ENDBRANCH  15  17
ENDBRANCH  13  15
ENDBRANCH  11  13
BRANCH   7  26
ATOM     26  O   UNL     1      -2.040  11.479  16.865  0.00  0.00    +0.000 OA
BRANCH  26  27
ATOM     27  C   UNL     1      -3.048  10.613  16.352  0.00  0.00    +0.000 C 
ATOM     28  F   UNL     1      -4.190  11.238  15.998  0.00  0.00    +0.000 F 
ATOM     29  F   UNL     1      -2.562   9.949  15.282  0.00  0.00    +0.000 F 
ATOM     30  F   UNL     1      -3.356   9.707  17.307  0.00  0.00    +0.000 F 
ENDBRANCH  26  27
ENDBRANCH   7  26
TORSDOF 7
ENDMDL
MODEL 8
REMARK VINA RESULT:      -7.5      6.226      9.316
REMARK  Name = 
REMARK  7 active torsions:
REMARK  status: ('A' for Active; 'I' for Inactive)
REMARK    1  A    between atoms: C_7  and  O_8
REMARK    2  A    between atoms: O_8  and  C_9
REMARK    3  A    between atoms: N_16  and  N_17
REMARK    4  A    between atoms: N_17  and  C_18
REMARK    5  A    between atoms: C_18  and  N_20
REMARK    6  A    between atoms: N_20  and  C_21
REMARK    7  A    between atoms: C_21  and  C_22
REMARK                            x       y       z     vdW  Elec       q    Type
REMARK                         _______ _______ _______ _____ _____    ______ ____
ROOT
ATOM      1  O   UNL     1       1.524   9.697  22.646  0.00  0.00    +0.000 OA
ATOM      2  C   UNL     1       0.713  10.096  21.839  0.00  0.00    +0.000 C 
ATOM      3  N   UNL     1      -0.258  11.073  21.970  0.00  0.00    +0.000 N 
ATOM      4  C   UNL     1      -0.923  11.270  20.761  0.00  0.00    +0.000 A 
ATOM      5  C   UNL     1      -1.936  12.159  20.480  0.00  0.00    +0.000 A 
ATOM      6  C   UNL     1      -2.415  12.185  19.159  0.00  0.00    +0.000 A 
ATOM      7  C   UNL     1      -1.882  11.349  18.149  0.00  0.00    +0.000 A 
ATOM      8  C   UNL     1      -0.901  10.416  18.472  0.00  0.00    +0.000 A 
ATOM      9  C   UNL     1      -0.436  10.421  19.775  0.00  0.00    +0.000 A 
ATOM     10  C   UNL     1       0.581   9.594  20.404  0.00  0.00    +0.000 C 
ATOM     11  N   UNL     1       1.155   8.603  19.813  0.00  0.00    +0.000 NA
ATOM     12  H   UNL     1      -0.424  11.578  22.828  0.00  0.00    +0.000 HD
ENDROOT
BRANCH  11  13
ATOM     13  N   UNL     1       2.093   7.881  20.482  0.00  0.00    +0.000 N 
ATOM     14  H   UNL     1       2.505   8.262  21.334  0.00  0.00    +0.000 HD
BRANCH  13  15
ATOM     15  C   UNL     1       2.428   6.616  20.011  0.00  0.00    +0.000 C 
ATOM     16  S   UNL     1       3.243   6.363  18.562  0.00  0.00    +0.000 S 
BRANCH  15  17
ATOM     17  N   UNL     1       2.070   5.617  20.897  0.00  0.00    +0.000 N 
ATOM     18  H   UNL     1       2.633   5.531  21.734  0.00  0.00    +0.000 HD
BRANCH  17  19
ATOM     19  C   UNL     1       1.302   4.427  20.548  0.00  0.00    +0.000 C 
BRANCH  19  20
ATOM     20  C   UNL     1       2.105   3.391  19.785  0.00  0.00    +0.000 A 
ATOM     21  C   UNL     1       1.653   2.990  18.513  0.00  0.00    +0.000 A 
ATOM     22  C   UNL     1       2.378   2.069  17.754  0.00  0.00    +0.000 A 
ATOM     23  C   UNL     1       3.570   1.543  18.244  0.00  0.00    +0.000 A 
ATOM     24  C   UNL     1       4.043   1.948  19.488  0.00  0.00    +0.000 A 
ATOM     25  C   UNL     1       3.323   2.870  20.248  0.00  0.00    +0.000 A 
ENDBRANCH  19  20
ENDBRANCH  17  19
ENDBRANCH  15  17
ENDBRANCH  13  15
ENDBRANCH  11  13
BRANCH   7  26
ATOM     26  O   UNL     1      -2.449  11.508  16.921  0.00  0.00    +0.000 OA
BRANCH  26  27
ATOM     27  C   UNL     1      -3.205  10.445  16.349  0.00  0.00    +0.000 C 
ATOM     28  F   UNL     1      -2.546   9.741  15.405  0.00  0.00    +0.000 F 
ATOM     29  F   UNL     1      -3.601   9.604  17.327  0.00  0.00    +0.000 F 
ATOM     30  F   UNL     1      -4.308  10.971  15.771  0.00  0.00    +0.000 F 
ENDBRANCH  26  27
ENDBRANCH   7  26
TORSDOF 7
ENDMDL
MODEL 9
REMARK VINA RESULT:      -7.5      1.204      1.778
REMARK  Name = 
REMARK  7 active torsions:
REMARK  status: ('A' for Active; 'I' for Inactive)
REMARK    1  A    between atoms: C_7  and  O_8
REMARK    2  A    between atoms: O_8  and  C_9
REMARK    3  A    between atoms: N_16  and  N_17
REMARK    4  A    between atoms: N_17  and  C_18
REMARK    5  A    between atoms: C_18  and  N_20
REMARK    6  A    between atoms: N_20  and  C_21
REMARK    7  A    between atoms: C_21  and  C_22
REMARK                            x       y       z     vdW  Elec       q    Type
REMARK                         _______ _______ _______ _____ _____    ______ ____
ROOT
ATOM      1  O   UNL     1       6.559   4.755  18.893  0.00  0.00    +0.000 OA
ATOM      2  C   UNL     1       6.589   4.735  17.681  0.00  0.00    +0.000 C 
ATOM      3  N   UNL     1       7.451   5.376  16.808  0.00  0.00    +0.000 N 
ATOM      4  C   UNL     1       7.177   5.010  15.492  0.00  0.00    +0.000 A 
ATOM      5  C   UNL     1       7.817   5.416  14.342  0.00  0.00    +0.000 A 
ATOM      6  C   UNL     1       7.366   4.866  13.130  0.00  0.00    +0.000 A 
ATOM      7  C   UNL     1       6.311   3.925  13.079  0.00  0.00    +0.000 A 
ATOM      8  C   UNL     1       5.638   3.576  14.247  0.00  0.00    +0.000 A 
ATOM      9  C   UNL     1       6.112   4.120  15.427  0.00  0.00    +0.000 A 
ATOM     10  C   UNL     1       5.642   3.937  16.792  0.00  0.00    +0.000 C 
ATOM     11  N   UNL     1       4.579   3.273  17.092  0.00  0.00    +0.000 NA
ATOM     12  H   UNL     1       8.185   5.999  17.111  0.00  0.00    +0.000 HD
ENDROOT
BRANCH  11  13
ATOM     13  N   UNL     1       4.213   3.157  18.397  0.00  0.00    +0.000 N 
ATOM     14  H   UNL     1       4.796   2.616  19.035  0.00  0.00    +0.000 HD
BRANCH  13  15
ATOM     15  C   UNL     1       3.075   3.826  18.836  0.00  0.00    +0.000 C 
ATOM     16  S   UNL     1       1.600   3.058  19.090  0.00  0.00    +0.000 S 
BRANCH  15  17
ATOM     17  N   UNL     1       3.322   5.161  19.094  0.00  0.00    +0.000 N 
ATOM     18  H   UNL     1       3.318   5.444  20.067  0.00  0.00    +0.000 HD
BRANCH  17  19
ATOM     19  C   UNL     1       3.125   6.246  18.140  0.00  0.00    +0.000 C 
BRANCH  19  20
ATOM     20  C   UNL     1       2.387   7.438  18.721  0.00  0.00    +0.000 A 
ATOM     21  C   UNL     1       2.039   8.499  17.865  0.00  0.00    +0.000 A 
ATOM     22  C   UNL     1       1.325   9.600  18.344  0.00  0.00    +0.000 A 
ATOM     23  C   UNL     1       0.936   9.654  19.679  0.00  0.00    +0.000 A 
ATOM     24  C   UNL     1       1.251   8.602  20.533  0.00  0.00    +0.000 A 
ATOM     25  C   UNL     1       1.961   7.499  20.057  0.00  0.00    +0.000 A 
ENDBRANCH  19  20
ENDBRANCH  17  19
ENDBRANCH  15  17
ENDBRANCH  13  15
ENDBRANCH  11  13
BRANCH   7  26
ATOM     26  O   UNL     1       6.005   3.481  11.828  0.00  0.00    +0.000 OA
BRANCH  26  27
ATOM     27  C   UNL     1       4.651   3.198  11.490  0.00  0.00    +0.000 C 
ATOM     28  F   UNL     1       4.143   3.990  10.523  0.00  0.00    +0.000 F 
ATOM     29  F   UNL     1       4.549   1.910  11.100  0.00  0.00    +0.000 F 
ATOM     30  F   UNL     1       3.894   3.365  12.597  0.00  0.00    +0.000 F 
ENDBRANCH  26  27
ENDBRANCH   7  26
TORSDOF 7
ENDMDL
