MODEL 1
REMARK VINA RESULT:      -7.4      0.000      0.000
REMARK  Name = 
REMARK  13 active torsions:
REMARK  status: ('A' for Active; 'I' for Inactive)
REMARK    1  A    between atoms: C_2  and  C_3
REMARK    2  A    between atoms: C_3  and  C_4
REMARK    3  A    between atoms: C_4  and  C_5
REMARK    4  A    between atoms: C_5  and  C_6
REMARK    5  A    between atoms: C_6  and  C_7
REMARK    6  A    between atoms: C_7  and  C_8
REMARK    7  A    between atoms: C_8  and  C_9
REMARK    8  A    between atoms: C_9  and  S_10
REMARK    9  A    between atoms: S_10  and  C_11
REMARK   10  A    between atoms: C_13  and  O_14
REMARK   11  A    between atoms: C_16  and  C_17
REMARK   12  A    between atoms: C_17  and  C_18
REMARK   13  A    between atoms: N_25  and  O_26
REMARK                            x       y       z     vdW  Elec       q    Type
REMARK                         _______ _______ _______ _____ _____    ______ ____
ROOT
ATOM      1  C   UNL     1       6.782   6.039  17.575  0.00  0.00    +0.000 A 
ATOM      2  N   UNL     1       7.206   5.380  16.491  0.00  0.00    +0.000 NA
ATOM      3  C   UNL     1       6.253   4.730  15.823  0.00  0.00    +0.000 A 
ATOM      4  C   UNL     1       4.927   4.686  16.161  0.00  0.00    +0.000 A 
ATOM      5  C   UNL     1       4.587   5.406  17.284  0.00  0.00    +0.000 A 
ATOM      6  N   UNL     1       5.509   6.095  17.992  0.00  0.00    +0.000 NA
ENDROOT
BRANCH   3   7
ATOM      7  O   UNL     1       6.706   4.054  14.737  0.00  0.00    +0.000 OA
ATOM      8  H   UNL     1       7.403   4.662  14.429  0.00  0.00    +0.000 HD
ENDBRANCH   3   7
BRANCH   1   9
ATOM      9  S   UNL     1       8.023   6.834  18.554  0.00  0.00    +0.000 S 
BRANCH   9  10
ATOM     10  C   UNL     1       8.022   8.497  17.797  0.00  0.00    +0.000 C 
BRANCH  10  11
ATOM     11  C   UNL     1       8.798   9.498  18.653  0.00  0.00    +0.000 C 
BRANCH  11  12
ATOM     12  C   UNL     1       8.843  10.906  18.050  0.00  0.00    +0.000 C 
BRANCH  12  13
ATOM     13  C   UNL     1      10.279  11.401  17.899  0.00  0.00    +0.000 C 
BRANCH  13  14
ATOM     14  C   UNL     1      10.973  11.489  19.259  0.00  0.00    +0.000 C 
BRANCH  14  15
ATOM     15  C   UNL     1      11.574  12.876  19.479  0.00  0.00    +0.000 C 
BRANCH  15  16
ATOM     16  C   UNL     1      10.579  13.978  19.132  0.00  0.00    +0.000 C 
BRANCH  16  18
ATOM     17  O   UNL     1      12.157  15.610  18.243  0.00  0.00    +0.000 OA
ATOM     18  C   UNL     1      11.129  14.945  18.105  0.00  0.00    +0.000 C 
ATOM     19  N   UNL     1      10.360  15.025  16.969  0.00  0.00    +0.000 N 
ATOM     20  H   UNL     1       9.572  14.423  16.757  0.00  0.00    +0.000 HD
BRANCH  19  21
ATOM     21  O   UNL     1      10.832  15.866  15.938  0.00  0.00    +0.000 OA
ATOM     22  H   UNL     1      11.204  16.624  16.440  0.00  0.00    +0.000 HD
ENDBRANCH  19  21
ENDBRANCH  16  18
ENDBRANCH  15  16
ENDBRANCH  14  15
ENDBRANCH  13  14
ENDBRANCH  12  13
ENDBRANCH  11  12
ENDBRANCH  10  11
ENDBRANCH   9  10
ENDBRANCH   1   9
BRANCH   5  23
ATOM     23  C   UNL     1       3.174   5.433  17.810  0.00  0.00    +0.000 C 
BRANCH  23  24
ATOM     24  C   UNL     1       2.911   4.468  18.947  0.00  0.00    +0.000 A 
ATOM     25  C   UNL     1       3.821   3.442  19.250  0.00  0.00    +0.000 A 
ATOM     26  C   UNL     1       3.598   2.588  20.331  0.00  0.00    +0.000 A 
ATOM     27  C   UNL     1       2.469   2.754  21.129  0.00  0.00    +0.000 A 
ATOM     28  C   UNL     1       1.559   3.770  20.841  0.00  0.00    +0.000 A 
ATOM     29  C   UNL     1       1.777   4.622  19.755  0.00  0.00    +0.000 A 
ENDBRANCH  23  24
ENDBRANCH   5  23
TORSDOF 13
ENDMDL
MODEL 2
REMARK VINA RESULT:      -7.4      5.298      9.712
REMARK  Name = 
REMARK  13 active torsions:
REMARK  status: ('A' for Active; 'I' for Inactive)
REMARK    1  A    between atoms: C_2  and  C_3
REMARK    2  A    between atoms: C_3  and  C_4
REMARK    3  A    between atoms: C_4  and  C_5
REMARK    4  A    between atoms: C_5  and  C_6
REMARK    5  A    between atoms: C_6  and  C_7
REMARK    6  A    between atoms: C_7  and  C_8
REMARK    7  A    between atoms: C_8  and  C_9
REMARK    8  A    between atoms: C_9  and  S_10
REMARK    9  A    between atoms: S_10  and  C_11
REMARK   10  A    between atoms: C_13  and  O_14
REMARK   11  A    between atoms: C_16  and  C_17
REMARK   12  A    between atoms: C_17  and  C_18
REMARK   13  A    between atoms: N_25  and  O_26
REMARK                            x       y       z     vdW  Elec       q    Type
REMARK                         _______ _______ _______ _____ _____    ______ ____
ROOT
ATOM      1  C   UNL     1       5.042   6.659  17.427  0.00  0.00    +0.000 A 
ATOM      2  N   UNL     1       6.059   6.953  18.245  0.00  0.00    +0.000 NA
ATOM      3  C   UNL     1       7.101   6.125  18.162  0.00  0.00    +0.000 A 
ATOM      4  C   UNL     1       7.195   5.037  17.337  0.00  0.00    +0.000 A 
ATOM      5  C   UNL     1       6.103   4.825  16.524  0.00  0.00    +0.000 A 
ATOM      6  N   UNL     1       5.025   5.639  16.556  0.00  0.00    +0.000 NA
ENDROOT
BRANCH   3   7
ATOM      7  O   UNL     1       8.114   6.430  19.011  0.00  0.00    +0.000 OA
ATOM      8  H   UNL     1       8.803   5.819  18.689  0.00  0.00    +0.000 HD
ENDBRANCH   3   7
BRANCH   1   9
ATOM      9  S   UNL     1       3.594   7.665  17.571  0.00  0.00    +0.000 S 
BRANCH   9  10
ATOM     10  C   UNL     1       2.408   6.440  18.229  0.00  0.00    +0.000 C 
BRANCH  10  11
ATOM     11  C   UNL     1       2.983   5.702  19.438  0.00  0.00    +0.000 C 
BRANCH  11  12
ATOM     12  C   UNL     1       1.950   5.442  20.538  0.00  0.00    +0.000 C 
BRANCH  12  13
ATOM     13  C   UNL     1       2.337   4.236  21.391  0.00  0.00    +0.000 C 
BRANCH  13  14
ATOM     14  C   UNL     1       1.421   3.046  21.102  0.00  0.00    +0.000 C 
BRANCH  14  15
ATOM     15  C   UNL     1       0.577   3.293  19.853  0.00  0.00    +0.000 C 
BRANCH  15  16
ATOM     16  C   UNL     1       0.742   2.169  18.835  0.00  0.00    +0.000 C 
BRANCH  16  18
ATOM     17  O   UNL     1       2.213   3.095  17.126  0.00  0.00    +0.000 OA
ATOM     18  C   UNL     1       2.026   2.294  18.044  0.00  0.00    +0.000 C 
ATOM     19  N   UNL     1       2.999   1.411  18.445  0.00  0.00    +0.000 N 
ATOM     20  H   UNL     1       2.939   0.812  19.261  0.00  0.00    +0.000 HD
BRANCH  19  21
ATOM     21  O   UNL     1       4.247   1.498  17.793  0.00  0.00    +0.000 OA
ATOM     22  H   UNL     1       4.701   2.206  18.303  0.00  0.00    +0.000 HD
ENDBRANCH  19  21
ENDBRANCH  16  18
ENDBRANCH  15  16
ENDBRANCH  14  15
ENDBRANCH  13  14
ENDBRANCH  12  13
ENDBRANCH  11  12
ENDBRANCH  10  11
ENDBRANCH   9  10
ENDBRANCH   1   9
BRANCH   5  23
ATOM     23  C   UNL     1       6.033   3.650  15.582  0.00  0.00    +0.000 C 
BRANCH  23  24
ATOM     24  C   UNL     1       6.487   3.951  14.170  0.00  0.00    +0.000 A 
ATOM     25  C   UNL     1       5.930   3.275  13.072  0.00  0.00    +0.000 A 
ATOM     26  C   UNL     1       6.315   3.594  11.769  0.00  0.00    +0.000 A 
ATOM     27  C   UNL     1       7.254   4.598  11.546  0.00  0.00    +0.000 A 
ATOM     28  C   UNL     1       7.813   5.278  12.626  0.00  0.00    +0.000 A 
ATOM     29  C   UNL     1       7.433   4.956  13.932  0.00  0.00    +0.000 A 
ENDBRANCH  23  24
ENDBRANCH   5  23
TORSDOF 13
ENDMDL
MODEL 3
REMARK VINA RESULT:      -7.2      3.913     10.116
REMARK  Name = 
REMARK  13 active torsions:
REMARK  status: ('A' for Active; 'I' for Inactive)
REMARK    1  A    between atoms: C_2  and  C_3
REMARK    2  A    between atoms: C_3  and  C_4
REMARK    3  A    between atoms: C_4  and  C_5
REMARK    4  A    between atoms: C_5  and  C_6
REMARK    5  A    between atoms: C_6  and  C_7
REMARK    6  A    between atoms: C_7  and  C_8
REMARK    7  A    between atoms: C_8  and  C_9
REMARK    8  A    between atoms: C_9  and  S_10
REMARK    9  A    between atoms: S_10  and  C_11
REMARK   10  A    between atoms: C_13  and  O_14
REMARK   11  A    between atoms: C_16  and  C_17
REMARK   12  A    between atoms: C_17  and  C_18
REMARK   13  A    between atoms: N_25  and  O_26
REMARK                            x       y       z     vdW  Elec       q    Type
REMARK                         _______ _______ _______ _____ _____    ______ ____
ROOT
ATOM      1  C   UNL     1       6.395   6.768  17.451  0.00  0.00    +0.000 A 
ATOM      2  N   UNL     1       6.974   5.977  18.362  0.00  0.00    +0.000 NA
ATOM      3  C   UNL     1       8.019   6.518  18.989  0.00  0.00    +0.000 A 
ATOM      4  C   UNL     1       8.523   7.771  18.769  0.00  0.00    +0.000 A 
ATOM      5  C   UNL     1       7.851   8.512  17.822  0.00  0.00    +0.000 A 
ATOM      6  N   UNL     1       6.778   8.021  17.165  0.00  0.00    +0.000 NA
ENDROOT
BRANCH   3   7
ATOM      7  O   UNL     1       8.602   5.694  19.896  0.00  0.00    +0.000 OA
ATOM      8  H   UNL     1       9.041   5.059  19.299  0.00  0.00    +0.000 HD
ENDBRANCH   3   7
BRANCH   1   9
ATOM      9  S   UNL     1       5.068   6.061  16.518  0.00  0.00    +0.000 S 
BRANCH   9  10
ATOM     10  C   UNL     1       3.638   6.608  17.515  0.00  0.00    +0.000 C 
BRANCH  10  11
ATOM     11  C   UNL     1       3.496   5.774  18.787  0.00  0.00    +0.000 C 
BRANCH  11  12
ATOM     12  C   UNL     1       2.297   6.181  19.650  0.00  0.00    +0.000 C 
BRANCH  12  13
ATOM     13  C   UNL     1       2.037   5.163  20.757  0.00  0.00    +0.000 C 
BRANCH  13  14
ATOM     14  C   UNL     1       0.871   4.243  20.392  0.00  0.00    +0.000 C 
BRANCH  14  15
ATOM     15  C   UNL     1       1.293   2.776  20.438  0.00  0.00    +0.000 C 
BRANCH  15  16
ATOM     16  C   UNL     1       1.650   2.253  19.051  0.00  0.00    +0.000 C 
BRANCH  16  18
ATOM     17  O   UNL     1       3.665   1.513  17.895  0.00  0.00    +0.000 OA
ATOM     18  C   UNL     1       3.129   1.959  18.911  0.00  0.00    +0.000 C 
ATOM     19  N   UNL     1       3.848   2.239  20.047  0.00  0.00    +0.000 N 
ATOM     20  H   UNL     1       3.480   2.709  20.867  0.00  0.00    +0.000 HD
BRANCH  19  21
ATOM     21  O   UNL     1       5.244   2.044  19.983  0.00  0.00    +0.000 OA
ATOM     22  H   UNL     1       5.320   1.278  19.370  0.00  0.00    +0.000 HD
ENDBRANCH  19  21
ENDBRANCH  16  18
ENDBRANCH  15  16
ENDBRANCH  14  15
ENDBRANCH  13  14
ENDBRANCH  12  13
ENDBRANCH  11  12
ENDBRANCH  10  11
ENDBRANCH   9  10
ENDBRANCH   1   9
BRANCH   5  23
ATOM     23  C   UNL     1       8.301   9.900  17.437  0.00  0.00    +0.000 C 
BRANCH  23  24
ATOM     24  C   UNL     1       9.254  10.545  18.420  0.00  0.00    +0.000 A 
ATOM     25  C   UNL     1       8.940  10.623  19.787  0.00  0.00    +0.000 A 
ATOM     26  C   UNL     1       9.846  11.172  20.696  0.00  0.00    +0.000 A 
ATOM     27  C   UNL     1      11.080  11.640  20.254  0.00  0.00    +0.000 A 
ATOM     28  C   UNL     1      11.406  11.566  18.901  0.00  0.00    +0.000 A 
ATOM     29  C   UNL     1      10.498  11.023  17.988  0.00  0.00    +0.000 A 
ENDBRANCH  23  24
ENDBRANCH   5  23
TORSDOF 13
ENDMDL
MODEL 4
REMARK VINA RESULT:      -7.1      1.452      1.766
REMARK  Name = 
REMARK  13 active torsions:
REMARK  status: ('A' for Active; 'I' for Inactive)
REMARK    1  A    between atoms: C_2  and  C_3
REMARK    2  A    between atoms: C_3  and  C_4
REMARK    3  A    between atoms: C_4  and  C_5
REMARK    4  A    between atoms: C_5  and  C_6
REMARK    5  A    between atoms: C_6  and  C_7
REMARK    6  A    between atoms: C_7  and  C_8
REMARK    7  A    between atoms: C_8  and  C_9
REMARK    8  A    between atoms: C_9  and  S_10
REMARK    9  A    between atoms: S_10  and  C_11
REMARK   10  A    between atoms: C_13  and  O_14
REMARK   11  A    between atoms: C_16  and  C_17
REMARK   12  A    between atoms: C_17  and  C_18
REMARK   13  A    between atoms: N_25  and  O_26
REMARK                            x       y       z     vdW  Elec       q    Type
REMARK                         _______ _______ _______ _____ _____    ______ ____
ROOT
ATOM      1  C   UNL     1       6.747   6.255  17.908  0.00  0.00    +0.000 A 
ATOM      2  N   UNL     1       6.379   6.828  16.755  0.00  0.00    +0.000 NA
ATOM      3  C   UNL     1       5.362   6.231  16.134  0.00  0.00    +0.000 A 
ATOM      4  C   UNL     1       4.700   5.116  16.573  0.00  0.00    +0.000 A 
ATOM      5  C   UNL     1       5.143   4.609  17.774  0.00  0.00    +0.000 A 
ATOM      6  N   UNL     1       6.161   5.180  18.454  0.00  0.00    +0.000 NA
ENDROOT
BRANCH   3   7
ATOM      7  O   UNL     1       5.015   6.815  14.960  0.00  0.00    +0.000 OA
ATOM      8  H   UNL     1       5.680   7.528  14.915  0.00  0.00    +0.000 HD
ENDBRANCH   3   7
BRANCH   1   9
ATOM      9  S   UNL     1       8.159   6.947  18.720  0.00  0.00    +0.000 S 
BRANCH   9  10
ATOM     10  C   UNL     1       8.157   8.629  18.004  0.00  0.00    +0.000 C 
BRANCH  10  11
ATOM     11  C   UNL     1       8.898   9.617  18.903  0.00  0.00    +0.000 C 
BRANCH  11  12
ATOM     12  C   UNL     1       9.465  10.821  18.145  0.00  0.00    +0.000 C 
BRANCH  12  13
ATOM     13  C   UNL     1      10.567  11.513  18.943  0.00  0.00    +0.000 C 
BRANCH  13  14
ATOM     14  C   UNL     1      11.795  11.772  18.068  0.00  0.00    +0.000 C 
BRANCH  14  15
ATOM     15  C   UNL     1      11.706  13.136  17.387  0.00  0.00    +0.000 C 
BRANCH  15  16
ATOM     16  C   UNL     1      11.141  14.195  18.328  0.00  0.00    +0.000 C 
BRANCH  16  18
ATOM     17  O   UNL     1      10.327  16.090  17.029  0.00  0.00    +0.000 OA
ATOM     18  C   UNL     1      10.092  15.057  17.658  0.00  0.00    +0.000 C 
ATOM     19  N   UNL     1       8.814  14.578  17.816  0.00  0.00    +0.000 N 
ATOM     20  H   UNL     1       8.576  13.682  18.225  0.00  0.00    +0.000 HD
BRANCH  19  21
ATOM     21  O   UNL     1       7.781  15.296  17.176  0.00  0.00    +0.000 OA
ATOM     22  H   UNL     1       7.935  15.084  16.228  0.00  0.00    +0.000 HD
ENDBRANCH  19  21
ENDBRANCH  16  18
ENDBRANCH  15  16
ENDBRANCH  14  15
ENDBRANCH  13  14
ENDBRANCH  12  13
ENDBRANCH  11  12
ENDBRANCH  10  11
ENDBRANCH   9  10
ENDBRANCH   1   9
BRANCH   5  23
ATOM     23  C   UNL     1       4.544   3.364  18.378  0.00  0.00    +0.000 C 
BRANCH  23  24
ATOM     24  C   UNL     1       3.237   3.589  19.110  0.00  0.00    +0.000 A 
ATOM     25  C   UNL     1       3.063   4.698  19.953  0.00  0.00    +0.000 A 
ATOM     26  C   UNL     1       1.839   4.929  20.584  0.00  0.00    +0.000 A 
ATOM     27  C   UNL     1       0.772   4.061  20.372  0.00  0.00    +0.000 A 
ATOM     28  C   UNL     1       0.930   2.958  19.535  0.00  0.00    +0.000 A 
ATOM     29  C   UNL     1       2.157   2.721  18.908  0.00  0.00    +0.000 A 
ENDBRANCH  23  24
ENDBRANCH   5  23
TORSDOF 13
ENDMDL
MODEL 5
REMARK VINA RESULT:      -7.1      5.758      7.537
REMARK  Name = 
REMARK  13 active torsions:
REMARK  status: ('A' for Active; 'I' for Inactive)
REMARK    1  A    between atoms: C_2  and  C_3
REMARK    2  A    between atoms: C_3  and  C_4
REMARK    3  A    between atoms: C_4  and  C_5
REMARK    4  A    between atoms: C_5  and  C_6
REMARK    5  A    between atoms: C_6  and  C_7
REMARK    6  A    between atoms: C_7  and  C_8
REMARK    7  A    between atoms: C_8  and  C_9
REMARK    8  A    between atoms: C_9  and  S_10
REMARK    9  A    between atoms: S_10  and  C_11
REMARK   10  A    between atoms: C_13  and  O_14
REMARK   11  A    between atoms: C_16  and  C_17
REMARK   12  A    between atoms: C_17  and  C_18
REMARK   13  A    between atoms: N_25  and  O_26
REMARK                            x       y       z     vdW  Elec       q    Type
REMARK                         _______ _______ _______ _____ _____    ______ ____
ROOT
ATOM      1  C   UNL     1       4.094   6.557  17.346  0.00  0.00    +0.000 A 
ATOM      2  N   UNL     1       5.324   6.819  16.887  0.00  0.00    +0.000 NA
ATOM      3  C   UNL     1       6.080   5.743  16.669  0.00  0.00    +0.000 A 
ATOM      4  C   UNL     1       5.703   4.444  16.880  0.00  0.00    +0.000 A 
ATOM      5  C   UNL     1       4.416   4.277  17.340  0.00  0.00    +0.000 A 
ATOM      6  N   UNL     1       3.600   5.330  17.566  0.00  0.00    +0.000 NA
ENDROOT
BRANCH   3   7
ATOM      7  O   UNL     1       7.328   6.030  16.221  0.00  0.00    +0.000 OA
ATOM      8  H   UNL     1       7.759   5.161  16.331  0.00  0.00    +0.000 HD
ENDBRANCH   3   7
BRANCH   1   9
ATOM      9  S   UNL     1       3.086   7.954  17.748  0.00  0.00    +0.000 S 
BRANCH   9  10
ATOM     10  C   UNL     1       2.301   7.359  19.287  0.00  0.00    +0.000 C 
BRANCH  10  11
ATOM     11  C   UNL     1       1.465   8.455  19.946  0.00  0.00    +0.000 C 
BRANCH  11  12
ATOM     12  C   UNL     1       1.002   8.099  21.362  0.00  0.00    +0.000 C 
BRANCH  12  13
ATOM     13  C   UNL     1       1.023   9.319  22.278  0.00  0.00    +0.000 C 
BRANCH  13  14
ATOM     14  C   UNL     1      -0.327  10.039  22.260  0.00  0.00    +0.000 C 
BRANCH  14  15
ATOM     15  C   UNL     1      -0.190  11.447  21.684  0.00  0.00    +0.000 C 
BRANCH  15  16
ATOM     16  C   UNL     1      -1.449  11.870  20.934  0.00  0.00    +0.000 C 
BRANCH  16  18
ATOM     17  O   UNL     1      -1.256  10.470  18.948  0.00  0.00    +0.000 OA
ATOM     18  C   UNL     1      -1.354  11.591  19.450  0.00  0.00    +0.000 C 
ATOM     19  N   UNL     1      -1.386  12.730  18.681  0.00  0.00    +0.000 N 
ATOM     20  H   UNL     1      -1.577  13.662  19.031  0.00  0.00    +0.000 HD
BRANCH  19  21
ATOM     21  O   UNL     1      -1.357  12.555  17.281  0.00  0.00    +0.000 OA
ATOM     22  H   UNL     1      -2.113  11.945  17.130  0.00  0.00    +0.000 HD
ENDBRANCH  19  21
ENDBRANCH  16  18
ENDBRANCH  15  16
ENDBRANCH  14  15
ENDBRANCH  13  14
ENDBRANCH  12  13
ENDBRANCH  11  12
ENDBRANCH  10  11
ENDBRANCH   9  10
ENDBRANCH   1   9
BRANCH   5  23
ATOM     23  C   UNL     1       3.858   2.912  17.656  0.00  0.00    +0.000 C 
BRANCH  23  24
ATOM     24  C   UNL     1       2.955   2.871  18.870  0.00  0.00    +0.000 A 
ATOM     25  C   UNL     1       3.489   2.782  20.166  0.00  0.00    +0.000 A 
ATOM     26  C   UNL     1       2.654   2.797  21.284  0.00  0.00    +0.000 A 
ATOM     27  C   UNL     1       1.275   2.911  21.123  0.00  0.00    +0.000 A 
ATOM     28  C   UNL     1       0.732   3.002  19.843  0.00  0.00    +0.000 A 
ATOM     29  C   UNL     1       1.567   2.981  18.721  0.00  0.00    +0.000 A 
ENDBRANCH  23  24
ENDBRANCH   5  23
TORSDOF 13
ENDMDL
MODEL 6
REMARK VINA RESULT:      -7.1      3.970      9.927
REMARK  Name = 
REMARK  13 active torsions:
REMARK  status: ('A' for Active; 'I' for Inactive)
REMARK    1  A    between atoms: C_2  and  C_3
REMARK    2  A    between atoms: C_3  and  C_4
REMARK    3  A    between atoms: C_4  and  C_5
REMARK    4  A    between atoms: C_5  and  C_6
REMARK    5  A    between atoms: C_6  and  C_7
REMARK    6  A    between atoms: C_7  and  C_8
REMARK    7  A    between atoms: C_8  and  C_9
REMARK    8  A    between atoms: C_9  and  S_10
REMARK    9  A    between atoms: S_10  and  C_11
REMARK   10  A    between atoms: C_13  and  O_14
REMARK   11  A    between atoms: C_16  and  C_17
REMARK   12  A    between atoms: C_17  and  C_18
REMARK   13  A    between atoms: N_25  and  O_26
REMARK                            x       y       z     vdW  Elec       q    Type
REMARK                         _______ _______ _______ _____ _____    ______ ____
ROOT
ATOM      1  C   UNL     1       6.984   6.270  17.106  0.00  0.00    +0.000 A 
ATOM      2  N   UNL     1       7.452   5.575  18.150  0.00  0.00    +0.000 NA
ATOM      3  C   UNL     1       8.156   6.289  19.027  0.00  0.00    +0.000 A 
ATOM      4  C   UNL     1       8.428   7.628  18.935  0.00  0.00    +0.000 A 
ATOM      5  C   UNL     1       7.894   8.257  17.833  0.00  0.00    +0.000 A 
ATOM      6  N   UNL     1       7.160   7.586  16.917  0.00  0.00    +0.000 NA
ENDROOT
BRANCH   3   7
ATOM      7  O   UNL     1       8.635   5.563  20.068  0.00  0.00    +0.000 OA
ATOM      8  H   UNL     1       9.451   6.061  20.269  0.00  0.00    +0.000 HD
ENDBRANCH   3   7
BRANCH   1   9
ATOM      9  S   UNL     1       6.130   5.349  15.859  0.00  0.00    +0.000 S 
BRANCH   9  10
ATOM     10  C   UNL     1       4.423   5.941  16.128  0.00  0.00    +0.000 C 
BRANCH  10  11
ATOM     11  C   UNL     1       3.914   5.558  17.517  0.00  0.00    +0.000 C 
BRANCH  11  12
ATOM     12  C   UNL     1       4.007   4.057  17.807  0.00  0.00    +0.000 C 
BRANCH  12  13
ATOM     13  C   UNL     1       2.902   3.282  17.093  0.00  0.00    +0.000 C 
BRANCH  13  14
ATOM     14  C   UNL     1       2.242   2.277  18.038  0.00  0.00    +0.000 C 
BRANCH  14  15
ATOM     15  C   UNL     1       1.032   2.894  18.737  0.00  0.00    +0.000 C 
BRANCH  15  16
ATOM     16  C   UNL     1       1.044   2.603  20.234  0.00  0.00    +0.000 C 
BRANCH  16  18
ATOM     17  O   UNL     1       2.299   3.549  22.098  0.00  0.00    +0.000 OA
ATOM     18  C   UNL     1       1.707   3.708  21.029  0.00  0.00    +0.000 C 
ATOM     19  N   UNL     1       1.590   4.944  20.441  0.00  0.00    +0.000 N 
ATOM     20  H   UNL     1       1.215   5.114  19.515  0.00  0.00    +0.000 HD
BRANCH  19  21
ATOM     21  O   UNL     1       2.227   6.022  21.092  0.00  0.00    +0.000 OA
ATOM     22  H   UNL     1       2.194   5.747  22.035  0.00  0.00    +0.000 HD
ENDBRANCH  19  21
ENDBRANCH  16  18
ENDBRANCH  15  16
ENDBRANCH  14  15
ENDBRANCH  13  14
ENDBRANCH  12  13
ENDBRANCH  11  12
ENDBRANCH  10  11
ENDBRANCH   9  10
ENDBRANCH   1   9
BRANCH   5  23
ATOM     23  C   UNL     1       8.131   9.722  17.564  0.00  0.00    +0.000 C 
BRANCH  23  24
ATOM     24  C   UNL     1       9.175  10.361  18.454  0.00  0.00    +0.000 A 
ATOM     25  C   UNL     1      10.344  10.919  17.912  0.00  0.00    +0.000 A 
ATOM     26  C   UNL     1      11.279  11.553  18.732  0.00  0.00    +0.000 A 
ATOM     27  C   UNL     1      11.054  11.646  20.103  0.00  0.00    +0.000 A 
ATOM     28  C   UNL     1       9.897  11.098  20.654  0.00  0.00    +0.000 A 
ATOM     29  C   UNL     1       8.963  10.457  19.836  0.00  0.00    +0.000 A 
ENDBRANCH  23  24
ENDBRANCH   5  23
TORSDOF 13
ENDMDL
MODEL 7
REMARK VINA RESULT:      -7.0      4.460      5.281
REMARK  Name = 
REMARK  13 active torsions:
REMARK  status: ('A' for Active; 'I' for Inactive)
REMARK    1  A    between atoms: C_2  and  C_3
REMARK    2  A    between atoms: C_3  and  C_4
REMARK    3  A    between atoms: C_4  and  C_5
REMARK    4  A    between atoms: C_5  and  C_6
REMARK    5  A    between atoms: C_6  and  C_7
REMARK    6  A    between atoms: C_7  and  C_8
REMARK    7  A    between atoms: C_8  and  C_9
REMARK    8  A    between atoms: C_9  and  S_10
REMARK    9  A    between atoms: S_10  and  C_11
REMARK   10  A    between atoms: C_13  and  O_14
REMARK   11  A    between atoms: C_16  and  C_17
REMARK   12  A    between atoms: C_17  and  C_18
REMARK   13  A    between atoms: N_25  and  O_26
REMARK                            x       y       z     vdW  Elec       q    Type
REMARK                         _______ _______ _______ _____ _____    ______ ____
ROOT
ATOM      1  C   UNL     1       7.778   7.853  17.898  0.00  0.00    +0.000 A 
ATOM      2  N   UNL     1       8.272   7.202  18.958  0.00  0.00    +0.000 NA
ATOM      3  C   UNL     1       7.766   5.985  19.153  0.00  0.00    +0.000 A 
ATOM      4  C   UNL     1       6.811   5.382  18.379  0.00  0.00    +0.000 A 
ATOM      5  C   UNL     1       6.375   6.125  17.305  0.00  0.00    +0.000 A 
ATOM      6  N   UNL     1       6.862   7.360  17.051  0.00  0.00    +0.000 NA
ENDROOT
BRANCH   3   7
ATOM      7  O   UNL     1       8.267   5.349  20.241  0.00  0.00    +0.000 OA
ATOM      8  H   UNL     1       7.673   4.576  20.283  0.00  0.00    +0.000 HD
ENDBRANCH   3   7
BRANCH   1   9
ATOM      9  S   UNL     1       8.341   9.513  17.654  0.00  0.00    +0.000 S 
BRANCH   9  10
ATOM     10  C   UNL     1       9.049   9.863  19.302  0.00  0.00    +0.000 C 
BRANCH  10  11
ATOM     11  C   UNL     1      10.017  11.045  19.251  0.00  0.00    +0.000 C 
BRANCH  11  12
ATOM     12  C   UNL     1      10.243  11.703  20.615  0.00  0.00    +0.000 C 
BRANCH  12  13
ATOM     13  C   UNL     1       9.124  12.685  20.953  0.00  0.00    +0.000 C 
BRANCH  13  14
ATOM     14  C   UNL     1       8.972  12.840  22.467  0.00  0.00    +0.000 C 
BRANCH  14  15
ATOM     15  C   UNL     1       8.283  11.621  23.077  0.00  0.00    +0.000 C 
BRANCH  15  16
ATOM     16  C   UNL     1       6.871  11.954  23.547  0.00  0.00    +0.000 C 
BRANCH  16  18
ATOM     17  O   UNL     1       7.319  11.723  25.932  0.00  0.00    +0.000 OA
ATOM     18  C   UNL     1       6.607  11.473  24.958  0.00  0.00    +0.000 C 
ATOM     19  N   UNL     1       5.470  10.709  25.067  0.00  0.00    +0.000 N 
ATOM     20  H   UNL     1       4.792  10.567  24.327  0.00  0.00    +0.000 HD
BRANCH  19  21
ATOM     21  O   UNL     1       5.122  10.265  26.361  0.00  0.00    +0.000 OA
ATOM     22  H   UNL     1       5.250   9.293  26.290  0.00  0.00    +0.000 HD
ENDBRANCH  19  21
ENDBRANCH  16  18
ENDBRANCH  15  16
ENDBRANCH  14  15
ENDBRANCH  13  14
ENDBRANCH  12  13
ENDBRANCH  11  12
ENDBRANCH  10  11
ENDBRANCH   9  10
ENDBRANCH   1   9
BRANCH   5  23
ATOM     23  C   UNL     1       5.300   5.620  16.375  0.00  0.00    +0.000 C 
BRANCH  23  24
ATOM     24  C   UNL     1       4.126   4.967  17.072  0.00  0.00    +0.000 A 
ATOM     25  C   UNL     1       3.171   5.737  17.755  0.00  0.00    +0.000 A 
ATOM     26  C   UNL     1       2.062   5.134  18.351  0.00  0.00    +0.000 A 
ATOM     27  C   UNL     1       1.889   3.754  18.264  0.00  0.00    +0.000 A 
ATOM     28  C   UNL     1       2.828   2.979  17.587  0.00  0.00    +0.000 A 
ATOM     29  C   UNL     1       3.942   3.580  16.995  0.00  0.00    +0.000 A 
ENDBRANCH  23  24
ENDBRANCH   5  23
TORSDOF 13
ENDMDL
MODEL 8
REMARK VINA RESULT:      -7.0      5.915      8.448
REMARK  Name = 
REMARK  13 active torsions:
REMARK  status: ('A' for Active; 'I' for Inactive)
REMARK    1  A    between atoms: C_2  and  C_3
REMARK    2  A    between atoms: C_3  and  C_4
REMARK    3  A    between atoms: C_4  and  C_5
REMARK    4  A    between atoms: C_5  and  C_6
REMARK    5  A    between atoms: C_6  and  C_7
REMARK    6  A    between atoms: C_7  and  C_8
REMARK    7  A    between atoms: C_8  and  C_9
REMARK    8  A    between atoms: C_9  and  S_10
REMARK    9  A    between atoms: S_10  and  C_11
REMARK   10  A    between atoms: C_13  and  O_14
REMARK   11  A    between atoms: C_16  and  C_17
REMARK   12  A    between atoms: C_17  and  C_18
REMARK   13  A    between atoms: N_25  and  O_26
REMARK                            x       y       z     vdW  Elec       q    Type
REMARK                         _______ _______ _______ _____ _____    ______ ____
ROOT
ATOM      1  C   UNL     1       2.258   4.844  19.404  0.00  0.00    +0.000 A 
ATOM      2  N   UNL     1       1.616   3.670  19.420  0.00  0.00    +0.000 NA
ATOM      3  C   UNL     1       1.984   2.817  18.464  0.00  0.00    +0.000 A 
ATOM      4  C   UNL     1       2.930   3.053  17.503  0.00  0.00    +0.000 A 
ATOM      5  C   UNL     1       3.543   4.284  17.577  0.00  0.00    +0.000 A 
ATOM      6  N   UNL     1       3.219   5.183  18.533  0.00  0.00    +0.000 NA
ENDROOT
BRANCH   3   7
ATOM      7  O   UNL     1       1.310   1.640  18.488  0.00  0.00    +0.000 OA
ATOM      8  H   UNL     1       0.475   1.907  18.060  0.00  0.00    +0.000 HD
ENDBRANCH   3   7
BRANCH   1   9
ATOM      9  S   UNL     1       1.733   6.050  20.588  0.00  0.00    +0.000 S 
BRANCH   9  10
ATOM     10  C   UNL     1       2.118   7.589  19.681  0.00  0.00    +0.000 C 
BRANCH  10  11
ATOM     11  C   UNL     1       1.324   8.772  20.232  0.00  0.00    +0.000 C 
BRANCH  11  12
ATOM     12  C   UNL     1       0.388   8.393  21.383  0.00  0.00    +0.000 C 
BRANCH  12  13
ATOM     13  C   UNL     1       0.555   9.336  22.572  0.00  0.00    +0.000 C 
BRANCH  13  14
ATOM     14  C   UNL     1      -0.608  10.325  22.653  0.00  0.00    +0.000 C 
BRANCH  14  15
ATOM     15  C   UNL     1      -0.331  11.569  21.810  0.00  0.00    +0.000 C 
BRANCH  15  16
ATOM     16  C   UNL     1      -1.561  11.990  21.014  0.00  0.00    +0.000 C 
BRANCH  16  18
ATOM     17  O   UNL     1      -1.313  10.589  19.035  0.00  0.00    +0.000 OA
ATOM     18  C   UNL     1      -1.411  11.711  19.534  0.00  0.00    +0.000 C 
ATOM     19  N   UNL     1      -1.390  12.851  18.766  0.00  0.00    +0.000 N 
ATOM     20  H   UNL     1      -1.577  13.786  19.109  0.00  0.00    +0.000 HD
BRANCH  19  21
ATOM     21  O   UNL     1      -1.305  12.676  17.368  0.00  0.00    +0.000 OA
ATOM     22  H   UNL     1      -1.854  11.873  17.224  0.00  0.00    +0.000 HD
ENDBRANCH  19  21
ENDBRANCH  16  18
ENDBRANCH  15  16
ENDBRANCH  14  15
ENDBRANCH  13  14
ENDBRANCH  12  13
ENDBRANCH  11  12
ENDBRANCH  10  11
ENDBRANCH   9  10
ENDBRANCH   1   9
BRANCH   5  23
ATOM     23  C   UNL     1       4.582   4.714  16.572  0.00  0.00    +0.000 C 
BRANCH  23  24
ATOM     24  C   UNL     1       5.768   5.440  17.169  0.00  0.00    +0.000 A 
ATOM     25  C   UNL     1       6.006   6.794  16.883  0.00  0.00    +0.000 A 
ATOM     26  C   UNL     1       7.072   7.472  17.478  0.00  0.00    +0.000 A 
ATOM     27  C   UNL     1       7.907   6.808  18.372  0.00  0.00    +0.000 A 
ATOM     28  C   UNL     1       7.681   5.465  18.667  0.00  0.00    +0.000 A 
ATOM     29  C   UNL     1       6.619   4.783  18.068  0.00  0.00    +0.000 A 
ENDBRANCH  23  24
ENDBRANCH   5  23
TORSDOF 13
ENDMDL
MODEL 9
REMARK VINA RESULT:      -7.0      5.516      8.496
REMARK  Name = 
REMARK  13 active torsions:
REMARK  status: ('A' for Active; 'I' for Inactive)
REMARK    1  A    between atoms: C_2  and  C_3
REMARK    2  A    between atoms: C_3  and  C_4
REMARK    3  A    between atoms: C_4  and  C_5
REMARK    4  A    between atoms: C_5  and  C_6
REMARK    5  A    between atoms: C_6  and  C_7
REMARK    6  A    between atoms: C_7  and  C_8
REMARK    7  A    between atoms: C_8  and  C_9
REMARK    8  A    between atoms: C_9  and  S_10
REMARK    9  A    between atoms: S_10  and  C_11
REMARK   10  A    between atoms: C_13  and  O_14
REMARK   11  A    between atoms: C_16  and  C_17
REMARK   12  A    between atoms: C_17  and  C_18
REMARK   13  A    between atoms: N_25  and  O_26
REMARK                            x       y       z     vdW  Elec       q    Type
REMARK                         _______ _______ _______ _____ _____    ______ ____
ROOT
ATOM      1  C   UNL     1       5.584   4.270  18.778  0.00  0.00    +0.000 A 
ATOM      2  N   UNL     1       6.649   4.769  19.417  0.00  0.00    +0.000 NA
ATOM      3  C   UNL     1       7.279   5.751  18.773  0.00  0.00    +0.000 A 
ATOM      4  C   UNL     1       6.929   6.259  17.550  0.00  0.00    +0.000 A 
ATOM      5  C   UNL     1       5.813   5.690  16.979  0.00  0.00    +0.000 A 
ATOM      6  N   UNL     1       5.127   4.700  17.593  0.00  0.00    +0.000 NA
ENDROOT
BRANCH   3   7
ATOM      7  O   UNL     1       8.365   6.231  19.428  0.00  0.00    +0.000 OA
ATOM      8  H   UNL     1       7.942   6.589  20.231  0.00  0.00    +0.000 HD
ENDBRANCH   3   7
BRANCH   1   9
ATOM      9  S   UNL     1       4.774   2.895  19.542  0.00  0.00    +0.000 S 
BRANCH   9  10
ATOM     10  C   UNL     1       3.507   2.519  18.281  0.00  0.00    +0.000 C 
BRANCH  10  11
ATOM     11  C   UNL     1       2.244   1.939  18.916  0.00  0.00    +0.000 C 
BRANCH  11  12
ATOM     12  C   UNL     1       1.056   2.905  18.898  0.00  0.00    +0.000 C 
BRANCH  12  13
ATOM     13  C   UNL     1       0.658   3.325  20.310  0.00  0.00    +0.000 C 
BRANCH  13  14
ATOM     14  C   UNL     1       1.793   4.088  20.995  0.00  0.00    +0.000 C 
BRANCH  14  15
ATOM     15  C   UNL     1       1.628   5.596  20.815  0.00  0.00    +0.000 C 
BRANCH  15  16
ATOM     16  C   UNL     1       2.690   6.166  19.880  0.00  0.00    +0.000 C 
BRANCH  16  18
ATOM     17  O   UNL     1       1.682   8.386  19.867  0.00  0.00    +0.000 OA
ATOM     18  C   UNL     1       2.266   7.483  19.266  0.00  0.00    +0.000 C 
ATOM     19  N   UNL     1       2.596   7.592  17.936  0.00  0.00    +0.000 N 
ATOM     20  H   UNL     1       3.171   6.932  17.424  0.00  0.00    +0.000 HD
BRANCH  19  21
ATOM     21  O   UNL     1       2.283   8.812  17.300  0.00  0.00    +0.000 OA
ATOM     22  H   UNL     1       1.529   9.142  17.838  0.00  0.00    +0.000 HD
ENDBRANCH  19  21
ENDBRANCH  16  18
ENDBRANCH  15  16
ENDBRANCH  14  15
ENDBRANCH  13  14
ENDBRANCH  12  13
ENDBRANCH  11  12
ENDBRANCH  10  11
ENDBRANCH   9  10
ENDBRANCH   1   9
BRANCH   5  23
ATOM     23  C   UNL     1       5.316   6.111  15.619  0.00  0.00    +0.000 C 
BRANCH  23  24
ATOM     24  C   UNL     1       5.833   5.266  14.474  0.00  0.00    +0.000 A 
ATOM     25  C   UNL     1       7.137   5.435  13.982  0.00  0.00    +0.000 A 
ATOM     26  C   UNL     1       7.625   4.617  12.961  0.00  0.00    +0.000 A 
ATOM     27  C   UNL     1       6.820   3.614  12.427  0.00  0.00    +0.000 A 
ATOM     28  C   UNL     1       5.525   3.434  12.908  0.00  0.00    +0.000 A 
ATOM     29  C   UNL     1       5.032   4.256  13.926  0.00  0.00    +0.000 A 
ENDBRANCH  23  24
ENDBRANCH   5  23
TORSDOF 13
ENDMDL
