MODEL 1
REMARK VINA RESULT:      -8.2      0.000      0.000
REMARK  Name = 
REMARK  8 active torsions:
REMARK  status: ('A' for Active; 'I' for Inactive)
REMARK    1  A    between atoms: C_1  and  O_2
REMARK    2  A    between atoms: O_2  and  C_3
REMARK    3  A    between atoms: C_5  and  C_6
REMARK    4  A    between atoms: C_6  and  C_7
REMARK    5  A    between atoms: C_11  and  O_12
REMARK    6  A    between atoms: O_12  and  C_13
REMARK    7  A    between atoms: C_13  and  C_14
REMARK    8  A    between atoms: C_17  and  C_18
REMARK                            x       y       z     vdW  Elec       q    Type
REMARK                         _______ _______ _______ _____ _____    ______ ____
ROOT
ATOM      1  C   UNL     1       2.424   4.501  19.701  0.00  0.00    +0.000 C 
ENDROOT
BRANCH   1   2
ATOM      2  C   UNL     1       2.297   5.982  19.655  0.00  0.00    +0.000 A 
ATOM      3  N   UNL     1       2.673   6.815  18.706  0.00  0.00    +0.000 NA
ATOM      4  N   UNL     1       2.202   8.058  19.070  0.00  0.00    +0.000 NA
ATOM      5  C   UNL     1       1.590   7.909  20.229  0.00  0.00    +0.000 A 
ATOM      6  O   UNL     1       1.577   6.603  20.648  0.00  0.00    +0.000 OA
BRANCH   5   7
ATOM      7  C   UNL     1       0.908   8.920  21.030  0.00  0.00    +0.000 A 
ATOM      8  C   UNL     1       0.801   8.675  22.415  0.00  0.00    +0.000 A 
ATOM      9  C   UNL     1       0.062   9.516  23.254  0.00  0.00    +0.000 A 
ATOM     10  C   UNL     1      -0.588  10.621  22.719  0.00  0.00    +0.000 A 
ATOM     11  C   UNL     1      -0.472  10.901  21.358  0.00  0.00    +0.000 A 
ATOM     12  C   UNL     1       0.276  10.063  20.516  0.00  0.00    +0.000 A 
ATOM     13 BR   UNL     1       0.304  10.547  18.675  0.00  0.00    +0.000 Br
ENDBRANCH   5   7
ENDBRANCH   1   2
BRANCH   1  14
ATOM     14  O   UNL     1       3.803   4.162  19.844  0.00  0.00    +0.000 OA
BRANCH  14  20
ATOM     15  C   UNL     1       5.904   4.835  18.654  0.00  0.00    +0.000 A 
ATOM     16  C   UNL     1       6.594   4.824  17.427  0.00  0.00    +0.000 A 
ATOM     17  C   UNL     1       5.955   4.402  16.260  0.00  0.00    +0.000 A 
ATOM     18  C   UNL     1       4.660   3.895  16.338  0.00  0.00    +0.000 A 
ATOM     19  C   UNL     1       4.009   3.806  17.574  0.00  0.00    +0.000 A 
ATOM     20  C   UNL     1       4.616   4.281  18.744  0.00  0.00    +0.000 A 
BRANCH  17  21
ATOM     21  C   UNL     1       6.579   4.571  14.920  0.00  0.00    +0.000 C 
ATOM     22  C   UNL     1       6.003   3.880  13.714  0.00  0.00    +0.000 C 
ATOM     23  O   UNL     1       7.597   5.262  14.821  0.00  0.00    +0.000 OA
ENDBRANCH  17  21
BRANCH  15  25
ATOM     24  C   UNL     1       7.882   5.721  19.594  0.00  0.00    +0.000 C 
ATOM     25  O   UNL     1       6.501   5.382  19.761  0.00  0.00    +0.000 OA
ENDBRANCH  15  25
ENDBRANCH  14  20
ENDBRANCH   1  14
TORSDOF 6
ENDMDL
MODEL 2
REMARK VINA RESULT:      -8.1      3.471      5.345
REMARK  Name = 
REMARK  8 active torsions:
REMARK  status: ('A' for Active; 'I' for Inactive)
REMARK    1  A    between atoms: C_1  and  O_2
REMARK    2  A    between atoms: O_2  and  C_3
REMARK    3  A    between atoms: C_5  and  C_6
REMARK    4  A    between atoms: C_6  and  C_7
REMARK    5  A    between atoms: C_11  and  O_12
REMARK    6  A    between atoms: O_12  and  C_13
REMARK    7  A    between atoms: C_13  and  C_14
REMARK    8  A    between atoms: C_17  and  C_18
REMARK                            x       y       z     vdW  Elec       q    Type
REMARK                         _______ _______ _______ _____ _____    ______ ____
ROOT
ATOM      1  C   UNL     1       6.340   6.562  16.522  0.00  0.00    +0.000 C 
ENDROOT
BRANCH   1   2
ATOM      2  C   UNL     1       5.999   5.784  17.743  0.00  0.00    +0.000 A 
ATOM      3  N   UNL     1       6.787   5.407  18.730  0.00  0.00    +0.000 NA
ATOM      4  N   UNL     1       5.970   4.845  19.686  0.00  0.00    +0.000 NA
ATOM      5  C   UNL     1       4.739   4.892  19.212  0.00  0.00    +0.000 A 
ATOM      6  O   UNL     1       4.675   5.513  17.991  0.00  0.00    +0.000 OA
BRANCH   5   7
ATOM      7  C   UNL     1       3.506   4.439  19.847  0.00  0.00    +0.000 A 
ATOM      8  C   UNL     1       3.421   3.071  20.178  0.00  0.00    +0.000 A 
ATOM      9  C   UNL     1       2.241   2.508  20.676  0.00  0.00    +0.000 A 
ATOM     10  C   UNL     1       1.119   3.308  20.849  0.00  0.00    +0.000 A 
ATOM     11  C   UNL     1       1.187   4.670  20.557  0.00  0.00    +0.000 A 
ATOM     12  C   UNL     1       2.372   5.238  20.066  0.00  0.00    +0.000 A 
ATOM     13 BR   UNL     1       2.300   7.098  19.669  0.00  0.00    +0.000 Br
ENDBRANCH   5   7
ENDBRANCH   1   2
BRANCH   1  14
ATOM     14  O   UNL     1       7.357   5.867  15.802  0.00  0.00    +0.000 OA
BRANCH  14  20
ATOM     15  C   UNL     1       7.587   5.033  13.449  0.00  0.00    +0.000 A 
ATOM     16  C   UNL     1       7.066   4.164  12.473  0.00  0.00    +0.000 A 
ATOM     17  C   UNL     1       5.864   3.490  12.695  0.00  0.00    +0.000 A 
ATOM     18  C   UNL     1       5.237   3.606  13.934  0.00  0.00    +0.000 A 
ATOM     19  C   UNL     1       5.809   4.387  14.944  0.00  0.00    +0.000 A 
ATOM     20  C   UNL     1       6.983   5.116  14.715  0.00  0.00    +0.000 A 
BRANCH  17  21
ATOM     21  C   UNL     1       5.181   2.729  11.614  0.00  0.00    +0.000 C 
ATOM     22  C   UNL     1       3.896   3.235  11.015  0.00  0.00    +0.000 C 
ATOM     23  O   UNL     1       5.668   1.659  11.241  0.00  0.00    +0.000 OA
ENDBRANCH  17  21
BRANCH  15  25
ATOM     24  C   UNL     1       8.642   6.469  11.897  0.00  0.00    +0.000 C 
ATOM     25  O   UNL     1       8.692   5.792  13.158  0.00  0.00    +0.000 OA
ENDBRANCH  15  25
ENDBRANCH  14  20
ENDBRANCH   1  14
TORSDOF 6
ENDMDL
MODEL 3
REMARK VINA RESULT:      -8.1      1.271      1.352
REMARK  Name = 
REMARK  8 active torsions:
REMARK  status: ('A' for Active; 'I' for Inactive)
REMARK    1  A    between atoms: C_1  and  O_2
REMARK    2  A    between atoms: O_2  and  C_3
REMARK    3  A    between atoms: C_5  and  C_6
REMARK    4  A    between atoms: C_6  and  C_7
REMARK    5  A    between atoms: C_11  and  O_12
REMARK    6  A    between atoms: O_12  and  C_13
REMARK    7  A    between atoms: C_13  and  C_14
REMARK    8  A    between atoms: C_17  and  C_18
REMARK                            x       y       z     vdW  Elec       q    Type
REMARK                         _______ _______ _______ _____ _____    ______ ____
ROOT
ATOM      1  C   UNL     1       3.100   5.847  18.845  0.00  0.00    +0.000 C 
ENDROOT
BRANCH   1   2
ATOM      2  C   UNL     1       2.498   7.203  18.947  0.00  0.00    +0.000 A 
ATOM      3  N   UNL     1       2.274   8.083  17.992  0.00  0.00    +0.000 NA
ATOM      4  N   UNL     1       1.567   9.114  18.571  0.00  0.00    +0.000 NA
ATOM      5  C   UNL     1       1.425   8.810  19.847  0.00  0.00    +0.000 A 
ATOM      6  O   UNL     1       1.960   7.585  20.153  0.00  0.00    +0.000 OA
BRANCH   5   7
ATOM      7  C   UNL     1       0.738   9.567  20.888  0.00  0.00    +0.000 A 
ATOM      8  C   UNL     1       0.221   8.835  21.976  0.00  0.00    +0.000 A 
ATOM      9  C   UNL     1      -0.560   9.444  22.965  0.00  0.00    +0.000 A 
ATOM     10  C   UNL     1      -0.842  10.801  22.879  0.00  0.00    +0.000 A 
ATOM     11  C   UNL     1      -0.317  11.552  21.828  0.00  0.00    +0.000 A 
ATOM     12  C   UNL     1       0.474  10.945  20.839  0.00  0.00    +0.000 A 
ATOM     13 BR   UNL     1       1.079  12.087  19.443  0.00  0.00    +0.000 Br
ENDBRANCH   5   7
ENDBRANCH   1   2
BRANCH   1  14
ATOM     14  O   UNL     1       4.521   5.970  18.887  0.00  0.00    +0.000 OA
BRANCH  14  20
ATOM     15  C   UNL     1       6.482   4.935  17.719  0.00  0.00    +0.000 A 
ATOM     16  C   UNL     1       7.034   4.585  16.472  0.00  0.00    +0.000 A 
ATOM     17  C   UNL     1       6.431   5.008  15.287  0.00  0.00    +0.000 A 
ATOM     18  C   UNL     1       5.218   5.693  15.347  0.00  0.00    +0.000 A 
ATOM     19  C   UNL     1       4.612   5.949  16.582  0.00  0.00    +0.000 A 
ATOM     20  C   UNL     1       5.237   5.584  17.782  0.00  0.00    +0.000 A 
BRANCH  17  21
ATOM     21  C   UNL     1       7.092   4.837  13.966  0.00  0.00    +0.000 C 
ATOM     22  C   UNL     1       6.532   3.883  12.945  0.00  0.00    +0.000 C 
ATOM     23  O   UNL     1       8.127   5.467  13.733  0.00  0.00    +0.000 OA
ENDBRANCH  17  21
BRANCH  15  25
ATOM     24  C   UNL     1       7.888   5.724  19.445  0.00  0.00    +0.000 C 
ATOM     25  O   UNL     1       7.164   4.631  18.870  0.00  0.00    +0.000 OA
ENDBRANCH  15  25
ENDBRANCH  14  20
ENDBRANCH   1  14
TORSDOF 6
ENDMDL
MODEL 4
REMARK VINA RESULT:      -8.0      0.939      1.867
REMARK  Name = 
REMARK  8 active torsions:
REMARK  status: ('A' for Active; 'I' for Inactive)
REMARK    1  A    between atoms: C_1  and  O_2
REMARK    2  A    between atoms: O_2  and  C_3
REMARK    3  A    between atoms: C_5  and  C_6
REMARK    4  A    between atoms: C_6  and  C_7
REMARK    5  A    between atoms: C_11  and  O_12
REMARK    6  A    between atoms: O_12  and  C_13
REMARK    7  A    between atoms: C_13  and  C_14
REMARK    8  A    between atoms: C_17  and  C_18
REMARK                            x       y       z     vdW  Elec       q    Type
REMARK                         _______ _______ _______ _____ _____    ______ ____
ROOT
ATOM      1  C   UNL     1       2.655   5.159  19.813  0.00  0.00    +0.000 C 
ENDROOT
BRANCH   1   2
ATOM      2  C   UNL     1       2.324   6.607  19.743  0.00  0.00    +0.000 A 
ATOM      3  N   UNL     1       2.546   7.460  18.763  0.00  0.00    +0.000 NA
ATOM      4  N   UNL     1       1.924   8.635  19.122  0.00  0.00    +0.000 NA
ATOM      5  C   UNL     1       1.382   8.433  20.309  0.00  0.00    +0.000 A 
ATOM      6  O   UNL     1       1.564   7.149  20.752  0.00  0.00    +0.000 OA
BRANCH   5   7
ATOM      7  C   UNL     1       0.599   9.362  21.117  0.00  0.00    +0.000 A 
ATOM      8  C   UNL     1       0.553   9.120  22.506  0.00  0.00    +0.000 A 
ATOM      9  C   UNL     1      -0.265   9.874  23.354  0.00  0.00    +0.000 A 
ATOM     10  C   UNL     1      -1.058  10.884  22.826  0.00  0.00    +0.000 A 
ATOM     11  C   UNL     1      -1.008  11.161  21.460  0.00  0.00    +0.000 A 
ATOM     12  C   UNL     1      -0.181  10.412  20.608  0.00  0.00    +0.000 A 
ATOM     13 BR   UNL     1      -0.253  10.875  18.763  0.00  0.00    +0.000 Br
ENDBRANCH   5   7
ENDBRANCH   1   2
BRANCH   1  14
ATOM     14  O   UNL     1       4.065   5.001  19.664  0.00  0.00    +0.000 OA
BRANCH  14  20
ATOM     15  C   UNL     1       4.182   3.951  17.390  0.00  0.00    +0.000 A 
ATOM     16  C   UNL     1       4.805   3.988  16.129  0.00  0.00    +0.000 A 
ATOM     17  C   UNL     1       5.909   4.813  15.909  0.00  0.00    +0.000 A 
ATOM     18  C   UNL     1       6.325   5.677  16.920  0.00  0.00    +0.000 A 
ATOM     19  C   UNL     1       5.641   5.719  18.140  0.00  0.00    +0.000 A 
ATOM     20  C   UNL     1       4.569   4.853  18.396  0.00  0.00    +0.000 A 
BRANCH  17  21
ATOM     21  C   UNL     1       6.717   4.727  14.663  0.00  0.00    +0.000 C 
ATOM     22  C   UNL     1       6.254   3.885  13.505  0.00  0.00    +0.000 C 
ATOM     23  O   UNL     1       7.791   5.333  14.608  0.00  0.00    +0.000 OA
ENDBRANCH  17  21
BRANCH  15  25
ATOM     24  C   UNL     1       3.648   1.766  18.113  0.00  0.00    +0.000 C 
ATOM     25  O   UNL     1       3.191   3.033  17.628  0.00  0.00    +0.000 OA
ENDBRANCH  15  25
ENDBRANCH  14  20
ENDBRANCH   1  14
TORSDOF 6
ENDMDL
MODEL 5
REMARK VINA RESULT:      -7.9      1.611      1.950
REMARK  Name = 
REMARK  8 active torsions:
REMARK  status: ('A' for Active; 'I' for Inactive)
REMARK    1  A    between atoms: C_1  and  O_2
REMARK    2  A    between atoms: O_2  and  C_3
REMARK    3  A    between atoms: C_5  and  C_6
REMARK    4  A    between atoms: C_6  and  C_7
REMARK    5  A    between atoms: C_11  and  O_12
REMARK    6  A    between atoms: O_12  and  C_13
REMARK    7  A    between atoms: C_13  and  C_14
REMARK    8  A    between atoms: C_17  and  C_18
REMARK                            x       y       z     vdW  Elec       q    Type
REMARK                         _______ _______ _______ _____ _____    ______ ____
ROOT
ATOM      1  C   UNL     1       3.866   4.105  18.874  0.00  0.00    +0.000 C 
ENDROOT
BRANCH   1   2
ATOM      2  C   UNL     1       2.825   4.887  19.593  0.00  0.00    +0.000 A 
ATOM      3  N   UNL     1       1.932   4.468  20.466  0.00  0.00    +0.000 NA
ATOM      4  N   UNL     1       1.304   5.594  20.951  0.00  0.00    +0.000 NA
ATOM      5  C   UNL     1       1.837   6.627  20.326  0.00  0.00    +0.000 A 
ATOM      6  O   UNL     1       2.842   6.256  19.470  0.00  0.00    +0.000 OA
BRANCH   5   7
ATOM      7  C   UNL     1       1.530   8.044  20.492  0.00  0.00    +0.000 A 
ATOM      8  C   UNL     1       1.134   8.466  21.778  0.00  0.00    +0.000 A 
ATOM      9  C   UNL     1       0.700   9.775  22.019  0.00  0.00    +0.000 A 
ATOM     10  C   UNL     1       0.651  10.686  20.972  0.00  0.00    +0.000 A 
ATOM     11  C   UNL     1       1.066  10.300  19.698  0.00  0.00    +0.000 A 
ATOM     12  C   UNL     1       1.510   8.991  19.455  0.00  0.00    +0.000 A 
ATOM     13 BR   UNL     1       1.999   8.598  17.659  0.00  0.00    +0.000 Br
ENDBRANCH   5   7
ENDBRANCH   1   2
BRANCH   1  14
ATOM     14  O   UNL     1       5.028   4.918  18.719  0.00  0.00    +0.000 OA
BRANCH  14  20
ATOM     15  C   UNL     1       6.853   5.562  17.125  0.00  0.00    +0.000 A 
ATOM     16  C   UNL     1       7.366   5.396  15.825  0.00  0.00    +0.000 A 
ATOM     17  C   UNL     1       6.631   4.711  14.856  0.00  0.00    +0.000 A 
ATOM     18  C   UNL     1       5.429   4.104  15.216  0.00  0.00    +0.000 A 
ATOM     19  C   UNL     1       4.967   4.179  16.535  0.00  0.00    +0.000 A 
ATOM     20  C   UNL     1       5.664   4.913  17.503  0.00  0.00    +0.000 A 
BRANCH  17  21
ATOM     21  C   UNL     1       7.043   4.693  13.427  0.00  0.00    +0.000 C 
ATOM     22  C   UNL     1       6.469   3.678  12.476  0.00  0.00    +0.000 C 
ATOM     23  O   UNL     1       7.889   5.506  13.042  0.00  0.00    +0.000 OA
ENDBRANCH  17  21
BRANCH  15  25
ATOM     24  C   UNL     1       7.634   7.732  17.639  0.00  0.00    +0.000 C 
ATOM     25  O   UNL     1       7.523   6.356  18.020  0.00  0.00    +0.000 OA
ENDBRANCH  15  25
ENDBRANCH  14  20
ENDBRANCH   1  14
TORSDOF 6
ENDMDL
MODEL 6
REMARK VINA RESULT:      -7.8      2.211      3.183
REMARK  Name = 
REMARK  8 active torsions:
REMARK  status: ('A' for Active; 'I' for Inactive)
REMARK    1  A    between atoms: C_1  and  O_2
REMARK    2  A    between atoms: O_2  and  C_3
REMARK    3  A    between atoms: C_5  and  C_6
REMARK    4  A    between atoms: C_6  and  C_7
REMARK    5  A    between atoms: C_11  and  O_12
REMARK    6  A    between atoms: O_12  and  C_13
REMARK    7  A    between atoms: C_13  and  C_14
REMARK    8  A    between atoms: C_17  and  C_18
REMARK                            x       y       z     vdW  Elec       q    Type
REMARK                         _______ _______ _______ _____ _____    ______ ____
ROOT
ATOM      1  C   UNL     1       2.558   6.769  19.888  0.00  0.00    +0.000 C 
ENDROOT
BRANCH   1   2
ATOM      2  C   UNL     1       1.655   7.906  20.208  0.00  0.00    +0.000 A 
ATOM      3  N   UNL     1       0.940   8.114  21.295  0.00  0.00    +0.000 NA
ATOM      4  N   UNL     1       0.396   9.373  21.169  0.00  0.00    +0.000 NA
ATOM      5  C   UNL     1       0.794   9.845  20.003  0.00  0.00    +0.000 A 
ATOM      6  O   UNL     1       1.633   8.979  19.349  0.00  0.00    +0.000 OA
BRANCH   5   7
ATOM      7  C   UNL     1       0.505  11.144  19.404  0.00  0.00    +0.000 A 
ATOM      8  C   UNL     1       1.356  12.213  19.753  0.00  0.00    +0.000 A 
ATOM      9  C   UNL     1       1.097  13.523  19.335  0.00  0.00    +0.000 A 
ATOM     10  C   UNL     1      -0.025  13.788  18.560  0.00  0.00    +0.000 A 
ATOM     11  C   UNL     1      -0.864  12.743  18.177  0.00  0.00    +0.000 A 
ATOM     12  C   UNL     1      -0.602  11.426  18.588  0.00  0.00    +0.000 A 
ATOM     13 BR   UNL     1      -1.861  10.114  18.027  0.00  0.00    +0.000 Br
ENDBRANCH   5   7
ENDBRANCH   1   2
BRANCH   1  14
ATOM     14  O   UNL     1       2.158   6.201  18.641  0.00  0.00    +0.000 OA
BRANCH  14  20
ATOM     15  C   UNL     1       3.372   4.317  17.517  0.00  0.00    +0.000 A 
ATOM     16  C   UNL     1       4.405   3.975  16.625  0.00  0.00    +0.000 A 
ATOM     17  C   UNL     1       5.292   4.949  16.162  0.00  0.00    +0.000 A 
ATOM     18  C   UNL     1       5.082   6.282  16.511  0.00  0.00    +0.000 A 
ATOM     19  C   UNL     1       3.992   6.639  17.312  0.00  0.00    +0.000 A 
ATOM     20  C   UNL     1       3.129   5.666  17.833  0.00  0.00    +0.000 A 
BRANCH  17  21
ATOM     21  C   UNL     1       6.512   4.594  15.390  0.00  0.00    +0.000 C 
ATOM     22  C   UNL     1       6.404   4.064  13.985  0.00  0.00    +0.000 C 
ATOM     23  O   UNL     1       7.614   4.712  15.933  0.00  0.00    +0.000 OA
ENDBRANCH  17  21
BRANCH  15  25
ATOM     24  C   UNL     1       3.082   2.813  19.315  0.00  0.00    +0.000 C 
ATOM     25  O   UNL     1       2.599   3.328  18.069  0.00  0.00    +0.000 OA
ENDBRANCH  15  25
ENDBRANCH  14  20
ENDBRANCH   1  14
TORSDOF 6
ENDMDL
MODEL 7
REMARK VINA RESULT:      -7.8      5.558      7.919
REMARK  Name = 
REMARK  8 active torsions:
REMARK  status: ('A' for Active; 'I' for Inactive)
REMARK    1  A    between atoms: C_1  and  O_2
REMARK    2  A    between atoms: O_2  and  C_3
REMARK    3  A    between atoms: C_5  and  C_6
REMARK    4  A    between atoms: C_6  and  C_7
REMARK    5  A    between atoms: C_11  and  O_12
REMARK    6  A    between atoms: O_12  and  C_13
REMARK    7  A    between atoms: C_13  and  C_14
REMARK    8  A    between atoms: C_17  and  C_18
REMARK                            x       y       z     vdW  Elec       q    Type
REMARK                         _______ _______ _______ _____ _____    ______ ____
ROOT
ATOM      1  C   UNL     1       7.553   8.430  17.513  0.00  0.00    +0.000 C 
ENDROOT
BRANCH   1   2
ATOM      2  C   UNL     1       8.414   9.441  18.181  0.00  0.00    +0.000 A 
ATOM      3  N   UNL     1       8.984   9.388  19.368  0.00  0.00    +0.000 NA
ATOM      4  N   UNL     1       9.794  10.498  19.460  0.00  0.00    +0.000 NA
ATOM      5  C   UNL     1       9.649  11.171  18.334  0.00  0.00    +0.000 A 
ATOM      6  O   UNL     1       8.812  10.537  17.453  0.00  0.00    +0.000 OA
BRANCH   5   7
ATOM      7  C   UNL     1      10.302  12.412  17.929  0.00  0.00    +0.000 A 
ATOM      8  C   UNL     1      11.568  12.299  17.319  0.00  0.00    +0.000 A 
ATOM      9  C   UNL     1      12.333  13.427  17.004  0.00  0.00    +0.000 A 
ATOM     10  C   UNL     1      11.845  14.693  17.299  0.00  0.00    +0.000 A 
ATOM     11  C   UNL     1      10.583  14.831  17.876  0.00  0.00    +0.000 A 
ATOM     12  C   UNL     1       9.809  13.702  18.185  0.00  0.00    +0.000 A 
ATOM     13 BR   UNL     1       8.129  14.046  19.010  0.00  0.00    +0.000 Br
ENDBRANCH   5   7
ENDBRANCH   1   2
BRANCH   1  14
ATOM     14  O   UNL     1       7.920   7.132  17.980  0.00  0.00    +0.000 OA
BRANCH  14  20
ATOM     15  C   UNL     1       6.674   5.380  16.691  0.00  0.00    +0.000 A 
ATOM     16  C   UNL     1       5.734   4.335  16.769  0.00  0.00    +0.000 A 
ATOM     17  C   UNL     1       5.019   4.113  17.947  0.00  0.00    +0.000 A 
ATOM     18  C   UNL     1       5.318   4.870  19.078  0.00  0.00    +0.000 A 
ATOM     19  C   UNL     1       6.327   5.839  19.033  0.00  0.00    +0.000 A 
ATOM     20  C   UNL     1       7.011   6.113  17.842  0.00  0.00    +0.000 A 
BRANCH  17  21
ATOM     21  C   UNL     1       3.878   3.161  18.004  0.00  0.00    +0.000 C 
ATOM     22  C   UNL     1       2.542   3.528  17.416  0.00  0.00    +0.000 C 
ATOM     23  O   UNL     1       4.037   2.076  18.571  0.00  0.00    +0.000 OA
ENDBRANCH  17  21
BRANCH  15  25
ATOM     24  C   UNL     1       6.999   4.726  14.444  0.00  0.00    +0.000 C 
ATOM     25  O   UNL     1       7.263   5.671  15.488  0.00  0.00    +0.000 OA
ENDBRANCH  15  25
ENDBRANCH  14  20
ENDBRANCH   1  14
TORSDOF 6
ENDMDL
MODEL 8
REMARK VINA RESULT:      -7.7      1.374      1.508
REMARK  Name = 
REMARK  8 active torsions:
REMARK  status: ('A' for Active; 'I' for Inactive)
REMARK    1  A    between atoms: C_1  and  O_2
REMARK    2  A    between atoms: O_2  and  C_3
REMARK    3  A    between atoms: C_5  and  C_6
REMARK    4  A    between atoms: C_6  and  C_7
REMARK    5  A    between atoms: C_11  and  O_12
REMARK    6  A    between atoms: O_12  and  C_13
REMARK    7  A    between atoms: C_13  and  C_14
REMARK    8  A    between atoms: C_17  and  C_18
REMARK                            x       y       z     vdW  Elec       q    Type
REMARK                         _______ _______ _______ _____ _____    ______ ____
ROOT
ATOM      1  C   UNL     1       3.434   5.462  18.933  0.00  0.00    +0.000 C 
ENDROOT
BRANCH   1   2
ATOM      2  C   UNL     1       2.839   6.824  18.975  0.00  0.00    +0.000 A 
ATOM      3  N   UNL     1       2.736   7.711  18.006  0.00  0.00    +0.000 NA
ATOM      4  N   UNL     1       1.980   8.748  18.507  0.00  0.00    +0.000 NA
ATOM      5  C   UNL     1       1.690   8.440  19.757  0.00  0.00    +0.000 A 
ATOM      6  O   UNL     1       2.173   7.207  20.115  0.00  0.00    +0.000 OA
BRANCH   5   7
ATOM      7  C   UNL     1       0.898   9.200  20.717  0.00  0.00    +0.000 A 
ATOM      8  C   UNL     1       1.114   8.928  22.084  0.00  0.00    +0.000 A 
ATOM      9  C   UNL     1       0.324   9.510  23.082  0.00  0.00    +0.000 A 
ATOM     10  C   UNL     1      -0.703  10.374  22.728  0.00  0.00    +0.000 A 
ATOM     11  C   UNL     1      -0.917  10.682  21.385  0.00  0.00    +0.000 A 
ATOM     12  C   UNL     1      -0.121  10.107  20.382  0.00  0.00    +0.000 A 
ATOM     13 BR   UNL     1      -0.561  10.586  18.594  0.00  0.00    +0.000 Br
ENDBRANCH   5   7
ENDBRANCH   1   2
BRANCH   1  14
ATOM     14  O   UNL     1       4.853   5.581  18.848  0.00  0.00    +0.000 OA
BRANCH  14  20
ATOM     15  C   UNL     1       6.730   5.682  17.189  0.00  0.00    +0.000 A 
ATOM     16  C   UNL     1       7.181   5.260  15.925  0.00  0.00    +0.000 A 
ATOM     17  C   UNL     1       6.318   4.595  15.052  0.00  0.00    +0.000 A 
ATOM     18  C   UNL     1       5.036   4.261  15.484  0.00  0.00    +0.000 A 
ATOM     19  C   UNL     1       4.621   4.586  16.780  0.00  0.00    +0.000 A 
ATOM     20  C   UNL     1       5.455   5.306  17.645  0.00  0.00    +0.000 A 
BRANCH  17  21
ATOM     21  C   UNL     1       6.692   4.319  13.639  0.00  0.00    +0.000 C 
ATOM     22  C   UNL     1       7.770   5.120  12.960  0.00  0.00    +0.000 C 
ATOM     23  O   UNL     1       6.080   3.442  13.022  0.00  0.00    +0.000 OA
ENDBRANCH  17  21
BRANCH  15  25
ATOM     24  C   UNL     1       7.624   7.832  17.588  0.00  0.00    +0.000 C 
ATOM     25  O   UNL     1       7.546   6.455  17.975  0.00  0.00    +0.000 OA
ENDBRANCH  15  25
ENDBRANCH  14  20
ENDBRANCH   1  14
TORSDOF 6
ENDMDL
MODEL 9
REMARK VINA RESULT:      -7.7      2.205      2.589
REMARK  Name = 
REMARK  8 active torsions:
REMARK  status: ('A' for Active; 'I' for Inactive)
REMARK    1  A    between atoms: C_1  and  O_2
REMARK    2  A    between atoms: O_2  and  C_3
REMARK    3  A    between atoms: C_5  and  C_6
REMARK    4  A    between atoms: C_6  and  C_7
REMARK    5  A    between atoms: C_11  and  O_12
REMARK    6  A    between atoms: O_12  and  C_13
REMARK    7  A    between atoms: C_13  and  C_14
REMARK    8  A    between atoms: C_17  and  C_18
REMARK                            x       y       z     vdW  Elec       q    Type
REMARK                         _______ _______ _______ _____ _____    ______ ____
ROOT
ATOM      1  C   UNL     1       2.274   6.661  18.808  0.00  0.00    +0.000 C 
ENDROOT
BRANCH   1   2
ATOM      2  C   UNL     1       2.058   8.112  18.568  0.00  0.00    +0.000 A 
ATOM      3  N   UNL     1       2.430   8.844  17.538  0.00  0.00    +0.000 NA
ATOM      4  N   UNL     1       1.865  10.087  17.719  0.00  0.00    +0.000 NA
ATOM      5  C   UNL     1       1.203  10.043  18.860  0.00  0.00    +0.000 A 
ATOM      6  O   UNL     1       1.249   8.801  19.440  0.00  0.00    +0.000 OA
BRANCH   5   7
ATOM      7  C   UNL     1       0.418  11.097  19.494  0.00  0.00    +0.000 A 
ATOM      8  C   UNL     1       1.073  11.892  20.456  0.00  0.00    +0.000 A 
ATOM      9  C   UNL     1       0.383  12.847  21.211  0.00  0.00    +0.000 A 
ATOM     10  C   UNL     1      -0.981  13.021  21.018  0.00  0.00    +0.000 A 
ATOM     11  C   UNL     1      -1.645  12.267  20.051  0.00  0.00    +0.000 A 
ATOM     12  C   UNL     1      -0.954  11.315  19.286  0.00  0.00    +0.000 A 
ATOM     13 BR   UNL     1      -2.002  10.331  18.040  0.00  0.00    +0.000 Br
ENDBRANCH   5   7
ENDBRANCH   1   2
BRANCH   1  14
ATOM     14  O   UNL     1       3.676   6.412  18.894  0.00  0.00    +0.000 OA
BRANCH  14  20
ATOM     15  C   UNL     1       4.348   4.526  17.384  0.00  0.00    +0.000 A 
ATOM     16  C   UNL     1       5.021   4.176  16.200  0.00  0.00    +0.000 A 
ATOM     17  C   UNL     1       5.776   5.124  15.508  0.00  0.00    +0.000 A 
ATOM     18  C   UNL     1       5.773   6.448  15.945  0.00  0.00    +0.000 A 
ATOM     19  C   UNL     1       5.019   6.821  17.063  0.00  0.00    +0.000 A 
ATOM     20  C   UNL     1       4.305   5.868  17.801  0.00  0.00    +0.000 A 
BRANCH  17  21
ATOM     21  C   UNL     1       6.664   4.746  14.376  0.00  0.00    +0.000 C 
ATOM     22  C   UNL     1       6.236   3.700  13.382  0.00  0.00    +0.000 C 
ATOM     23  O   UNL     1       7.772   5.283  14.284  0.00  0.00    +0.000 OA
ENDBRANCH  17  21
BRANCH  15  25
ATOM     24  C   UNL     1       4.460   3.115  19.275  0.00  0.00    +0.000 C 
ATOM     25  O   UNL     1       3.729   3.552  18.124  0.00  0.00    +0.000 OA
ENDBRANCH  15  25
ENDBRANCH  14  20
ENDBRANCH   1  14
TORSDOF 6
ENDMDL
