MODEL 1
REMARK VINA RESULT:      -8.6      0.000      0.000
REMARK  Name = 
REMARK  2 active torsions:
REMARK  status: ('A' for Active; 'I' for Inactive)
REMARK    1  A    between atoms: C_17  and  C_18
REMARK    2  A    between atoms: C_18  and  N_19
REMARK                            x       y       z     vdW  Elec       q    Type
REMARK                         _______ _______ _______ _____ _____    ______ ____
ROOT
ATOM      1  O   UNL     1       3.905   2.216  17.946  0.00  0.00    +0.000 OA
ATOM      2  C   UNL     1       3.909   3.436  17.837  0.00  0.00    +0.000 C 
ATOM      3  C   UNL     1       4.688   4.090  16.761  0.00  0.00    +0.000 A 
ATOM      4  C   UNL     1       5.422   3.307  15.860  0.00  0.00    +0.000 A 
ATOM      5  C   UNL     1       6.153   3.918  14.838  0.00  0.00    +0.000 A 
ATOM      6  C   UNL     1       6.154   5.307  14.709  0.00  0.00    +0.000 A 
ATOM      7  C   UNL     1       5.426   6.090  15.605  0.00  0.00    +0.000 A 
ATOM      8  C   UNL     1       4.695   5.480  16.634  0.00  0.00    +0.000 A 
ATOM      9  C   UNL     1       3.937   6.319  17.578  0.00  0.00    +0.000 C 
ATOM     10  O   UNL     1       3.944   7.543  17.492  0.00  0.00    +0.000 OA
ATOM     11  C   UNL     1       3.162   5.662  18.640  0.00  0.00    +0.000 A 
ATOM     12  C   UNL     1       3.132   4.274  18.777  0.00  0.00    +0.000 A 
ATOM     13  C   UNL     1       2.372   3.673  19.791  0.00  0.00    +0.000 A 
ATOM     14  C   UNL     1       1.623   4.454  20.688  0.00  0.00    +0.000 A 
ATOM     15  C   UNL     1       1.648   5.852  20.556  0.00  0.00    +0.000 A 
ATOM     16  N   UNL     1       1.005   6.829  21.278  0.00  0.00    +0.000 NA
ATOM     17  C   UNL     1       1.358   7.979  20.729  0.00  0.00    +0.000 A 
ATOM     18  N   UNL     1       2.241   7.769  19.700  0.00  0.00    +0.000 N 
ATOM     19  C   UNL     1       2.416   6.417  19.550  0.00  0.00    +0.000 A 
ATOM     20  H   UNL     1       2.670   8.472  19.111  0.00  0.00    +0.000 HD
ENDROOT
BRANCH  17  21
ATOM     21  C   UNL     1       0.904   9.356  21.122  0.00  0.00    +0.000 C 
BRANCH  21  22
ATOM     22  N   UNL     1       0.653  10.296  20.006  0.00  0.00    +0.000 NA
ATOM     23  C   UNL     1       1.115  11.659  20.338  0.00  0.00    +0.000 C 
ATOM     24  C   UNL     1       1.023  12.667  19.185  0.00  0.00    +0.000 C 
ATOM     25  S   UNL     1      -0.683  12.873  18.593  0.00  0.00    +0.000 S 
ATOM     26  C   UNL     1      -1.014  11.115  18.287  0.00  0.00    +0.000 C 
ATOM     27  C   UNL     1      -0.738  10.255  19.530  0.00  0.00    +0.000 C 
ENDBRANCH  21  22
ENDBRANCH  17  21
TORSDOF 2
ENDMDL
MODEL 2
REMARK VINA RESULT:      -8.3      0.745      1.026
REMARK  Name = 
REMARK  2 active torsions:
REMARK  status: ('A' for Active; 'I' for Inactive)
REMARK    1  A    between atoms: C_17  and  C_18
REMARK    2  A    between atoms: C_18  and  N_19
REMARK                            x       y       z     vdW  Elec       q    Type
REMARK                         _______ _______ _______ _____ _____    ______ ____
ROOT
ATOM      1  O   UNL     1       3.706   2.177  17.828  0.00  0.00    +0.000 OA
ATOM      2  C   UNL     1       3.781   3.396  17.748  0.00  0.00    +0.000 C 
ATOM      3  C   UNL     1       4.615   4.030  16.701  0.00  0.00    +0.000 A 
ATOM      4  C   UNL     1       5.319   3.228  15.794  0.00  0.00    +0.000 A 
ATOM      5  C   UNL     1       6.102   3.819  14.799  0.00  0.00    +0.000 A 
ATOM      6  C   UNL     1       6.183   5.209  14.704  0.00  0.00    +0.000 A 
ATOM      7  C   UNL     1       5.486   6.011  15.607  0.00  0.00    +0.000 A 
ATOM      8  C   UNL     1       4.704   5.420  16.608  0.00  0.00    +0.000 A 
ATOM      9  C   UNL     1       3.979   6.278  17.560  0.00  0.00    +0.000 C 
ATOM     10  O   UNL     1       4.056   7.502  17.504  0.00  0.00    +0.000 OA
ATOM     11  C   UNL     1       3.148   5.643  18.594  0.00  0.00    +0.000 A 
ATOM     12  C   UNL     1       3.037   4.255  18.695  0.00  0.00    +0.000 A 
ATOM     13  C   UNL     1       2.226   3.676  19.682  0.00  0.00    +0.000 A 
ATOM     14  C   UNL     1       1.508   4.477  20.586  0.00  0.00    +0.000 A 
ATOM     15  C   UNL     1       1.614   5.874  20.489  0.00  0.00    +0.000 A 
ATOM     16  N   UNL     1       1.016   6.869  21.223  0.00  0.00    +0.000 NA
ATOM     17  C   UNL     1       1.444   8.010  20.709  0.00  0.00    +0.000 A 
ATOM     18  N   UNL     1       2.331   7.773  19.689  0.00  0.00    +0.000 N 
ATOM     19  C   UNL     1       2.431   6.417  19.510  0.00  0.00    +0.000 A 
ATOM     20  H   UNL     1       2.809   8.465  19.125  0.00  0.00    +0.000 HD
ENDROOT
BRANCH  17  21
ATOM     21  C   UNL     1       1.062   9.401  21.128  0.00  0.00    +0.000 C 
BRANCH  21  22
ATOM     22  N   UNL     1      -0.101   9.990  20.426  0.00  0.00    +0.000 NA
ATOM     23  C   UNL     1       0.103   9.997  18.964  0.00  0.00    +0.000 C 
ATOM     24  C   UNL     1      -1.111  10.461  18.149  0.00  0.00    +0.000 C 
ATOM     25  S   UNL     1      -1.608  12.158  18.569  0.00  0.00    +0.000 S 
ATOM     26  C   UNL     1      -1.765  11.895  20.357  0.00  0.00    +0.000 C 
ATOM     27  C   UNL     1      -0.484  11.305  20.965  0.00  0.00    +0.000 C 
ENDBRANCH  21  22
ENDBRANCH  17  21
TORSDOF 2
ENDMDL
MODEL 3
REMARK VINA RESULT:      -8.0      1.252      1.681
REMARK  Name = 
REMARK  2 active torsions:
REMARK  status: ('A' for Active; 'I' for Inactive)
REMARK    1  A    between atoms: C_17  and  C_18
REMARK    2  A    between atoms: C_18  and  N_19
REMARK                            x       y       z     vdW  Elec       q    Type
REMARK                         _______ _______ _______ _____ _____    ______ ____
ROOT
ATOM      1  O   UNL     1       4.235   2.998  18.924  0.00  0.00    +0.000 OA
ATOM      2  C   UNL     1       4.106   4.124  18.460  0.00  0.00    +0.000 C 
ATOM      3  C   UNL     1       4.790   4.499  17.201  0.00  0.00    +0.000 A 
ATOM      4  C   UNL     1       5.586   3.558  16.535  0.00  0.00    +0.000 A 
ATOM      5  C   UNL     1       6.228   3.903  15.343  0.00  0.00    +0.000 A 
ATOM      6  C   UNL     1       6.078   5.184  14.811  0.00  0.00    +0.000 A 
ATOM      7  C   UNL     1       5.289   6.125  15.472  0.00  0.00    +0.000 A 
ATOM      8  C   UNL     1       4.647   5.783  16.670  0.00  0.00    +0.000 A 
ATOM      9  C   UNL     1       3.823   6.788  17.363  0.00  0.00    +0.000 C 
ATOM     10  O   UNL     1       3.697   7.926  16.920  0.00  0.00    +0.000 OA
ATOM     11  C   UNL     1       3.143   6.407  18.609  0.00  0.00    +0.000 A 
ATOM     12  C   UNL     1       3.263   5.126  19.149  0.00  0.00    +0.000 A 
ATOM     13  C   UNL     1       2.592   4.785  20.332  0.00  0.00    +0.000 A 
ATOM     14  C   UNL     1       1.782   5.723  20.997  0.00  0.00    +0.000 A 
ATOM     15  C   UNL     1       1.655   7.012  20.458  0.00  0.00    +0.000 A 
ATOM     16  N   UNL     1       0.927   8.094  20.891  0.00  0.00    +0.000 NA
ATOM     17  C   UNL     1       1.145   9.057  20.011  0.00  0.00    +0.000 A 
ATOM     18  N   UNL     1       2.024   8.635  19.046  0.00  0.00    +0.000 N 
ATOM     19  C   UNL     1       2.339   7.323  19.293  0.00  0.00    +0.000 A 
ATOM     20  H   UNL     1       2.364   9.169  18.255  0.00  0.00    +0.000 HD
ENDROOT
BRANCH  17  21
ATOM     21  C   UNL     1       0.554  10.439  20.003  0.00  0.00    +0.000 C 
BRANCH  21  22
ATOM     22  N   UNL     1      -0.852  10.537  19.551  0.00  0.00    +0.000 NA
ATOM     23  C   UNL     1      -1.022   9.966  18.200  0.00  0.00    +0.000 C 
ATOM     24  C   UNL     1      -2.475   9.898  17.710  0.00  0.00    +0.000 C 
ATOM     25  S   UNL     1      -3.248  11.541  17.634  0.00  0.00    +0.000 S 
ATOM     26  C   UNL     1      -2.892  12.021  19.348  0.00  0.00    +0.000 C 
ATOM     27  C   UNL     1      -1.397  11.897  19.679  0.00  0.00    +0.000 C 
ENDBRANCH  21  22
ENDBRANCH  17  21
TORSDOF 2
ENDMDL
MODEL 4
REMARK VINA RESULT:      -7.8      1.038      1.235
REMARK  Name = 
REMARK  2 active torsions:
REMARK  status: ('A' for Active; 'I' for Inactive)
REMARK    1  A    between atoms: C_17  and  C_18
REMARK    2  A    between atoms: C_18  and  N_19
REMARK                            x       y       z     vdW  Elec       q    Type
REMARK                         _______ _______ _______ _____ _____    ______ ____
ROOT
ATOM      1  O   UNL     1       4.226   2.660  18.602  0.00  0.00    +0.000 OA
ATOM      2  C   UNL     1       4.101   3.835  18.279  0.00  0.00    +0.000 C 
ATOM      3  C   UNL     1       4.783   4.357  17.072  0.00  0.00    +0.000 A 
ATOM      4  C   UNL     1       5.574   3.501  16.295  0.00  0.00    +0.000 A 
ATOM      5  C   UNL     1       6.214   3.985  15.152  0.00  0.00    +0.000 A 
ATOM      6  C   UNL     1       6.068   5.322  14.779  0.00  0.00    +0.000 A 
ATOM      7  C   UNL     1       5.284   6.178  15.552  0.00  0.00    +0.000 A 
ATOM      8  C   UNL     1       4.644   5.696  16.701  0.00  0.00    +0.000 A 
ATOM      9  C   UNL     1       3.826   6.613  17.513  0.00  0.00    +0.000 C 
ATOM     10  O   UNL     1       3.704   7.797  17.211  0.00  0.00    +0.000 OA
ATOM     11  C   UNL     1       3.147   6.086  18.706  0.00  0.00    +0.000 A 
ATOM     12  C   UNL     1       3.264   4.749  19.086  0.00  0.00    +0.000 A 
ATOM     13  C   UNL     1       2.593   4.270  20.221  0.00  0.00    +0.000 A 
ATOM     14  C   UNL     1       1.789   5.123  20.997  0.00  0.00    +0.000 A 
ATOM     15  C   UNL     1       1.667   6.469  20.618  0.00  0.00    +0.000 A 
ATOM     16  N   UNL     1       0.943   7.493  21.182  0.00  0.00    +0.000 NA
ATOM     17  C   UNL     1       1.163   8.555  20.424  0.00  0.00    +0.000 A 
ATOM     18  N   UNL     1       2.039   8.249  19.413  0.00  0.00    +0.000 N 
ATOM     19  C   UNL     1       2.349   6.916  19.498  0.00  0.00    +0.000 A 
ATOM     20  H   UNL     1       2.379   8.874  18.691  0.00  0.00    +0.000 HD
ENDROOT
BRANCH  17  21
ATOM     21  C   UNL     1       0.579   9.930  20.586  0.00  0.00    +0.000 C 
BRANCH  21  22
ATOM     22  N   UNL     1       1.434  11.051  20.137  0.00  0.00    +0.000 NA
ATOM     23  C   UNL     1       1.168  12.275  20.920  0.00  0.00    +0.000 C 
ATOM     24  C   UNL     1       2.109  13.448  20.616  0.00  0.00    +0.000 C 
ATOM     25  S   UNL     1       2.017  13.966  18.876  0.00  0.00    +0.000 S 
ATOM     26  C   UNL     1       2.343  12.333  18.153  0.00  0.00    +0.000 C 
ATOM     27  C   UNL     1       1.372  11.268  18.683  0.00  0.00    +0.000 C 
ENDBRANCH  21  22
ENDBRANCH  17  21
TORSDOF 2
ENDMDL
MODEL 5
REMARK VINA RESULT:      -7.6      3.864      8.817
REMARK  Name = 
REMARK  2 active torsions:
REMARK  status: ('A' for Active; 'I' for Inactive)
REMARK    1  A    between atoms: C_17  and  C_18
REMARK    2  A    between atoms: C_18  and  N_19
REMARK                            x       y       z     vdW  Elec       q    Type
REMARK                         _______ _______ _______ _____ _____    ______ ____
ROOT
ATOM      1  O   UNL     1       0.003  13.107  18.815  0.00  0.00    +0.000 OA
ATOM      2  C   UNL     1      -0.038  12.225  19.664  0.00  0.00    +0.000 C 
ATOM      3  C   UNL     1      -0.770  12.440  20.933  0.00  0.00    +0.000 A 
ATOM      4  C   UNL     1      -1.422  13.659  21.162  0.00  0.00    +0.000 A 
ATOM      5  C   UNL     1      -2.120  13.865  22.354  0.00  0.00    +0.000 A 
ATOM      6  C   UNL     1      -2.172  12.860  23.320  0.00  0.00    +0.000 A 
ATOM      7  C   UNL     1      -1.521  11.647  23.098  0.00  0.00    +0.000 A 
ATOM      8  C   UNL     1      -0.817  11.438  21.904  0.00  0.00    +0.000 A 
ATOM      9  C   UNL     1      -0.128  10.156  21.685  0.00  0.00    +0.000 C 
ATOM     10  O   UNL     1      -0.145   9.268  22.533  0.00  0.00    +0.000 OA
ATOM     11  C   UNL     1       0.592   9.947  20.421  0.00  0.00    +0.000 A 
ATOM     12  C   UNL     1       0.641  10.931  19.433  0.00  0.00    +0.000 A 
ATOM     13  C   UNL     1       1.323  10.700  18.229  0.00  0.00    +0.000 A 
ATOM     14  C   UNL     1       1.968   9.474  17.991  0.00  0.00    +0.000 A 
ATOM     15  C   UNL     1       1.922   8.479  18.980  0.00  0.00    +0.000 A 
ATOM     16  N   UNL     1       2.445   7.208  18.994  0.00  0.00    +0.000 NA
ATOM     17  C   UNL     1       2.099   6.684  20.158  0.00  0.00    +0.000 A 
ATOM     18  N   UNL     1       1.401   7.598  20.907  0.00  0.00    +0.000 N 
ATOM     19  C   UNL     1       1.249   8.740  20.163  0.00  0.00    +0.000 A 
ATOM     20  H   UNL     1       1.019   7.462  21.835  0.00  0.00    +0.000 HD
ENDROOT
BRANCH  17  21
ATOM     21  C   UNL     1       2.393   5.299  20.660  0.00  0.00    +0.000 C 
BRANCH  21  22
ATOM     22  N   UNL     1       2.544   4.256  19.621  0.00  0.00    +0.000 NA
ATOM     23  C   UNL     1       1.873   3.002  20.018  0.00  0.00    +0.000 C 
ATOM     24  C   UNL     1       1.860   1.911  18.939  0.00  0.00    +0.000 C 
ATOM     25  S   UNL     1       3.537   1.418  18.444  0.00  0.00    +0.000 S 
ATOM     26  C   UNL     1       4.137   3.083  18.041  0.00  0.00    +0.000 C 
ATOM     27  C   UNL     1       3.944   4.060  19.211  0.00  0.00    +0.000 C 
ENDBRANCH  21  22
ENDBRANCH  17  21
TORSDOF 2
ENDMDL
MODEL 6
REMARK VINA RESULT:      -7.6      3.555      8.344
REMARK  Name = 
REMARK  2 active torsions:
REMARK  status: ('A' for Active; 'I' for Inactive)
REMARK    1  A    between atoms: C_17  and  C_18
REMARK    2  A    between atoms: C_18  and  N_19
REMARK                            x       y       z     vdW  Elec       q    Type
REMARK                         _______ _______ _______ _____ _____    ______ ____
ROOT
ATOM      1  O   UNL     1      -0.393  12.237  18.707  0.00  0.00    +0.000 OA
ATOM      2  C   UNL     1      -0.141  11.342  19.504  0.00  0.00    +0.000 C 
ATOM      3  C   UNL     1      -0.705  11.376  20.873  0.00  0.00    +0.000 A 
ATOM      4  C   UNL     1      -1.534  12.438  21.257  0.00  0.00    +0.000 A 
ATOM      5  C   UNL     1      -2.075  12.472  22.545  0.00  0.00    +0.000 A 
ATOM      6  C   UNL     1      -1.793  11.450  23.451  0.00  0.00    +0.000 A 
ATOM      7  C   UNL     1      -0.965  10.393  23.074  0.00  0.00    +0.000 A 
ATOM      8  C   UNL     1      -0.418  10.358  21.785  0.00  0.00    +0.000 A 
ATOM      9  C   UNL     1       0.461   9.241  21.402  0.00  0.00    +0.000 C 
ATOM     10  O   UNL     1       0.736   8.344  22.194  0.00  0.00    +0.000 OA
ATOM     11  C   UNL     1       1.012   9.210  20.039  0.00  0.00    +0.000 A 
ATOM     12  C   UNL     1       0.728  10.211  19.110  0.00  0.00    +0.000 A 
ATOM     13  C   UNL     1       1.256  10.150  17.812  0.00  0.00    +0.000 A 
ATOM     14  C   UNL     1       2.079   9.080  17.419  0.00  0.00    +0.000 A 
ATOM     15  C   UNL     1       2.367   8.068  18.348  0.00  0.00    +0.000 A 
ATOM     16  N   UNL     1       3.117   6.924  18.220  0.00  0.00    +0.000 NA
ATOM     17  C   UNL     1       3.051   6.311  19.390  0.00  0.00    +0.000 A 
ATOM     18  N   UNL     1       2.313   7.052  20.278  0.00  0.00    +0.000 N 
ATOM     19  C   UNL     1       1.839   8.162  19.627  0.00  0.00    +0.000 A 
ATOM     20  H   UNL     1       2.104   6.818  21.241  0.00  0.00    +0.000 HD
ENDROOT
BRANCH  17  21
ATOM     21  C   UNL     1       3.672   4.997  19.769  0.00  0.00    +0.000 C 
BRANCH  21  22
ATOM     22  N   UNL     1       4.742   4.506  18.870  0.00  0.00    +0.000 NA
ATOM     23  C   UNL     1       5.955   5.340  18.976  0.00  0.00    +0.000 C 
ATOM     24  C   UNL     1       7.162   4.820  18.184  0.00  0.00    +0.000 C 
ATOM     25  S   UNL     1       6.815   4.707  16.404  0.00  0.00    +0.000 S 
ATOM     26  C   UNL     1       5.318   3.690  16.545  0.00  0.00    +0.000 C 
ATOM     27  C   UNL     1       4.282   4.323  17.485  0.00  0.00    +0.000 C 
ENDBRANCH  21  22
ENDBRANCH  17  21
TORSDOF 2
ENDMDL
MODEL 7
REMARK VINA RESULT:      -7.6      3.681      8.274
REMARK  Name = 
REMARK  2 active torsions:
REMARK  status: ('A' for Active; 'I' for Inactive)
REMARK    1  A    between atoms: C_17  and  C_18
REMARK    2  A    between atoms: C_18  and  N_19
REMARK                            x       y       z     vdW  Elec       q    Type
REMARK                         _______ _______ _______ _____ _____    ______ ____
ROOT
ATOM      1  O   UNL     1      -0.660  12.083  18.580  0.00  0.00    +0.000 OA
ATOM      2  C   UNL     1      -0.317  11.251  19.411  0.00  0.00    +0.000 C 
ATOM      3  C   UNL     1      -0.839  11.314  20.795  0.00  0.00    +0.000 A 
ATOM      4  C   UNL     1      -1.734  12.330  21.155  0.00  0.00    +0.000 A 
ATOM      5  C   UNL     1      -2.236  12.391  22.457  0.00  0.00    +0.000 A 
ATOM      6  C   UNL     1      -1.850  11.441  23.403  0.00  0.00    +0.000 A 
ATOM      7  C   UNL     1      -0.956  10.430  23.050  0.00  0.00    +0.000 A 
ATOM      8  C   UNL     1      -0.449  10.369  21.746  0.00  0.00    +0.000 A 
ATOM      9  C   UNL     1       0.500   9.301  21.388  0.00  0.00    +0.000 C 
ATOM     10  O   UNL     1       0.867   8.470  22.213  0.00  0.00    +0.000 OA
ATOM     11  C   UNL     1       1.010   9.241  20.010  0.00  0.00    +0.000 A 
ATOM     12  C   UNL     1       0.623  10.169  19.043  0.00  0.00    +0.000 A 
ATOM     13  C   UNL     1       1.114  10.079  17.733  0.00  0.00    +0.000 A 
ATOM     14  C   UNL     1       2.002   9.054  17.364  0.00  0.00    +0.000 A 
ATOM     15  C   UNL     1       2.395   8.116  18.332  0.00  0.00    +0.000 A 
ATOM     16  N   UNL     1       3.224   7.025  18.234  0.00  0.00    +0.000 NA
ATOM     17  C   UNL     1       3.241   6.471  19.435  0.00  0.00    +0.000 A 
ATOM     18  N   UNL     1       2.477   7.200  20.310  0.00  0.00    +0.000 N 
ATOM     19  C   UNL     1       1.901   8.237  19.622  0.00  0.00    +0.000 A 
ATOM     20  H   UNL     1       2.316   7.002  21.291  0.00  0.00    +0.000 HD
ENDROOT
BRANCH  17  21
ATOM     21  C   UNL     1       3.971   5.227  19.857  0.00  0.00    +0.000 C 
BRANCH  21  22
ATOM     22  N   UNL     1       3.213   3.961  19.733  0.00  0.00    +0.000 NA
ATOM     23  C   UNL     1       2.999   3.601  18.318  0.00  0.00    +0.000 C 
ATOM     24  C   UNL     1       2.345   2.230  18.097  0.00  0.00    +0.000 C 
ATOM     25  S   UNL     1       0.703   2.124  18.870  0.00  0.00    +0.000 S 
ATOM     26  C   UNL     1       1.222   2.622  20.536  0.00  0.00    +0.000 C 
ATOM     27  C   UNL     1       1.974   3.961  20.526  0.00  0.00    +0.000 C 
ENDBRANCH  21  22
ENDBRANCH  17  21
TORSDOF 2
ENDMDL
MODEL 8
REMARK VINA RESULT:      -7.6      1.325      1.699
REMARK  Name = 
REMARK  2 active torsions:
REMARK  status: ('A' for Active; 'I' for Inactive)
REMARK    1  A    between atoms: C_17  and  C_18
REMARK    2  A    between atoms: C_18  and  N_19
REMARK                            x       y       z     vdW  Elec       q    Type
REMARK                         _______ _______ _______ _____ _____    ______ ____
ROOT
ATOM      1  O   UNL     1       3.745   3.143  19.049  0.00  0.00    +0.000 OA
ATOM      2  C   UNL     1       3.728   4.271  18.574  0.00  0.00    +0.000 C 
ATOM      3  C   UNL     1       4.496   4.578  17.345  0.00  0.00    +0.000 A 
ATOM      4  C   UNL     1       5.242   3.569  16.721  0.00  0.00    +0.000 A 
ATOM      5  C   UNL     1       5.962   3.851  15.558  0.00  0.00    +0.000 A 
ATOM      6  C   UNL     1       5.940   5.134  15.012  0.00  0.00    +0.000 A 
ATOM      7  C   UNL     1       5.201   6.142  15.631  0.00  0.00    +0.000 A 
ATOM      8  C   UNL     1       4.481   5.863  16.801  0.00  0.00    +0.000 A 
ATOM      9  C   UNL     1       3.711   6.938  17.449  0.00  0.00    +0.000 C 
ATOM     10  O   UNL     1       3.698   8.078  16.995  0.00  0.00    +0.000 OA
ATOM     11  C   UNL     1       2.947   6.625  18.665  0.00  0.00    +0.000 A 
ATOM     12  C   UNL     1       2.939   5.344  19.218  0.00  0.00    +0.000 A 
ATOM     13  C   UNL     1       2.190   5.070  20.371  0.00  0.00    +0.000 A 
ATOM     14  C   UNL     1       1.430   6.076  20.993  0.00  0.00    +0.000 A 
ATOM     15  C   UNL     1       1.432   7.366  20.442  0.00  0.00    +0.000 A 
ATOM     16  N   UNL     1       0.775   8.507  20.835  0.00  0.00    +0.000 NA
ATOM     17  C   UNL     1       1.110   9.441  19.960  0.00  0.00    +0.000 A 
ATOM     18  N   UNL     1       1.994   8.940  19.039  0.00  0.00    +0.000 N 
ATOM     19  C   UNL     1       2.191   7.610  19.307  0.00  0.00    +0.000 A 
ATOM     20  H   UNL     1       2.411   9.437  18.261  0.00  0.00    +0.000 HD
ENDROOT
BRANCH  17  21
ATOM     21  C   UNL     1       0.634  10.866  19.918  0.00  0.00    +0.000 C 
BRANCH  21  22
ATOM     22  N   UNL     1      -0.517  11.136  19.027  0.00  0.00    +0.000 NA
ATOM     23  C   UNL     1      -1.699  11.573  19.795  0.00  0.00    +0.000 C 
ATOM     24  C   UNL     1      -2.896  12.009  18.940  0.00  0.00    +0.000 C 
ATOM     25  S   UNL     1      -3.493  10.670  17.866  0.00  0.00    +0.000 S 
ATOM     26  C   UNL     1      -1.900  10.307  17.076  0.00  0.00    +0.000 C 
ATOM     27  C   UNL     1      -0.800  10.021  18.110  0.00  0.00    +0.000 C 
ENDBRANCH  21  22
ENDBRANCH  17  21
TORSDOF 2
ENDMDL
MODEL 9
REMARK VINA RESULT:      -7.6      3.995      8.464
REMARK  Name = 
REMARK  2 active torsions:
REMARK  status: ('A' for Active; 'I' for Inactive)
REMARK    1  A    between atoms: C_17  and  C_18
REMARK    2  A    between atoms: C_18  and  N_19
REMARK                            x       y       z     vdW  Elec       q    Type
REMARK                         _______ _______ _______ _____ _____    ______ ____
ROOT
ATOM      1  O   UNL     1       0.129  12.424  18.522  0.00  0.00    +0.000 OA
ATOM      2  C   UNL     1       0.075  11.646  19.466  0.00  0.00    +0.000 C 
ATOM      3  C   UNL     1      -0.667  12.009  20.696  0.00  0.00    +0.000 A 
ATOM      4  C   UNL     1      -1.313  13.250  20.777  0.00  0.00    +0.000 A 
ATOM      5  C   UNL     1      -2.020  13.595  21.931  0.00  0.00    +0.000 A 
ATOM      6  C   UNL     1      -2.088  12.707  23.004  0.00  0.00    +0.000 A 
ATOM      7  C   UNL     1      -1.444  11.473  22.929  0.00  0.00    +0.000 A 
ATOM      8  C   UNL     1      -0.731  11.125  21.774  0.00  0.00    +0.000 A 
ATOM      9  C   UNL     1      -0.049   9.822  21.710  0.00  0.00    +0.000 C 
ATOM     10  O   UNL     1      -0.080   9.037  22.654  0.00  0.00    +0.000 OA
ATOM     11  C   UNL     1       0.681   9.465  20.485  0.00  0.00    +0.000 A 
ATOM     12  C   UNL     1       0.746  10.330  19.391  0.00  0.00    +0.000 A 
ATOM     13  C   UNL     1       1.437   9.958  18.229  0.00  0.00    +0.000 A 
ATOM     14  C   UNL     1       2.076   8.709  18.138  0.00  0.00    +0.000 A 
ATOM     15  C   UNL     1       2.013   7.834  19.234  0.00  0.00    +0.000 A 
ATOM     16  N   UNL     1       2.527   6.570  19.399  0.00  0.00    +0.000 NA
ATOM     17  C   UNL     1       2.166   6.185  20.612  0.00  0.00    +0.000 A 
ATOM     18  N   UNL     1       1.469   7.183  21.244  0.00  0.00    +0.000 N 
ATOM     19  C   UNL     1       1.331   8.233  20.373  0.00  0.00    +0.000 A 
ATOM     20  H   UNL     1       1.077   7.155  22.178  0.00  0.00    +0.000 HD
ENDROOT
BRANCH  17  21
ATOM     21  C   UNL     1       2.446   4.864  21.271  0.00  0.00    +0.000 C 
BRANCH  21  22
ATOM     22  N   UNL     1       2.411   3.680  20.384  0.00  0.00    +0.000 NA
ATOM     23  C   UNL     1       3.707   3.478  19.707  0.00  0.00    +0.000 C 
ATOM     24  C   UNL     1       3.804   2.192  18.876  0.00  0.00    +0.000 C 
ATOM     25  S   UNL     1       2.561   2.138  17.551  0.00  0.00    +0.000 S 
ATOM     26  C   UNL     1       1.114   2.426  18.608  0.00  0.00    +0.000 C 
ATOM     27  C   UNL     1       1.268   3.697  19.457  0.00  0.00    +0.000 C 
ENDBRANCH  21  22
ENDBRANCH  17  21
TORSDOF 2
ENDMDL
