MODEL 1
REMARK VINA RESULT:      -8.3      0.000      0.000
REMARK  Name = 
REMARK  3 active torsions:
REMARK  status: ('A' for Active; 'I' for Inactive)
REMARK    1  A    between atoms: C_1  and  C_2
REMARK    2  A    between atoms: C_2  and  C_4
REMARK    3  A    between atoms: C_5  and  C_6
REMARK                            x       y       z     vdW  Elec       q    Type
REMARK                         _______ _______ _______ _____ _____    ______ ____
ROOT
ATOM      1  C   UNL     1       5.564   4.795  15.300  0.00  0.00    +0.000 A 
ATOM      2  C   UNL     1       5.356   6.056  15.859  0.00  0.00    +0.000 A 
ATOM      3  C   UNL     1       4.538   6.207  16.982  0.00  0.00    +0.000 A 
ATOM      4  C   UNL     1       3.885   5.109  17.572  0.00  0.00    +0.000 A 
ATOM      5  C   UNL     1       4.061   3.850  16.989  0.00  0.00    +0.000 A 
ATOM      6  C   UNL     1       4.907   3.700  15.875  0.00  0.00    +0.000 A 
ATOM      7  O   UNL     1       3.496   2.674  17.403  0.00  0.00    +0.000 OA
ATOM      8  C   UNL     1       2.139   2.796  17.810  0.00  0.00    +0.000 C 
ATOM      9  C   UNL     1       2.099   3.131  19.267  0.00  0.00    +0.000 A 
ATOM     10  C   UNL     1       1.590   2.207  20.196  0.00  0.00    +0.000 A 
ATOM     11  C   UNL     1       1.518   2.528  21.553  0.00  0.00    +0.000 A 
ATOM     12  C   UNL     1       1.944   3.776  21.995  0.00  0.00    +0.000 A 
ATOM     13  C   UNL     1       2.456   4.696  21.081  0.00  0.00    +0.000 A 
ATOM     14  C   UNL     1       2.554   4.373  19.719  0.00  0.00    +0.000 A 
ATOM     15  C   UNL     1       3.102   5.406  18.807  0.00  0.00    +0.000 C 
ATOM     16  O   UNL     1       2.925   6.584  19.124  0.00  0.00    +0.000 OA
ENDROOT
BRANCH   1  18
ATOM     17  C   UNL     1       6.072   3.747  13.099  0.00  0.00    +0.000 C 
ATOM     18  C   UNL     1       6.383   4.589  14.097  0.00  0.00    +0.000 C 
BRANCH  17  20
ATOM     19  C   UNL     1       7.092   2.229  11.329  0.00  0.00    +0.000 C 
ATOM     20  C   UNL     1       6.980   3.606  11.928  0.00  0.00    +0.000 C 
ATOM     21  O   UNL     1       7.608   4.561  11.478  0.00  0.00    +0.000 OA
ENDBRANCH  17  20
ENDBRANCH   1  18
TORSDOF 2
ENDMDL
MODEL 2
REMARK VINA RESULT:      -7.8      9.297     11.844
REMARK  Name = 
REMARK  3 active torsions:
REMARK  status: ('A' for Active; 'I' for Inactive)
REMARK    1  A    between atoms: C_1  and  C_2
REMARK    2  A    between atoms: C_2  and  C_4
REMARK    3  A    between atoms: C_5  and  C_6
REMARK                            x       y       z     vdW  Elec       q    Type
REMARK                         _______ _______ _______ _____ _____    ______ ____
ROOT
ATOM      1  C   UNL     1       9.218  10.346  19.084  0.00  0.00    +0.000 A 
ATOM      2  C   UNL     1       9.393  10.802  20.391  0.00  0.00    +0.000 A 
ATOM      3  C   UNL     1       9.862  12.096  20.633  0.00  0.00    +0.000 A 
ATOM      4  C   UNL     1      10.191  12.970  19.580  0.00  0.00    +0.000 A 
ATOM      5  C   UNL     1      10.054  12.500  18.269  0.00  0.00    +0.000 A 
ATOM      6  C   UNL     1       9.556  11.206  18.033  0.00  0.00    +0.000 A 
ATOM      7  O   UNL     1      10.343  13.188  17.123  0.00  0.00    +0.000 OA
ATOM      8  C   UNL     1      11.529  13.969  17.199  0.00  0.00    +0.000 C 
ATOM      9  C   UNL     1      11.183  15.326  17.725  0.00  0.00    +0.000 A 
ATOM     10  C   UNL     1      11.296  16.458  16.900  0.00  0.00    +0.000 A 
ATOM     11  C   UNL     1      11.007  17.731  17.395  0.00  0.00    +0.000 A 
ATOM     12  C   UNL     1      10.611  17.888  18.719  0.00  0.00    +0.000 A 
ATOM     13  C   UNL     1      10.489  16.770  19.542  0.00  0.00    +0.000 A 
ATOM     14  C   UNL     1      10.755  15.484  19.046  0.00  0.00    +0.000 A 
ATOM     15  C   UNL     1      10.611  14.344  19.984  0.00  0.00    +0.000 C 
ATOM     16  O   UNL     1      10.817  14.571  21.177  0.00  0.00    +0.000 OA
ENDROOT
BRANCH   1  18
ATOM     17  C   UNL     1       7.954   8.660  17.759  0.00  0.00    +0.000 C 
ATOM     18  C   UNL     1       8.765   8.981  18.778  0.00  0.00    +0.000 C 
BRANCH  17  20
ATOM     19  C   UNL     1       7.786   6.297  18.691  0.00  0.00    +0.000 C 
ATOM     20  C   UNL     1       7.546   7.243  17.545  0.00  0.00    +0.000 C 
ATOM     21  O   UNL     1       7.047   6.868  16.488  0.00  0.00    +0.000 OA
ENDBRANCH  17  20
ENDBRANCH   1  18
TORSDOF 2
ENDMDL
MODEL 3
REMARK VINA RESULT:      -7.6      3.926      5.617
REMARK  Name = 
REMARK  3 active torsions:
REMARK  status: ('A' for Active; 'I' for Inactive)
REMARK    1  A    between atoms: C_1  and  C_2
REMARK    2  A    between atoms: C_2  and  C_4
REMARK    3  A    between atoms: C_5  and  C_6
REMARK                            x       y       z     vdW  Elec       q    Type
REMARK                         _______ _______ _______ _____ _____    ______ ____
ROOT
ATOM      1  C   UNL     1       7.564   7.889  17.850  0.00  0.00    +0.000 A 
ATOM      2  C   UNL     1       8.103   6.822  18.569  0.00  0.00    +0.000 A 
ATOM      3  C   UNL     1       7.309   5.722  18.906  0.00  0.00    +0.000 A 
ATOM      4  C   UNL     1       5.948   5.659  18.555  0.00  0.00    +0.000 A 
ATOM      5  C   UNL     1       5.396   6.746  17.869  0.00  0.00    +0.000 A 
ATOM      6  C   UNL     1       6.207   7.838  17.509  0.00  0.00    +0.000 A 
ATOM      7  O   UNL     1       4.096   6.878  17.464  0.00  0.00    +0.000 OA
ATOM      8  C   UNL     1       3.143   6.414  18.412  0.00  0.00    +0.000 C 
ATOM      9  C   UNL     1       2.892   4.960  18.174  0.00  0.00    +0.000 A 
ATOM     10  C   UNL     1       1.640   4.521  17.711  0.00  0.00    +0.000 A 
ATOM     11  C   UNL     1       1.388   3.161  17.519  0.00  0.00    +0.000 A 
ATOM     12  C   UNL     1       2.378   2.225  17.797  0.00  0.00    +0.000 A 
ATOM     13  C   UNL     1       3.625   2.652  18.252  0.00  0.00    +0.000 A 
ATOM     14  C   UNL     1       3.895   4.019  18.423  0.00  0.00    +0.000 A 
ATOM     15  C   UNL     1       5.242   4.395  18.917  0.00  0.00    +0.000 C 
ATOM     16  O   UNL     1       5.820   3.583  19.641  0.00  0.00    +0.000 OA
ENDROOT
BRANCH   1  18
ATOM     17  C   UNL     1       8.723  10.026  18.384  0.00  0.00    +0.000 C 
ATOM     18  C   UNL     1       8.346   9.085  17.506  0.00  0.00    +0.000 C 
BRANCH  17  20
ATOM     19  C   UNL     1       8.736  12.486  17.729  0.00  0.00    +0.000 C 
ATOM     20  C   UNL     1       9.506  11.207  17.926  0.00  0.00    +0.000 C 
ATOM     21  O   UNL     1      10.713  11.139  17.714  0.00  0.00    +0.000 OA
ENDBRANCH  17  20
ENDBRANCH   1  18
TORSDOF 2
ENDMDL
MODEL 4
REMARK VINA RESULT:      -7.5      5.221      7.132
REMARK  Name = 
REMARK  3 active torsions:
REMARK  status: ('A' for Active; 'I' for Inactive)
REMARK    1  A    between atoms: C_1  and  C_2
REMARK    2  A    between atoms: C_2  and  C_4
REMARK    3  A    between atoms: C_5  and  C_6
REMARK                            x       y       z     vdW  Elec       q    Type
REMARK                         _______ _______ _______ _____ _____    ______ ____
ROOT
ATOM      1  C   UNL     1       2.731   7.420  18.534  0.00  0.00    +0.000 A 
ATOM      2  C   UNL     1       2.334   8.352  17.576  0.00  0.00    +0.000 A 
ATOM      3  C   UNL     1       1.453   9.384  17.913  0.00  0.00    +0.000 A 
ATOM      4  C   UNL     1       0.924   9.508  19.211  0.00  0.00    +0.000 A 
ATOM      5  C   UNL     1       1.291   8.550  20.163  0.00  0.00    +0.000 A 
ATOM      6  C   UNL     1       2.198   7.530  19.824  0.00  0.00    +0.000 A 
ATOM      7  O   UNL     1       0.867   8.490  21.462  0.00  0.00    +0.000 OA
ATOM      8  C   UNL     1      -0.512   8.794  21.637  0.00  0.00    +0.000 C 
ATOM      9  C   UNL     1      -0.662  10.268  21.834  0.00  0.00    +0.000 A 
ATOM     10  C   UNL     1      -1.086  10.781  23.072  0.00  0.00    +0.000 A 
ATOM     11  C   UNL     1      -1.261  12.154  23.252  0.00  0.00    +0.000 A 
ATOM     12  C   UNL     1      -1.023  13.029  22.197  0.00  0.00    +0.000 A 
ATOM     13  C   UNL     1      -0.596  12.530  20.967  0.00  0.00    +0.000 A 
ATOM     14  C   UNL     1      -0.394  11.152  20.785  0.00  0.00    +0.000 A 
ATOM     15  C   UNL     1       0.054  10.696  19.447  0.00  0.00    +0.000 C 
ATOM     16  O   UNL     1      -0.291  11.377  18.479  0.00  0.00    +0.000 OA
ENDROOT
BRANCH   1  18
ATOM     17  C   UNL     1       3.962   5.328  19.086  0.00  0.00    +0.000 C 
ATOM     18  C   UNL     1       3.623   6.295  18.220  0.00  0.00    +0.000 C 
BRANCH  17  20
ATOM     19  C   UNL     1       5.051   4.033  17.184  0.00  0.00    +0.000 C 
ATOM     20  C   UNL     1       4.886   4.237  18.667  0.00  0.00    +0.000 C 
ATOM     21  O   UNL     1       5.476   3.540  19.487  0.00  0.00    +0.000 OA
ENDBRANCH  17  20
ENDBRANCH   1  18
TORSDOF 2
ENDMDL
MODEL 5
REMARK VINA RESULT:      -7.3      0.967      1.103
REMARK  Name = 
REMARK  3 active torsions:
REMARK  status: ('A' for Active; 'I' for Inactive)
REMARK    1  A    between atoms: C_1  and  C_2
REMARK    2  A    between atoms: C_2  and  C_4
REMARK    3  A    between atoms: C_5  and  C_6
REMARK                            x       y       z     vdW  Elec       q    Type
REMARK                         _______ _______ _______ _____ _____    ______ ____
ROOT
ATOM      1  C   UNL     1       5.353   5.812  15.769  0.00  0.00    +0.000 A 
ATOM      2  C   UNL     1       4.963   6.941  16.491  0.00  0.00    +0.000 A 
ATOM      3  C   UNL     1       4.104   6.819  17.586  0.00  0.00    +0.000 A 
ATOM      4  C   UNL     1       3.588   5.572  17.985  0.00  0.00    +0.000 A 
ATOM      5  C   UNL     1       3.947   4.445  17.238  0.00  0.00    +0.000 A 
ATOM      6  C   UNL     1       4.833   4.570  16.153  0.00  0.00    +0.000 A 
ATOM      7  O   UNL     1       3.533   3.159  17.455  0.00  0.00    +0.000 OA
ATOM      8  C   UNL     1       2.162   3.044  17.814  0.00  0.00    +0.000 C 
ATOM      9  C   UNL     1       2.039   3.154  19.300  0.00  0.00    +0.000 A 
ATOM     10  C   UNL     1       1.635   2.047  20.065  0.00  0.00    +0.000 A 
ATOM     11  C   UNL     1       1.485   2.153  21.449  0.00  0.00    +0.000 A 
ATOM     12  C   UNL     1       1.729   3.368  22.082  0.00  0.00    +0.000 A 
ATOM     13  C   UNL     1       2.136   4.470  21.332  0.00  0.00    +0.000 A 
ATOM     14  C   UNL     1       2.313   4.364  19.943  0.00  0.00    +0.000 A 
ATOM     15  C   UNL     1       2.741   5.582  19.213  0.00  0.00    +0.000 C 
ATOM     16  O   UNL     1       2.399   6.668  19.685  0.00  0.00    +0.000 OA
ENDROOT
BRANCH   1  18
ATOM     17  C   UNL     1       6.954   4.873  14.111  0.00  0.00    +0.000 C 
ATOM     18  C   UNL     1       6.223   5.892  14.587  0.00  0.00    +0.000 C 
BRANCH  17  20
ATOM     19  C   UNL     1       7.442   4.269  11.687  0.00  0.00    +0.000 C 
ATOM     20  C   UNL     1       7.814   5.065  12.910  0.00  0.00    +0.000 C 
ATOM     21  O   UNL     1       8.775   5.828  12.919  0.00  0.00    +0.000 OA
ENDBRANCH  17  20
ENDBRANCH   1  18
TORSDOF 2
ENDMDL
MODEL 6
REMARK VINA RESULT:      -7.3      4.776      7.017
REMARK  Name = 
REMARK  3 active torsions:
REMARK  status: ('A' for Active; 'I' for Inactive)
REMARK    1  A    between atoms: C_1  and  C_2
REMARK    2  A    between atoms: C_2  and  C_4
REMARK    3  A    between atoms: C_5  and  C_6
REMARK                            x       y       z     vdW  Elec       q    Type
REMARK                         _______ _______ _______ _____ _____    ______ ____
ROOT
ATOM      1  C   UNL     1       2.946   6.362  19.199  0.00  0.00    +0.000 A 
ATOM      2  C   UNL     1       2.882   7.242  18.118  0.00  0.00    +0.000 A 
ATOM      3  C   UNL     1       2.157   8.433  18.216  0.00  0.00    +0.000 A 
ATOM      4  C   UNL     1       1.456   8.776  19.386  0.00  0.00    +0.000 A 
ATOM      5  C   UNL     1       1.486   7.876  20.457  0.00  0.00    +0.000 A 
ATOM      6  C   UNL     1       2.239   6.692  20.362  0.00  0.00    +0.000 A 
ATOM      7  O   UNL     1       0.854   8.022  21.662  0.00  0.00    +0.000 OA
ATOM      8  C   UNL     1      -0.458   8.563  21.565  0.00  0.00    +0.000 C 
ATOM      9  C   UNL     1      -0.372  10.055  21.622  0.00  0.00    +0.000 A 
ATOM     10  C   UNL     1      -0.892  10.756  22.724  0.00  0.00    +0.000 A 
ATOM     11  C   UNL     1      -0.845  12.151  22.767  0.00  0.00    +0.000 A 
ATOM     12  C   UNL     1      -0.288  12.860  21.708  0.00  0.00    +0.000 A 
ATOM     13  C   UNL     1       0.237  12.172  20.615  0.00  0.00    +0.000 A 
ATOM     14  C   UNL     1       0.216  10.769  20.575  0.00  0.00    +0.000 A 
ATOM     15  C   UNL     1       0.786  10.109  19.375  0.00  0.00    +0.000 C 
ATOM     16  O   UNL     1       0.729  10.732  18.313  0.00  0.00    +0.000 OA
ENDROOT
BRANCH   1  18
ATOM     17  C   UNL     1       3.105   3.885  19.381  0.00  0.00    +0.000 C 
ATOM     18  C   UNL     1       3.661   5.080  19.133  0.00  0.00    +0.000 C 
BRANCH  17  20
ATOM     19  C   UNL     1       3.538   1.656  18.229  0.00  0.00    +0.000 C 
ATOM     20  C   UNL     1       3.926   2.645  19.296  0.00  0.00    +0.000 C 
ATOM     21  O   UNL     1       4.865   2.439  20.060  0.00  0.00    +0.000 OA
ENDBRANCH  17  20
ENDBRANCH   1  18
TORSDOF 2
ENDMDL
MODEL 7
REMARK VINA RESULT:      -7.3      5.012      6.701
REMARK  Name = 
REMARK  3 active torsions:
REMARK  status: ('A' for Active; 'I' for Inactive)
REMARK    1  A    between atoms: C_1  and  C_2
REMARK    2  A    between atoms: C_2  and  C_4
REMARK    3  A    between atoms: C_5  and  C_6
REMARK                            x       y       z     vdW  Elec       q    Type
REMARK                         _______ _______ _______ _____ _____    ______ ____
ROOT
ATOM      1  C   UNL     1       2.919   7.178  18.503  0.00  0.00    +0.000 A 
ATOM      2  C   UNL     1       2.561   8.129  17.548  0.00  0.00    +0.000 A 
ATOM      3  C   UNL     1       1.688   9.170  17.878  0.00  0.00    +0.000 A 
ATOM      4  C   UNL     1       1.129   9.284  19.164  0.00  0.00    +0.000 A 
ATOM      5  C   UNL     1       1.457   8.309  20.111  0.00  0.00    +0.000 A 
ATOM      6  C   UNL     1       2.357   7.279  19.781  0.00  0.00    +0.000 A 
ATOM      7  O   UNL     1       1.000   8.238  21.399  0.00  0.00    +0.000 OA
ATOM      8  C   UNL     1      -0.378   8.561  21.544  0.00  0.00    +0.000 C 
ATOM      9  C   UNL     1      -0.510  10.035  21.758  0.00  0.00    +0.000 A 
ATOM     10  C   UNL     1      -0.957  10.537  22.992  0.00  0.00    +0.000 A 
ATOM     11  C   UNL     1      -1.114  11.911  23.186  0.00  0.00    +0.000 A 
ATOM     12  C   UNL     1      -0.837  12.796  22.150  0.00  0.00    +0.000 A 
ATOM     13  C   UNL     1      -0.387  12.306  20.924  0.00  0.00    +0.000 A 
ATOM     14  C   UNL     1      -0.202  10.928  20.728  0.00  0.00    +0.000 A 
ATOM     15  C   UNL     1       0.272  10.483  19.395  0.00  0.00    +0.000 C 
ATOM     16  O   UNL     1      -0.038  11.182  18.428  0.00  0.00    +0.000 OA
ENDROOT
BRANCH   1  18
ATOM     17  C   UNL     1       5.018   6.154  17.640  0.00  0.00    +0.000 C 
ATOM     18  C   UNL     1       3.802   6.043  18.196  0.00  0.00    +0.000 C 
BRANCH  17  20
ATOM     19  C   UNL     1       7.251   4.949  17.850  0.00  0.00    +0.000 C 
ATOM     20  C   UNL     1       5.827   4.935  17.359  0.00  0.00    +0.000 C 
ATOM     21  O   UNL     1       5.359   3.974  16.756  0.00  0.00    +0.000 OA
ENDBRANCH  17  20
ENDBRANCH   1  18
TORSDOF 2
ENDMDL
MODEL 8
REMARK VINA RESULT:      -7.2      4.607      6.216
REMARK  Name = 
REMARK  3 active torsions:
REMARK  status: ('A' for Active; 'I' for Inactive)
REMARK    1  A    between atoms: C_1  and  C_2
REMARK    2  A    between atoms: C_2  and  C_4
REMARK    3  A    between atoms: C_5  and  C_6
REMARK                            x       y       z     vdW  Elec       q    Type
REMARK                         _______ _______ _______ _____ _____    ______ ____
ROOT
ATOM      1  C   UNL     1       3.503   6.485  17.904  0.00  0.00    +0.000 A 
ATOM      2  C   UNL     1       3.051   6.157  19.182  0.00  0.00    +0.000 A 
ATOM      3  C   UNL     1       2.249   7.049  19.900  0.00  0.00    +0.000 A 
ATOM      4  C   UNL     1       1.890   8.304  19.376  0.00  0.00    +0.000 A 
ATOM      5  C   UNL     1       2.377   8.651  18.111  0.00  0.00    +0.000 A 
ATOM      6  C   UNL     1       3.160   7.738  17.382  0.00  0.00    +0.000 A 
ATOM      7  O   UNL     1       2.156   9.827  17.448  0.00  0.00    +0.000 OA
ATOM      8  C   UNL     1       2.206  10.979  18.280  0.00  0.00    +0.000 C 
ATOM      9  C   UNL     1       0.841  11.234  18.837  0.00  0.00    +0.000 A 
ATOM     10  C   UNL     1       0.117  12.374  18.450  0.00  0.00    +0.000 A 
ATOM     11  C   UNL     1      -1.143  12.635  18.992  0.00  0.00    +0.000 A 
ATOM     12  C   UNL     1      -1.689  11.766  19.931  0.00  0.00    +0.000 A 
ATOM     13  C   UNL     1      -0.980  10.629  20.316  0.00  0.00    +0.000 A 
ATOM     14  C   UNL     1       0.277  10.347  19.757  0.00  0.00    +0.000 A 
ATOM     15  C   UNL     1       0.974   9.123  20.222  0.00  0.00    +0.000 C 
ATOM     16  O   UNL     1       0.739   8.747  21.372  0.00  0.00    +0.000 OA
ENDROOT
BRANCH   1  18
ATOM     17  C   UNL     1       5.438   6.011  16.410  0.00  0.00    +0.000 C 
ATOM     18  C   UNL     1       4.380   5.598  17.124  0.00  0.00    +0.000 C 
BRANCH  17  20
ATOM     19  C   UNL     1       5.580   4.366  14.473  0.00  0.00    +0.000 C 
ATOM     20  C   UNL     1       6.254   5.028  15.646  0.00  0.00    +0.000 C 
ATOM     21  O   UNL     1       7.413   4.768  15.958  0.00  0.00    +0.000 OA
ENDBRANCH  17  20
ENDBRANCH   1  18
TORSDOF 2
ENDMDL
MODEL 9
REMARK VINA RESULT:      -7.1      6.185      8.200
REMARK  Name = 
REMARK  3 active torsions:
REMARK  status: ('A' for Active; 'I' for Inactive)
REMARK    1  A    between atoms: C_1  and  C_2
REMARK    2  A    between atoms: C_2  and  C_4
REMARK    3  A    between atoms: C_5  and  C_6
REMARK                            x       y       z     vdW  Elec       q    Type
REMARK                         _______ _______ _______ _____ _____    ______ ____
ROOT
ATOM      1  C   UNL     1       1.871   8.152  19.282  0.00  0.00    +0.000 A 
ATOM      2  C   UNL     1       1.835   7.715  20.607  0.00  0.00    +0.000 A 
ATOM      3  C   UNL     1       1.189   8.474  21.586  0.00  0.00    +0.000 A 
ATOM      4  C   UNL     1       0.577   9.704  21.282  0.00  0.00    +0.000 A 
ATOM      5  C   UNL     1       0.646  10.163  19.962  0.00  0.00    +0.000 A 
ATOM      6  C   UNL     1       1.274   9.381  18.976  0.00  0.00    +0.000 A 
ATOM      7  O   UNL     1       0.134  11.336  19.480  0.00  0.00    +0.000 OA
ATOM      8  C   UNL     1       0.307  12.446  20.352  0.00  0.00    +0.000 C 
ATOM      9  C   UNL     1      -0.860  12.516  21.284  0.00  0.00    +0.000 A 
ATOM     10  C   UNL     1      -1.772  13.583  21.204  0.00  0.00    +0.000 A 
ATOM     11  C   UNL     1      -2.844  13.672  22.093  0.00  0.00    +0.000 A 
ATOM     12  C   UNL     1      -3.013  12.704  23.077  0.00  0.00    +0.000 A 
ATOM     13  C   UNL     1      -2.117  11.638  23.160  0.00  0.00    +0.000 A 
ATOM     14  C   UNL     1      -1.051  11.528  22.254  0.00  0.00    +0.000 A 
ATOM     15  C   UNL     1      -0.135  10.371  22.410  0.00  0.00    +0.000 C 
ATOM     16  O   UNL     1       0.005   9.918  23.547  0.00  0.00    +0.000 OA
ENDROOT
BRANCH   1  18
ATOM     17  C   UNL     1       3.363   6.348  18.435  0.00  0.00    +0.000 C 
ATOM     18  C   UNL     1       2.570   7.410  18.224  0.00  0.00    +0.000 C 
BRANCH  17  20
ATOM     19  C   UNL     1       4.910   6.540  16.424  0.00  0.00    +0.000 C 
ATOM     20  C   UNL     1       4.034   5.674  17.289  0.00  0.00    +0.000 C 
ATOM     21  O   UNL     1       3.876   4.479  17.060  0.00  0.00    +0.000 OA
ENDBRANCH  17  20
ENDBRANCH   1  18
TORSDOF 2
ENDMDL
