MODEL 1
REMARK VINA RESULT:      -8.3      0.000      0.000
REMARK  Name = 
REMARK  7 active torsions:
REMARK  status: ('A' for Active; 'I' for Inactive)
REMARK    1  A    between atoms: C_1  and  C_2
REMARK    2  A    between atoms: C_2  and  C_3
REMARK    3  A    between atoms: C_3  and  C_4
REMARK    4  A    between atoms: C_6  and  C_7
REMARK    5  A    between atoms: C_9  and  C_10
REMARK    6  A    between atoms: C_15  and  C_16
REMARK    7  A    between atoms: C_22  and  C_23
REMARK                            x       y       z     vdW  Elec       q    Type
REMARK                         _______ _______ _______ _____ _____    ______ ____
ROOT
ATOM      1  C   UNL     1       3.594   5.648  18.671  0.00  0.00    +0.000 A 
ATOM      2  C   UNL     1       2.990   6.798  19.213  0.00  0.00    +0.000 A 
ATOM      3  C   UNL     1       1.903   6.723  20.098  0.00  0.00    +0.000 A 
ATOM      4  C   UNL     1       1.369   5.465  20.406  0.00  0.00    +0.000 A 
ATOM      5  C   UNL     1       1.915   4.297  19.854  0.00  0.00    +0.000 A 
ATOM      6  C   UNL     1       3.018   4.404  18.985  0.00  0.00    +0.000 A 
ENDROOT
BRANCH   1   9
ATOM      7  C   UNL     1       6.263   5.023  16.120  0.00  0.00    +0.000 A 
ATOM      8  C   UNL     1       5.112   4.834  16.856  0.00  0.00    +0.000 A 
ATOM      9  C   UNL     1       4.833   5.741  17.868  0.00  0.00    +0.000 A 
ATOM     10  N   UNL     1       5.646   6.784  18.128  0.00  0.00    +0.000 NA
ATOM     11  C   UNL     1       6.749   6.885  17.360  0.00  0.00    +0.000 A 
ATOM     12  N   UNL     1       7.097   6.053  16.360  0.00  0.00    +0.000 NA
BRANCH  11  13
ATOM     13  C   UNL     1       7.627   7.995  17.616  0.00  0.00    +0.000 C 
ATOM     14  N   UNL     1       8.337   8.897  17.823  0.00  0.00    +0.000 NA
ENDBRANCH  11  13
BRANCH   7  15
ATOM     15  C   UNL     1       6.594   4.093  14.980  0.00  0.00    +0.000 C 
BRANCH  15  17
ATOM     16  C   UNL     1       6.034   3.484  12.605  0.00  0.00    +0.000 C 
ATOM     17  C   UNL     1       5.527   4.127  13.886  0.00  0.00    +0.000 C 
ENDBRANCH  15  17
ENDBRANCH   7  15
ENDBRANCH   1   9
BRANCH   3  18
ATOM     18  C   UNL     1       1.359   7.972  20.751  0.00  0.00    +0.000 C 
ATOM     19  F   UNL     1       2.127   8.418  21.785  0.00  0.00    +0.000 F 
ATOM     20  F   UNL     1       1.247   9.014  19.886  0.00  0.00    +0.000 F 
ATOM     21  F   UNL     1       0.117   7.775  21.273  0.00  0.00    +0.000 F 
ENDBRANCH   3  18
BRANCH   5  22
ATOM     22  C   UNL     1       1.373   2.933  20.219  0.00  0.00    +0.000 C 
ATOM     23  F   UNL     1       2.240   1.919  19.945  0.00  0.00    +0.000 F 
ATOM     24  F   UNL     1       1.071   2.823  21.539  0.00  0.00    +0.000 F 
ATOM     25  F   UNL     1       0.230   2.637  19.541  0.00  0.00    +0.000 F 
ENDBRANCH   5  22
TORSDOF 6
ENDMDL
MODEL 2
REMARK VINA RESULT:      -8.2      0.726      1.140
REMARK  Name = 
REMARK  7 active torsions:
REMARK  status: ('A' for Active; 'I' for Inactive)
REMARK    1  A    between atoms: C_1  and  C_2
REMARK    2  A    between atoms: C_2  and  C_3
REMARK    3  A    between atoms: C_3  and  C_4
REMARK    4  A    between atoms: C_6  and  C_7
REMARK    5  A    between atoms: C_9  and  C_10
REMARK    6  A    between atoms: C_15  and  C_16
REMARK    7  A    between atoms: C_22  and  C_23
REMARK                            x       y       z     vdW  Elec       q    Type
REMARK                         _______ _______ _______ _____ _____    ______ ____
ROOT
ATOM      1  C   UNL     1       3.380   5.492  18.825  0.00  0.00    +0.000 A 
ATOM      2  C   UNL     1       2.695   6.628  19.298  0.00  0.00    +0.000 A 
ATOM      3  C   UNL     1       1.789   6.561  20.368  0.00  0.00    +0.000 A 
ATOM      4  C   UNL     1       1.519   5.313  20.947  0.00  0.00    +0.000 A 
ATOM      5  C   UNL     1       2.150   4.151  20.478  0.00  0.00    +0.000 A 
ATOM      6  C   UNL     1       3.068   4.254  19.416  0.00  0.00    +0.000 A 
ENDROOT
BRANCH   1   9
ATOM      7  C   UNL     1       5.428   5.054  15.722  0.00  0.00    +0.000 A 
ATOM      8  C   UNL     1       4.427   4.844  16.648  0.00  0.00    +0.000 A 
ATOM      9  C   UNL     1       4.443   5.611  17.804  0.00  0.00    +0.000 A 
ATOM     10  N   UNL     1       5.393   6.542  18.023  0.00  0.00    +0.000 NA
ATOM     11  C   UNL     1       6.330   6.673  17.065  0.00  0.00    +0.000 A 
ATOM     12  N   UNL     1       6.392   5.973  15.916  0.00  0.00    +0.000 NA
BRANCH  11  13
ATOM     13  C   UNL     1       7.350   7.666  17.276  0.00  0.00    +0.000 C 
ATOM     14  N   UNL     1       8.175   8.471  17.450  0.00  0.00    +0.000 NA
ENDBRANCH  11  13
BRANCH   7  15
ATOM     15  C   UNL     1       5.436   4.279  14.427  0.00  0.00    +0.000 C 
BRANCH  15  17
ATOM     16  C   UNL     1       6.712   3.742  12.328  0.00  0.00    +0.000 C 
ATOM     17  C   UNL     1       6.775   4.396  13.700  0.00  0.00    +0.000 C 
ENDBRANCH  15  17
ENDBRANCH   7  15
ENDBRANCH   1   9
BRANCH   3  18
ATOM     18  C   UNL     1       1.164   7.819  20.923  0.00  0.00    +0.000 C 
ATOM     19  F   UNL     1      -0.114   7.639  21.359  0.00  0.00    +0.000 F 
ATOM     20  F   UNL     1       1.854   8.332  21.976  0.00  0.00    +0.000 F 
ATOM     21  F   UNL     1       1.100   8.811  19.992  0.00  0.00    +0.000 F 
ENDBRANCH   3  18
BRANCH   5  22
ATOM     22  C   UNL     1       1.898   2.810  21.129  0.00  0.00    +0.000 C 
ATOM     23  F   UNL     1       2.939   2.380  21.895  0.00  0.00    +0.000 F 
ATOM     24  F   UNL     1       0.809   2.816  21.942  0.00  0.00    +0.000 F 
ATOM     25  F   UNL     1       1.682   1.827  20.212  0.00  0.00    +0.000 F 
ENDBRANCH   5  22
TORSDOF 6
ENDMDL
MODEL 3
REMARK VINA RESULT:      -8.2      0.284      1.121
REMARK  Name = 
REMARK  7 active torsions:
REMARK  status: ('A' for Active; 'I' for Inactive)
REMARK    1  A    between atoms: C_1  and  C_2
REMARK    2  A    between atoms: C_2  and  C_3
REMARK    3  A    between atoms: C_3  and  C_4
REMARK    4  A    between atoms: C_6  and  C_7
REMARK    5  A    between atoms: C_9  and  C_10
REMARK    6  A    between atoms: C_15  and  C_16
REMARK    7  A    between atoms: C_22  and  C_23
REMARK                            x       y       z     vdW  Elec       q    Type
REMARK                         _______ _______ _______ _____ _____    ______ ____
ROOT
ATOM      1  C   UNL     1       3.648   5.651  18.447  0.00  0.00    +0.000 A 
ATOM      2  C   UNL     1       3.020   6.763  19.037  0.00  0.00    +0.000 A 
ATOM      3  C   UNL     1       1.919   6.630  19.898  0.00  0.00    +0.000 A 
ATOM      4  C   UNL     1       1.397   5.350  20.132  0.00  0.00    +0.000 A 
ATOM      5  C   UNL     1       1.968   4.219  19.530  0.00  0.00    +0.000 A 
ATOM      6  C   UNL     1       3.084   4.385  18.686  0.00  0.00    +0.000 A 
ENDROOT
BRANCH   1   9
ATOM      7  C   UNL     1       6.354   5.211  15.896  0.00  0.00    +0.000 A 
ATOM      8  C   UNL     1       5.191   4.970  16.599  0.00  0.00    +0.000 A 
ATOM      9  C   UNL     1       4.898   5.801  17.670  0.00  0.00    +0.000 A 
ATOM     10  N   UNL     1       5.708   6.821  18.017  0.00  0.00    +0.000 NA
ATOM     11  C   UNL     1       6.821   6.977  17.275  0.00  0.00    +0.000 A 
ATOM     12  N   UNL     1       7.183   6.219  16.222  0.00  0.00    +0.000 NA
BRANCH  11  13
ATOM     13  C   UNL     1       7.695   8.064  17.625  0.00  0.00    +0.000 C 
ATOM     14  N   UNL     1       8.406   8.945  17.907  0.00  0.00    +0.000 NA
ENDBRANCH  11  13
BRANCH   7  15
ATOM     15  C   UNL     1       6.701   4.366  14.695  0.00  0.00    +0.000 C 
BRANCH  15  17
ATOM     16  C   UNL     1       5.862   3.446  12.511  0.00  0.00    +0.000 C 
ATOM     17  C   UNL     1       5.467   4.023  13.862  0.00  0.00    +0.000 C 
ENDBRANCH  15  17
ENDBRANCH   7  15
ENDBRANCH   1   9
BRANCH   3  18
ATOM     18  C   UNL     1       1.348   7.836  20.605  0.00  0.00    +0.000 C 
ATOM     19  F   UNL     1       1.140   8.898  19.777  0.00  0.00    +0.000 F 
ATOM     20  F   UNL     1       0.154   7.582  21.202  0.00  0.00    +0.000 F 
ATOM     21  F   UNL     1       2.174   8.291  21.587  0.00  0.00    +0.000 F 
ENDBRANCH   3  18
BRANCH   5  22
ATOM     22  C   UNL     1       1.439   2.832  19.814  0.00  0.00    +0.000 C 
ATOM     23  F   UNL     1       1.031   2.665  21.103  0.00  0.00    +0.000 F 
ATOM     24  F   UNL     1       0.372   2.506  19.037  0.00  0.00    +0.000 F 
ATOM     25  F   UNL     1       2.376   1.869  19.595  0.00  0.00    +0.000 F 
ENDBRANCH   5  22
TORSDOF 6
ENDMDL
MODEL 4
REMARK VINA RESULT:      -8.2      1.074      3.284
REMARK  Name = 
REMARK  7 active torsions:
REMARK  status: ('A' for Active; 'I' for Inactive)
REMARK    1  A    between atoms: C_1  and  C_2
REMARK    2  A    between atoms: C_2  and  C_3
REMARK    3  A    between atoms: C_3  and  C_4
REMARK    4  A    between atoms: C_6  and  C_7
REMARK    5  A    between atoms: C_9  and  C_10
REMARK    6  A    between atoms: C_15  and  C_16
REMARK    7  A    between atoms: C_22  and  C_23
REMARK                            x       y       z     vdW  Elec       q    Type
REMARK                         _______ _______ _______ _____ _____    ______ ____
ROOT
ATOM      1  C   UNL     1       3.471   5.734  18.618  0.00  0.00    +0.000 A 
ATOM      2  C   UNL     1       2.873   6.861  19.214  0.00  0.00    +0.000 A 
ATOM      3  C   UNL     1       1.810   6.748  20.123  0.00  0.00    +0.000 A 
ATOM      4  C   UNL     1       1.293   5.475  20.403  0.00  0.00    +0.000 A 
ATOM      5  C   UNL     1       1.834   4.331  19.798  0.00  0.00    +0.000 A 
ATOM      6  C   UNL     1       2.913   4.476  18.906  0.00  0.00    +0.000 A 
ENDROOT
BRANCH   1   9
ATOM      7  C   UNL     1       6.879   6.671  17.379  0.00  0.00    +0.000 A 
ATOM      8  C   UNL     1       5.762   6.645  18.189  0.00  0.00    +0.000 A 
ATOM      9  C   UNL     1       4.688   5.865  17.787  0.00  0.00    +0.000 A 
ATOM     10  N   UNL     1       4.725   5.142  16.650  0.00  0.00    +0.000 NA
ATOM     11  C   UNL     1       5.855   5.232  15.923  0.00  0.00    +0.000 A 
ATOM     12  N   UNL     1       6.942   5.963  16.237  0.00  0.00    +0.000 NA
BRANCH  11  13
ATOM     13  C   UNL     1       5.918   4.463  14.709  0.00  0.00    +0.000 C 
ATOM     14  N   UNL     1       5.970   3.840  13.725  0.00  0.00    +0.000 NA
ENDBRANCH  11  13
BRANCH   7  15
ATOM     15  C   UNL     1       8.092   7.468  17.789  0.00  0.00    +0.000 C 
BRANCH  15  17
ATOM     16  C   UNL     1       8.834   9.735  18.583  0.00  0.00    +0.000 C 
ATOM     17  C   UNL     1       7.836   8.973  17.726  0.00  0.00    +0.000 C 
ENDBRANCH  15  17
ENDBRANCH   7  15
ENDBRANCH   1   9
BRANCH   3  18
ATOM     18  C   UNL     1       1.274   7.970  20.831  0.00  0.00    +0.000 C 
ATOM     19  F   UNL     1       1.248   9.081  20.044  0.00  0.00    +0.000 F 
ATOM     20  F   UNL     1       0.005   7.801  21.289  0.00  0.00    +0.000 F 
ATOM     21  F   UNL     1       2.027   8.303  21.915  0.00  0.00    +0.000 F 
ENDBRANCH   3  18
BRANCH   5  22
ATOM     22  C   UNL     1       1.312   2.952  20.131  0.00  0.00    +0.000 C 
ATOM     23  F   UNL     1       0.933   2.819  21.432  0.00  0.00    +0.000 F 
ATOM     24  F   UNL     1       0.229   2.605  19.387  0.00  0.00    +0.000 F 
ATOM     25  F   UNL     1       2.245   1.983  19.916  0.00  0.00    +0.000 F 
ENDBRANCH   5  22
TORSDOF 6
ENDMDL
MODEL 5
REMARK VINA RESULT:      -8.1      1.070      3.194
REMARK  Name = 
REMARK  7 active torsions:
REMARK  status: ('A' for Active; 'I' for Inactive)
REMARK    1  A    between atoms: C_1  and  C_2
REMARK    2  A    between atoms: C_2  and  C_3
REMARK    3  A    between atoms: C_3  and  C_4
REMARK    4  A    between atoms: C_6  and  C_7
REMARK    5  A    between atoms: C_9  and  C_10
REMARK    6  A    between atoms: C_15  and  C_16
REMARK    7  A    between atoms: C_22  and  C_23
REMARK                            x       y       z     vdW  Elec       q    Type
REMARK                         _______ _______ _______ _____ _____    ______ ____
ROOT
ATOM      1  C   UNL     1       3.492   5.741  18.612  0.00  0.00    +0.000 A 
ATOM      2  C   UNL     1       2.891   6.868  19.204  0.00  0.00    +0.000 A 
ATOM      3  C   UNL     1       1.825   6.755  20.110  0.00  0.00    +0.000 A 
ATOM      4  C   UNL     1       1.309   5.482  20.390  0.00  0.00    +0.000 A 
ATOM      5  C   UNL     1       1.853   4.337  19.789  0.00  0.00    +0.000 A 
ATOM      6  C   UNL     1       2.935   4.482  18.899  0.00  0.00    +0.000 A 
ENDROOT
BRANCH   1   9
ATOM      7  C   UNL     1       6.901   6.681  17.380  0.00  0.00    +0.000 A 
ATOM      8  C   UNL     1       5.782   6.656  18.187  0.00  0.00    +0.000 A 
ATOM      9  C   UNL     1       4.711   5.871  17.784  0.00  0.00    +0.000 A 
ATOM     10  N   UNL     1       4.753   5.145  16.649  0.00  0.00    +0.000 NA
ATOM     11  C   UNL     1       5.886   5.236  15.925  0.00  0.00    +0.000 A 
ATOM     12  N   UNL     1       6.970   5.970  16.240  0.00  0.00    +0.000 NA
BRANCH  11  13
ATOM     13  C   UNL     1       5.953   4.463  14.714  0.00  0.00    +0.000 C 
ATOM     14  N   UNL     1       6.006   3.836  13.732  0.00  0.00    +0.000 NA
ENDBRANCH  11  13
BRANCH   7  15
ATOM     15  C   UNL     1       8.112   7.482  17.791  0.00  0.00    +0.000 C 
BRANCH  15  17
ATOM     16  C   UNL     1       8.845   9.752  18.586  0.00  0.00    +0.000 C 
ATOM     17  C   UNL     1       7.851   8.986  17.727  0.00  0.00    +0.000 C 
ENDBRANCH  15  17
ENDBRANCH   7  15
ENDBRANCH   1   9
BRANCH   3  18
ATOM     18  C   UNL     1       1.286   7.977  20.815  0.00  0.00    +0.000 C 
ATOM     19  F   UNL     1       2.044   8.365  21.879  0.00  0.00    +0.000 F 
ATOM     20  F   UNL     1       1.196   9.060  20.000  0.00  0.00    +0.000 F 
ATOM     21  F   UNL     1       0.034   7.769  21.311  0.00  0.00    +0.000 F 
ENDBRANCH   3  18
BRANCH   5  22
ATOM     22  C   UNL     1       1.332   2.958  20.122  0.00  0.00    +0.000 C 
ATOM     23  F   UNL     1       0.252   2.596  19.375  0.00  0.00    +0.000 F 
ATOM     24  F   UNL     1       2.262   1.984  19.935  0.00  0.00    +0.000 F 
ATOM     25  F   UNL     1       0.934   2.859  21.421  0.00  0.00    +0.000 F 
ENDBRANCH   5  22
TORSDOF 6
ENDMDL
MODEL 6
REMARK VINA RESULT:      -8.1      0.409      3.535
REMARK  Name = 
REMARK  7 active torsions:
REMARK  status: ('A' for Active; 'I' for Inactive)
REMARK    1  A    between atoms: C_1  and  C_2
REMARK    2  A    between atoms: C_2  and  C_3
REMARK    3  A    between atoms: C_3  and  C_4
REMARK    4  A    between atoms: C_6  and  C_7
REMARK    5  A    between atoms: C_9  and  C_10
REMARK    6  A    between atoms: C_15  and  C_16
REMARK    7  A    between atoms: C_22  and  C_23
REMARK                            x       y       z     vdW  Elec       q    Type
REMARK                         _______ _______ _______ _____ _____    ______ ____
ROOT
ATOM      1  C   UNL     1       3.582   5.463  18.950  0.00  0.00    +0.000 A 
ATOM      2  C   UNL     1       2.997   4.233  19.307  0.00  0.00    +0.000 A 
ATOM      3  C   UNL     1       1.841   4.159  20.100  0.00  0.00    +0.000 A 
ATOM      4  C   UNL     1       1.285   5.346  20.596  0.00  0.00    +0.000 A 
ATOM      5  C   UNL     1       1.861   6.589  20.297  0.00  0.00    +0.000 A 
ATOM      6  C   UNL     1       3.010   6.632  19.484  0.00  0.00    +0.000 A 
ENDROOT
BRANCH   1   9
ATOM      7  C   UNL     1       5.896   4.742  16.097  0.00  0.00    +0.000 A 
ATOM      8  C   UNL     1       4.852   4.581  16.983  0.00  0.00    +0.000 A 
ATOM      9  C   UNL     1       4.704   5.525  17.989  0.00  0.00    +0.000 A 
ATOM     10  N   UNL     1       5.541   6.576  18.102  0.00  0.00    +0.000 NA
ATOM     11  C   UNL     1       6.533   6.647  17.194  0.00  0.00    +0.000 A 
ATOM     12  N   UNL     1       6.750   5.779  16.187  0.00  0.00    +0.000 NA
BRANCH  11  13
ATOM     13  C   UNL     1       7.434   7.765  17.293  0.00  0.00    +0.000 C 
ATOM     14  N   UNL     1       8.162   8.672  17.372  0.00  0.00    +0.000 NA
ENDBRANCH  11  13
BRANCH   7  15
ATOM     15  C   UNL     1       6.078   3.771  14.957  0.00  0.00    +0.000 C 
BRANCH  15  17
ATOM     16  C   UNL     1       6.328   3.628  12.459  0.00  0.00    +0.000 C 
ATOM     17  C   UNL     1       6.615   4.457  13.701  0.00  0.00    +0.000 C 
ENDBRANCH  15  17
ENDBRANCH   7  15
ENDBRANCH   1   9
BRANCH   3  18
ATOM     18  C   UNL     1       1.176   2.828  20.362  0.00  0.00    +0.000 C 
ATOM     19  F   UNL     1       0.004   2.669  19.686  0.00  0.00    +0.000 F 
ATOM     20  F   UNL     1       1.957   1.770  20.019  0.00  0.00    +0.000 F 
ATOM     21  F   UNL     1       0.868   2.662  21.678  0.00  0.00    +0.000 F 
ENDBRANCH   3  18
BRANCH   5  22
ATOM     22  C   UNL     1       1.240   7.876  20.791  0.00  0.00    +0.000 C 
ATOM     23  F   UNL     1      -0.030   7.717  21.255  0.00  0.00    +0.000 F 
ATOM     24  F   UNL     1       1.944   8.445  21.805  0.00  0.00    +0.000 F 
ATOM     25  F   UNL     1       1.161   8.818  19.810  0.00  0.00    +0.000 F 
ENDBRANCH   5  22
TORSDOF 6
ENDMDL
MODEL 7
REMARK VINA RESULT:      -8.1      0.495      3.537
REMARK  Name = 
REMARK  7 active torsions:
REMARK  status: ('A' for Active; 'I' for Inactive)
REMARK    1  A    between atoms: C_1  and  C_2
REMARK    2  A    between atoms: C_2  and  C_3
REMARK    3  A    between atoms: C_3  and  C_4
REMARK    4  A    between atoms: C_6  and  C_7
REMARK    5  A    between atoms: C_9  and  C_10
REMARK    6  A    between atoms: C_15  and  C_16
REMARK    7  A    between atoms: C_22  and  C_23
REMARK                            x       y       z     vdW  Elec       q    Type
REMARK                         _______ _______ _______ _____ _____    ______ ____
ROOT
ATOM      1  C   UNL     1       3.486   5.529  18.907  0.00  0.00    +0.000 A 
ATOM      2  C   UNL     1       2.936   4.288  19.279  0.00  0.00    +0.000 A 
ATOM      3  C   UNL     1       1.821   4.190  20.126  0.00  0.00    +0.000 A 
ATOM      4  C   UNL     1       1.275   5.364  20.662  0.00  0.00    +0.000 A 
ATOM      5  C   UNL     1       1.819   6.619  20.348  0.00  0.00    +0.000 A 
ATOM      6  C   UNL     1       2.925   6.685  19.480  0.00  0.00    +0.000 A 
ENDROOT
BRANCH   1   9
ATOM      7  C   UNL     1       5.588   4.963  15.861  0.00  0.00    +0.000 A 
ATOM      8  C   UNL     1       4.581   4.781  16.786  0.00  0.00    +0.000 A 
ATOM      9  C   UNL     1       4.559   5.616  17.893  0.00  0.00    +0.000 A 
ATOM     10  N   UNL     1       5.480   6.586  18.066  0.00  0.00    +0.000 NA
ATOM     11  C   UNL     1       6.426   6.686  17.113  0.00  0.00    +0.000 A 
ATOM     12  N   UNL     1       6.523   5.920  16.010  0.00  0.00    +0.000 NA
BRANCH  11  13
ATOM     13  C   UNL     1       7.414   7.719  17.276  0.00  0.00    +0.000 C 
ATOM     14  N   UNL     1       8.216   8.555  17.410  0.00  0.00    +0.000 NA
ENDBRANCH  11  13
BRANCH   7  15
ATOM     15  C   UNL     1       5.636   4.112  14.616  0.00  0.00    +0.000 C 
BRANCH  15  17
ATOM     16  C   UNL     1       6.691   3.789  12.357  0.00  0.00    +0.000 C 
ATOM     17  C   UNL     1       6.775   4.525  13.684  0.00  0.00    +0.000 C 
ENDBRANCH  15  17
ENDBRANCH   7  15
ENDBRANCH   1   9
BRANCH   3  18
ATOM     18  C   UNL     1       1.187   2.848  20.407  0.00  0.00    +0.000 C 
ATOM     19  F   UNL     1       0.849   2.674  21.715  0.00  0.00    +0.000 F 
ATOM     20  F   UNL     1       0.051   2.640  19.692  0.00  0.00    +0.000 F 
ATOM     21  F   UNL     1       2.022   1.815  20.102  0.00  0.00    +0.000 F 
ENDBRANCH   3  18
BRANCH   5  22
ATOM     22  C   UNL     1       1.206   7.892  20.885  0.00  0.00    +0.000 C 
ATOM     23  F   UNL     1       1.889   8.415  21.940  0.00  0.00    +0.000 F 
ATOM     24  F   UNL     1       1.141   8.878  19.952  0.00  0.00    +0.000 F 
ATOM     25  F   UNL     1      -0.068   7.702  21.326  0.00  0.00    +0.000 F 
ENDBRANCH   5  22
TORSDOF 6
ENDMDL
MODEL 8
REMARK VINA RESULT:      -8.1      0.452      1.161
REMARK  Name = 
REMARK  7 active torsions:
REMARK  status: ('A' for Active; 'I' for Inactive)
REMARK    1  A    between atoms: C_1  and  C_2
REMARK    2  A    between atoms: C_2  and  C_3
REMARK    3  A    between atoms: C_3  and  C_4
REMARK    4  A    between atoms: C_6  and  C_7
REMARK    5  A    between atoms: C_9  and  C_10
REMARK    6  A    between atoms: C_15  and  C_16
REMARK    7  A    between atoms: C_22  and  C_23
REMARK                            x       y       z     vdW  Elec       q    Type
REMARK                         _______ _______ _______ _____ _____    ______ ____
ROOT
ATOM      1  C   UNL     1       3.391   5.529  18.625  0.00  0.00    +0.000 A 
ATOM      2  C   UNL     1       2.842   6.690  19.203  0.00  0.00    +0.000 A 
ATOM      3  C   UNL     1       1.804   6.634  20.146  0.00  0.00    +0.000 A 
ATOM      4  C   UNL     1       1.261   5.385  20.478  0.00  0.00    +0.000 A 
ATOM      5  C   UNL     1       1.751   4.209  19.893  0.00  0.00    +0.000 A 
ATOM      6  C   UNL     1       2.807   4.296  18.966  0.00  0.00    +0.000 A 
ENDROOT
BRANCH   1   9
ATOM      7  C   UNL     1       5.885   4.885  15.907  0.00  0.00    +0.000 A 
ATOM      8  C   UNL     1       4.770   4.716  16.702  0.00  0.00    +0.000 A 
ATOM      9  C   UNL     1       4.585   5.600  17.755  0.00  0.00    +0.000 A 
ATOM     10  N   UNL     1       5.455   6.601  18.000  0.00  0.00    +0.000 NA
ATOM     11  C   UNL     1       6.515   6.684  17.173  0.00  0.00    +0.000 A 
ATOM     12  N   UNL     1       6.772   5.872  16.130  0.00  0.00    +0.000 NA
BRANCH  11  13
ATOM     13  C   UNL     1       7.451   7.750  17.413  0.00  0.00    +0.000 C 
ATOM     14  N   UNL     1       8.210   8.615  17.605  0.00  0.00    +0.000 NA
ENDBRANCH  11  13
BRANCH   7  15
ATOM     15  C   UNL     1       6.113   3.980  14.721  0.00  0.00    +0.000 C 
BRANCH  15  17
ATOM     16  C   UNL     1       6.774   3.946  12.296  0.00  0.00    +0.000 C 
ATOM     17  C   UNL     1       6.926   4.668  13.626  0.00  0.00    +0.000 C 
ENDBRANCH  15  17
ENDBRANCH   7  15
ENDBRANCH   1   9
BRANCH   3  18
ATOM     18  C   UNL     1       1.323   7.891  20.832  0.00  0.00    +0.000 C 
ATOM     19  F   UNL     1       0.033   7.810  21.263  0.00  0.00    +0.000 F 
ATOM     20  F   UNL     1       2.066   8.215  21.922  0.00  0.00    +0.000 F 
ATOM     21  F   UNL     1       1.369   8.972  20.006  0.00  0.00    +0.000 F 
ENDBRANCH   3  18
BRANCH   5  22
ATOM     22  C   UNL     1       1.201   2.855  20.282  0.00  0.00    +0.000 C 
ATOM     23  F   UNL     1       0.100   2.496  19.567  0.00  0.00    +0.000 F 
ATOM     24  F   UNL     1       2.103   1.852  20.113  0.00  0.00    +0.000 F 
ATOM     25  F   UNL     1       0.825   2.810  21.590  0.00  0.00    +0.000 F 
ENDBRANCH   5  22
TORSDOF 6
ENDMDL
MODEL 9
REMARK VINA RESULT:      -8.0      1.110      4.680
REMARK  Name = 
REMARK  7 active torsions:
REMARK  status: ('A' for Active; 'I' for Inactive)
REMARK    1  A    between atoms: C_1  and  C_2
REMARK    2  A    between atoms: C_2  and  C_3
REMARK    3  A    between atoms: C_3  and  C_4
REMARK    4  A    between atoms: C_6  and  C_7
REMARK    5  A    between atoms: C_9  and  C_10
REMARK    6  A    between atoms: C_15  and  C_16
REMARK    7  A    between atoms: C_22  and  C_23
REMARK                            x       y       z     vdW  Elec       q    Type
REMARK                         _______ _______ _______ _____ _____    ______ ____
ROOT
ATOM      1  C   UNL     1       3.552   5.660  18.887  0.00  0.00    +0.000 A 
ATOM      2  C   UNL     1       3.021   4.385  19.162  0.00  0.00    +0.000 A 
ATOM      3  C   UNL     1       1.875   4.210  19.953  0.00  0.00    +0.000 A 
ATOM      4  C   UNL     1       1.274   5.336  20.531  0.00  0.00    +0.000 A 
ATOM      5  C   UNL     1       1.796   6.620  20.315  0.00  0.00    +0.000 A 
ATOM      6  C   UNL     1       2.936   6.765  19.501  0.00  0.00    +0.000 A 
ENDROOT
BRANCH   1   9
ATOM      7  C   UNL     1       6.785   6.685  17.300  0.00  0.00    +0.000 A 
ATOM      8  C   UNL     1       5.768   6.618  18.230  0.00  0.00    +0.000 A 
ATOM      9  C   UNL     1       4.665   5.834  17.928  0.00  0.00    +0.000 A 
ATOM     10  N   UNL     1       4.580   5.146  16.771  0.00  0.00    +0.000 NA
ATOM     11  C   UNL     1       5.620   5.275  15.924  0.00  0.00    +0.000 A 
ATOM     12  N   UNL     1       6.727   6.013  16.136  0.00  0.00    +0.000 NA
BRANCH  11  13
ATOM     13  C   UNL     1       5.552   4.544  14.687  0.00  0.00    +0.000 C 
ATOM     14  N   UNL     1       5.497   3.949  13.686  0.00  0.00    +0.000 NA
ENDBRANCH  11  13
BRANCH   7  15
ATOM     15  C   UNL     1       8.028   7.488  17.595  0.00  0.00    +0.000 C 
BRANCH  15  17
ATOM     16  C   UNL     1       8.793   9.699  18.515  0.00  0.00    +0.000 C 
ATOM     17  C   UNL     1       7.732   8.984  17.694  0.00  0.00    +0.000 C 
ENDBRANCH  15  17
ENDBRANCH   7  15
ENDBRANCH   1   9
BRANCH   3  18
ATOM     18  C   UNL     1       1.267   2.838  20.127  0.00  0.00    +0.000 C 
ATOM     19  F   UNL     1       2.109   1.826  19.775  0.00  0.00    +0.000 F 
ATOM     20  F   UNL     1       0.888   2.586  21.407  0.00  0.00    +0.000 F 
ATOM     21  F   UNL     1       0.152   2.672  19.362  0.00  0.00    +0.000 F 
ENDBRANCH   3  18
BRANCH   5  22
ATOM     22  C   UNL     1       1.126   7.844  20.897  0.00  0.00    +0.000 C 
ATOM     23  F   UNL     1      -0.147   7.610  21.320  0.00  0.00    +0.000 F 
ATOM     24  F   UNL     1       1.792   8.349  21.969  0.00  0.00    +0.000 F 
ATOM     25  F   UNL     1       1.036   8.859  19.994  0.00  0.00    +0.000 F 
ENDBRANCH   5  22
TORSDOF 6
ENDMDL
