MODEL 1
REMARK VINA RESULT:      -8.4      0.000      0.000
REMARK  Name = 
REMARK  5 active torsions:
REMARK  status: ('A' for Active; 'I' for Inactive)
REMARK    1  A    between atoms: C_1  and  C_2
REMARK    2  A    between atoms: C_4  and  C_5
REMARK    3  A    between atoms: C_9  and  C_10
REMARK    4  A    between atoms: C_10  and  N_11
REMARK    5  A    between atoms: N_20  and  C_21
REMARK                            x       y       z     vdW  Elec       q    Type
REMARK                         _______ _______ _______ _____ _____    ______ ____
ROOT
ATOM      1  C   UNL     1       7.101   4.618  16.924  0.00  0.00    +0.000 C 
ATOM      2  O   UNL     1       8.094   4.139  17.474  0.00  0.00    +0.000 OA
ATOM      3  N   UNL     1       6.111   5.272  17.637  0.00  0.00    +0.000 N 
ATOM      4  C   UNL     1       6.109   5.543  19.064  0.00  0.00    +0.000 C 
ATOM      5  C   UNL     1       4.688   4.970  19.121  0.00  0.00    +0.000 C 
ATOM      6  C   UNL     1       4.683   4.970  17.579  0.00  0.00    +0.000 C 
ENDROOT
BRANCH   1  10
ATOM      7  C   UNL     1       5.941   3.326  12.134  0.00  0.00    +0.000 C 
ATOM      8  C   UNL     1       6.413   3.980  13.377  0.00  0.00    +0.000 A 
ATOM      9  C   UNL     1       6.118   3.734  14.701  0.00  0.00    +0.000 A 
ATOM     10  C   UNL     1       6.942   4.614  15.457  0.00  0.00    +0.000 A 
ATOM     11  N   UNL     1       7.653   5.409  14.634  0.00  0.00    +0.000 NA
ATOM     12  N   UNL     1       7.333   4.994  13.397  0.00  0.00    +0.000 N 
ATOM     13  C   UNL     1       8.015   5.576  12.265  0.00  0.00    +0.000 C 
ENDBRANCH   1  10
BRANCH   5  14
ATOM     14  C   UNL     1       4.640   3.631  19.847  0.00  0.00    +0.000 C 
BRANCH  14  15
ATOM     15  N   UNL     1       3.276   3.144  19.802  0.00  0.00    +0.000 N 
ATOM     16  C   UNL     1       2.277   3.567  20.615  0.00  0.00    +0.000 C 
ATOM     17  O   UNL     1       2.342   4.421  21.485  0.00  0.00    +0.000 OA
ATOM     18  C   UNL     1       1.054   2.783  20.254  0.00  0.00    +0.000 C 
ATOM     19  O   UNL     1       1.517   1.895  19.237  0.00  0.00    +0.000 OA
ATOM     20  C   UNL     1       2.840   2.137  19.015  0.00  0.00    +0.000 C 
ATOM     21  O   UNL     1       3.505   1.502  18.211  0.00  0.00    +0.000 OA
ENDBRANCH  14  15
ENDBRANCH   5  14
TORSDOF 3
ENDMDL
MODEL 2
REMARK VINA RESULT:      -8.2      0.536      1.628
REMARK  Name = 
REMARK  5 active torsions:
REMARK  status: ('A' for Active; 'I' for Inactive)
REMARK    1  A    between atoms: C_1  and  C_2
REMARK    2  A    between atoms: C_4  and  C_5
REMARK    3  A    between atoms: C_9  and  C_10
REMARK    4  A    between atoms: C_10  and  N_11
REMARK    5  A    between atoms: N_20  and  C_21
REMARK                            x       y       z     vdW  Elec       q    Type
REMARK                         _______ _______ _______ _____ _____    ______ ____
ROOT
ATOM      1  C   UNL     1       7.028   4.662  16.910  0.00  0.00    +0.000 C 
ATOM      2  O   UNL     1       8.002   4.213  17.516  0.00  0.00    +0.000 OA
ATOM      3  N   UNL     1       5.974   5.276  17.566  0.00  0.00    +0.000 N 
ATOM      4  C   UNL     1       5.877   5.534  18.992  0.00  0.00    +0.000 C 
ATOM      5  C   UNL     1       4.476   4.912  18.960  0.00  0.00    +0.000 C 
ATOM      6  C   UNL     1       4.564   4.925  17.420  0.00  0.00    +0.000 C 
ENDROOT
BRANCH   1  10
ATOM      7  C   UNL     1       6.266   3.345  12.047  0.00  0.00    +0.000 C 
ATOM      8  C   UNL     1       6.607   4.019  13.322  0.00  0.00    +0.000 A 
ATOM      9  C   UNL     1       6.255   3.731  14.624  0.00  0.00    +0.000 A 
ATOM     10  C   UNL     1       6.957   4.665  15.436  0.00  0.00    +0.000 A 
ATOM     11  N   UNL     1       7.648   5.527  14.664  0.00  0.00    +0.000 NA
ATOM     12  N   UNL     1       7.437   5.104  13.407  0.00  0.00    +0.000 N 
ATOM     13  C   UNL     1       8.135   5.755  12.323  0.00  0.00    +0.000 C 
ENDBRANCH   1  10
BRANCH   5  14
ATOM     14  C   UNL     1       4.431   3.566  19.672  0.00  0.00    +0.000 C 
BRANCH  14  15
ATOM     15  N   UNL     1       3.047   3.146  19.754  0.00  0.00    +0.000 N 
ATOM     16  C   UNL     1       2.413   2.384  18.829  0.00  0.00    +0.000 C 
ATOM     17  O   UNL     1       2.888   1.913  17.808  0.00  0.00    +0.000 OA
ATOM     18  C   UNL     1       0.997   2.222  19.287  0.00  0.00    +0.000 C 
ATOM     19  O   UNL     1       0.944   3.000  20.482  0.00  0.00    +0.000 OA
ATOM     20  C   UNL     1       2.176   3.539  20.709  0.00  0.00    +0.000 C 
ATOM     21  O   UNL     1       2.415   4.275  21.653  0.00  0.00    +0.000 OA
ENDBRANCH  14  15
ENDBRANCH   5  14
TORSDOF 3
ENDMDL
MODEL 3
REMARK VINA RESULT:      -7.2      1.320      1.676
REMARK  Name = 
REMARK  5 active torsions:
REMARK  status: ('A' for Active; 'I' for Inactive)
REMARK    1  A    between atoms: C_1  and  C_2
REMARK    2  A    between atoms: C_4  and  C_5
REMARK    3  A    between atoms: C_9  and  C_10
REMARK    4  A    between atoms: C_10  and  N_11
REMARK    5  A    between atoms: N_20  and  C_21
REMARK                            x       y       z     vdW  Elec       q    Type
REMARK                         _______ _______ _______ _____ _____    ______ ____
ROOT
ATOM      1  C   UNL     1       6.394   4.444  16.681  0.00  0.00    +0.000 C 
ATOM      2  O   UNL     1       7.266   4.172  17.507  0.00  0.00    +0.000 OA
ATOM      3  N   UNL     1       5.086   4.707  17.054  0.00  0.00    +0.000 N 
ATOM      4  C   UNL     1       4.569   4.764  18.410  0.00  0.00    +0.000 C 
ATOM      5  C   UNL     1       3.434   3.833  17.964  0.00  0.00    +0.000 C 
ATOM      6  C   UNL     1       3.900   4.049  16.510  0.00  0.00    +0.000 C 
ENDROOT
BRANCH   1  10
ATOM      7  C   UNL     1       6.868   3.676  11.666  0.00  0.00    +0.000 C 
ATOM      8  C   UNL     1       6.885   4.198  13.054  0.00  0.00    +0.000 A 
ATOM      9  C   UNL     1       6.211   3.790  14.186  0.00  0.00    +0.000 A 
ATOM     10  C   UNL     1       6.698   4.604  15.246  0.00  0.00    +0.000 A 
ATOM     11  N   UNL     1       7.574   5.512  14.773  0.00  0.00    +0.000 NA
ATOM     12  N   UNL     1       7.682   5.232  13.464  0.00  0.00    +0.000 N 
ATOM     13  C   UNL     1       8.640   5.963  12.669  0.00  0.00    +0.000 C 
ENDBRANCH   1  10
BRANCH   5  14
ATOM     14  C   UNL     1       3.565   2.441  18.569  0.00  0.00    +0.000 C 
BRANCH  14  15
ATOM     15  N   UNL     1       2.950   2.461  19.881  0.00  0.00    +0.000 N 
ATOM     16  C   UNL     1       1.646   2.747  20.119  0.00  0.00    +0.000 C 
ATOM     17  O   UNL     1       0.783   3.007  19.296  0.00  0.00    +0.000 OA
ATOM     18  C   UNL     1       1.447   2.690  21.602  0.00  0.00    +0.000 C 
ATOM     19  O   UNL     1       2.754   2.408  22.101  0.00  0.00    +0.000 OA
ATOM     20  C   UNL     1       3.611   2.296  21.047  0.00  0.00    +0.000 C 
ATOM     21  O   UNL     1       4.806   2.083  21.182  0.00  0.00    +0.000 OA
ENDBRANCH  14  15
ENDBRANCH   5  14
TORSDOF 3
ENDMDL
MODEL 4
REMARK VINA RESULT:      -7.2      1.034      2.121
REMARK  Name = 
REMARK  5 active torsions:
REMARK  status: ('A' for Active; 'I' for Inactive)
REMARK    1  A    between atoms: C_1  and  C_2
REMARK    2  A    between atoms: C_4  and  C_5
REMARK    3  A    between atoms: C_9  and  C_10
REMARK    4  A    between atoms: C_10  and  N_11
REMARK    5  A    between atoms: N_20  and  C_21
REMARK                            x       y       z     vdW  Elec       q    Type
REMARK                         _______ _______ _______ _____ _____    ______ ____
ROOT
ATOM      1  C   UNL     1       6.990   4.659  16.559  0.00  0.00    +0.000 C 
ATOM      2  O   UNL     1       7.940   4.298  17.255  0.00  0.00    +0.000 OA
ATOM      3  N   UNL     1       5.893   5.314  17.095  0.00  0.00    +0.000 N 
ATOM      4  C   UNL     1       5.720   5.716  18.479  0.00  0.00    +0.000 C 
ATOM      5  C   UNL     1       4.334   5.062  18.445  0.00  0.00    +0.000 C 
ATOM      6  C   UNL     1       4.498   4.917  16.918  0.00  0.00    +0.000 C 
ENDROOT
BRANCH   1  10
ATOM      7  C   UNL     1       7.561   5.466  11.560  0.00  0.00    +0.000 C 
ATOM      8  C   UNL     1       7.262   4.932  12.910  0.00  0.00    +0.000 A 
ATOM      9  C   UNL     1       7.680   5.337  14.160  0.00  0.00    +0.000 A 
ATOM     10  C   UNL     1       6.993   4.508  15.091  0.00  0.00    +0.000 A 
ATOM     11  N   UNL     1       6.246   3.595  14.439  0.00  0.00    +0.000 NA
ATOM     12  N   UNL     1       6.410   3.885  13.138  0.00  0.00    +0.000 N 
ATOM     13  C   UNL     1       5.648   3.150  12.156  0.00  0.00    +0.000 C 
ENDBRANCH   1  10
BRANCH   5  14
ATOM     14  C   UNL     1       4.276   3.797  19.291  0.00  0.00    +0.000 C 
BRANCH  14  15
ATOM     15  N   UNL     1       2.885   3.421  19.446  0.00  0.00    +0.000 N 
ATOM     16  C   UNL     1       2.216   2.579  18.620  0.00  0.00    +0.000 C 
ATOM     17  O   UNL     1       2.658   1.990  17.647  0.00  0.00    +0.000 OA
ATOM     18  C   UNL     1       0.807   2.500  19.120  0.00  0.00    +0.000 C 
ATOM     19  O   UNL     1       0.797   3.402  20.226  0.00  0.00    +0.000 OA
ATOM     20  C   UNL     1       2.044   3.934  20.369  0.00  0.00    +0.000 C 
ATOM     21  O   UNL     1       2.319   4.761  21.224  0.00  0.00    +0.000 OA
ENDBRANCH  14  15
ENDBRANCH   5  14
TORSDOF 3
ENDMDL
MODEL 5
REMARK VINA RESULT:      -7.1      1.224      1.322
REMARK  Name = 
REMARK  5 active torsions:
REMARK  status: ('A' for Active; 'I' for Inactive)
REMARK    1  A    between atoms: C_1  and  C_2
REMARK    2  A    between atoms: C_4  and  C_5
REMARK    3  A    between atoms: C_9  and  C_10
REMARK    4  A    between atoms: C_10  and  N_11
REMARK    5  A    between atoms: N_20  and  C_21
REMARK                            x       y       z     vdW  Elec       q    Type
REMARK                         _______ _______ _______ _____ _____    ______ ____
ROOT
ATOM      1  C   UNL     1       6.680   4.572  16.811  0.00  0.00    +0.000 C 
ATOM      2  O   UNL     1       7.600   4.138  17.506  0.00  0.00    +0.000 OA
ATOM      3  N   UNL     1       5.518   5.083  17.364  0.00  0.00    +0.000 N 
ATOM      4  C   UNL     1       5.233   5.240  18.780  0.00  0.00    +0.000 C 
ATOM      5  C   UNL     1       3.888   4.545  18.535  0.00  0.00    +0.000 C 
ATOM      6  C   UNL     1       4.161   4.666  17.022  0.00  0.00    +0.000 C 
ENDROOT
BRANCH   1  10
ATOM      7  C   UNL     1       6.433   3.610  11.813  0.00  0.00    +0.000 C 
ATOM      8  C   UNL     1       6.658   4.179  13.163  0.00  0.00    +0.000 A 
ATOM      9  C   UNL     1       6.133   3.839  14.392  0.00  0.00    +0.000 A 
ATOM     10  C   UNL     1       6.789   4.670  15.342  0.00  0.00    +0.000 A 
ATOM     11  N   UNL     1       7.622   5.525  14.717  0.00  0.00    +0.000 NA
ATOM     12  N   UNL     1       7.539   5.195  13.419  0.00  0.00    +0.000 N 
ATOM     13  C   UNL     1       8.404   5.860  12.471  0.00  0.00    +0.000 C 
ENDBRANCH   1  10
BRANCH   5  14
ATOM     14  C   UNL     1       3.841   3.155  19.156  0.00  0.00    +0.000 C 
BRANCH  14  15
ATOM     15  N   UNL     1       2.663   3.077  19.996  0.00  0.00    +0.000 N 
ATOM     16  C   UNL     1       2.649   2.597  21.264  0.00  0.00    +0.000 C 
ATOM     17  O   UNL     1       3.598   2.181  21.909  0.00  0.00    +0.000 OA
ATOM     18  C   UNL     1       1.233   2.665  21.745  0.00  0.00    +0.000 C 
ATOM     19  O   UNL     1       0.522   3.163  20.612  0.00  0.00    +0.000 OA
ATOM     20  C   UNL     1       1.408   3.377  19.599  0.00  0.00    +0.000 C 
ATOM     21  O   UNL     1       1.071   3.779  18.496  0.00  0.00    +0.000 OA
ENDBRANCH  14  15
ENDBRANCH   5  14
TORSDOF 3
ENDMDL
MODEL 6
REMARK VINA RESULT:      -7.1      0.889      1.355
REMARK  Name = 
REMARK  5 active torsions:
REMARK  status: ('A' for Active; 'I' for Inactive)
REMARK    1  A    between atoms: C_1  and  C_2
REMARK    2  A    between atoms: C_4  and  C_5
REMARK    3  A    between atoms: C_9  and  C_10
REMARK    4  A    between atoms: C_10  and  N_11
REMARK    5  A    between atoms: N_20  and  C_21
REMARK                            x       y       z     vdW  Elec       q    Type
REMARK                         _______ _______ _______ _____ _____    ______ ____
ROOT
ATOM      1  C   UNL     1       7.030   4.667  16.531  0.00  0.00    +0.000 C 
ATOM      2  O   UNL     1       7.992   4.314  17.214  0.00  0.00    +0.000 OA
ATOM      3  N   UNL     1       5.941   5.325  17.078  0.00  0.00    +0.000 N 
ATOM      4  C   UNL     1       5.789   5.739  18.462  0.00  0.00    +0.000 C 
ATOM      5  C   UNL     1       4.404   5.082  18.455  0.00  0.00    +0.000 C 
ATOM      6  C   UNL     1       4.545   4.924  16.928  0.00  0.00    +0.000 C 
ENDROOT
BRANCH   1  10
ATOM      7  C   UNL     1       7.560   5.414  11.518  0.00  0.00    +0.000 C 
ATOM      8  C   UNL     1       7.263   4.900  12.877  0.00  0.00    +0.000 A 
ATOM      9  C   UNL     1       7.709   5.304  14.118  0.00  0.00    +0.000 A 
ATOM     10  C   UNL     1       7.011   4.503  15.064  0.00  0.00    +0.000 A 
ATOM     11  N   UNL     1       6.230   3.606  14.431  0.00  0.00    +0.000 NA
ATOM     12  N   UNL     1       6.385   3.880  13.125  0.00  0.00    +0.000 N 
ATOM     13  C   UNL     1       5.589   3.159  12.159  0.00  0.00    +0.000 C 
ENDBRANCH   1  10
BRANCH   5  14
ATOM     14  C   UNL     1       4.363   3.824  19.314  0.00  0.00    +0.000 C 
BRANCH  14  15
ATOM     15  N   UNL     1       2.981   3.404  19.431  0.00  0.00    +0.000 N 
ATOM     16  C   UNL     1       2.117   3.844  20.379  0.00  0.00    +0.000 C 
ATOM     17  O   UNL     1       2.336   4.662  21.259  0.00  0.00    +0.000 OA
ATOM     18  C   UNL     1       0.819   3.133  20.156  0.00  0.00    +0.000 C 
ATOM     19  O   UNL     1       1.102   2.262  19.061  0.00  0.00    +0.000 OA
ATOM     20  C   UNL     1       2.397   2.448  18.677  0.00  0.00    +0.000 C 
ATOM     21  O   UNL     1       2.920   1.813  17.775  0.00  0.00    +0.000 OA
ENDBRANCH  14  15
ENDBRANCH   5  14
TORSDOF 3
ENDMDL
MODEL 7
REMARK VINA RESULT:      -6.7      5.180      7.829
REMARK  Name = 
REMARK  5 active torsions:
REMARK  status: ('A' for Active; 'I' for Inactive)
REMARK    1  A    between atoms: C_1  and  C_2
REMARK    2  A    between atoms: C_4  and  C_5
REMARK    3  A    between atoms: C_9  and  C_10
REMARK    4  A    between atoms: C_10  and  N_11
REMARK    5  A    between atoms: N_20  and  C_21
REMARK                            x       y       z     vdW  Elec       q    Type
REMARK                         _______ _______ _______ _____ _____    ______ ____
ROOT
ATOM      1  C   UNL     1       1.348   9.026  18.723  0.00  0.00    +0.000 C 
ATOM      2  O   UNL     1       0.898   9.270  17.603  0.00  0.00    +0.000 OA
ATOM      3  N   UNL     1       2.378   8.121  18.919  0.00  0.00    +0.000 N 
ATOM      4  C   UNL     1       3.100   7.397  17.888  0.00  0.00    +0.000 C 
ATOM      5  C   UNL     1       2.860   6.113  18.690  0.00  0.00    +0.000 C 
ATOM      6  C   UNL     1       2.352   6.994  19.849  0.00  0.00    +0.000 C 
ENDROOT
BRANCH   1  10
ATOM      7  C   UNL     1      -0.906  10.272  23.120  0.00  0.00    +0.000 C 
ATOM      8  C   UNL     1      -0.137  10.233  21.853  0.00  0.00    +0.000 A 
ATOM      9  C   UNL     1       0.270   9.174  21.069  0.00  0.00    +0.000 A 
ATOM     10  C   UNL     1       0.891   9.749  19.925  0.00  0.00    +0.000 A 
ATOM     11  N   UNL     1       0.925  11.092  20.038  0.00  0.00    +0.000 NA
ATOM     12  N   UNL     1       0.286  11.354  21.190  0.00  0.00    +0.000 N 
ATOM     13  C   UNL     1       0.049  12.729  21.561  0.00  0.00    +0.000 C 
ENDBRANCH   1  10
BRANCH   5  14
ATOM     14  C   UNL     1       1.872   5.182  17.999  0.00  0.00    +0.000 C 
BRANCH  14  15
ATOM     15  N   UNL     1       2.293   3.817  18.244  0.00  0.00    +0.000 N 
ATOM     16  C   UNL     1       3.301   3.190  17.589  0.00  0.00    +0.000 C 
ATOM     17  O   UNL     1       4.024   3.656  16.723  0.00  0.00    +0.000 OA
ATOM     18  C   UNL     1       3.372   1.794  18.124  0.00  0.00    +0.000 C 
ATOM     19  O   UNL     1       2.293   1.741  19.057  0.00  0.00    +0.000 OA
ATOM     20  C   UNL     1       1.676   2.957  19.082  0.00  0.00    +0.000 C 
ATOM     21  O   UNL     1       0.699   3.191  19.775  0.00  0.00    +0.000 OA
ENDBRANCH  14  15
ENDBRANCH   5  14
TORSDOF 3
ENDMDL
MODEL 8
REMARK VINA RESULT:      -6.6      4.467      8.009
REMARK  Name = 
REMARK  5 active torsions:
REMARK  status: ('A' for Active; 'I' for Inactive)
REMARK    1  A    between atoms: C_1  and  C_2
REMARK    2  A    between atoms: C_4  and  C_5
REMARK    3  A    between atoms: C_9  and  C_10
REMARK    4  A    between atoms: C_10  and  N_11
REMARK    5  A    between atoms: N_20  and  C_21
REMARK                            x       y       z     vdW  Elec       q    Type
REMARK                         _______ _______ _______ _____ _____    ______ ____
ROOT
ATOM      1  C   UNL     1       1.855   7.059  20.125  0.00  0.00    +0.000 C 
ATOM      2  O   UNL     1       1.955   6.131  20.928  0.00  0.00    +0.000 OA
ATOM      3  N   UNL     1       2.163   6.905  18.783  0.00  0.00    +0.000 N 
ATOM      4  C   UNL     1       2.573   5.677  18.126  0.00  0.00    +0.000 C 
ATOM      5  C   UNL     1       3.739   6.455  17.505  0.00  0.00    +0.000 C 
ATOM      6  C   UNL     1       3.079   7.750  18.021  0.00  0.00    +0.000 C 
ENDROOT
BRANCH   1  10
ATOM      7  C   UNL     1      -0.510  10.837  22.593  0.00  0.00    +0.000 C 
ATOM      8  C   UNL     1       0.241   9.983  21.643  0.00  0.00    +0.000 A 
ATOM      9  C   UNL     1       0.794   8.729  21.791  0.00  0.00    +0.000 A 
ATOM     10  C   UNL     1       1.308   8.373  20.512  0.00  0.00    +0.000 A 
ATOM     11  N   UNL     1       1.140   9.390  19.643  0.00  0.00    +0.000 NA
ATOM     12  N   UNL     1       0.483  10.330  20.341  0.00  0.00    +0.000 N 
ATOM     13  C   UNL     1       0.045  11.528  19.662  0.00  0.00    +0.000 C 
ENDBRANCH   1  10
BRANCH   5  14
ATOM     14  C   UNL     1       5.082   6.041  18.093  0.00  0.00    +0.000 C 
BRANCH  14  15
ATOM     15  N   UNL     1       5.947   5.641  17.002  0.00  0.00    +0.000 N 
ATOM     16  C   UNL     1       5.855   4.465  16.334  0.00  0.00    +0.000 C 
ATOM     17  O   UNL     1       5.040   3.574  16.513  0.00  0.00    +0.000 OA
ATOM     18  C   UNL     1       6.955   4.448  15.319  0.00  0.00    +0.000 C 
ATOM     19  O   UNL     1       7.643   5.675  15.555  0.00  0.00    +0.000 OA
ATOM     20  C   UNL     1       7.019   6.339  16.569  0.00  0.00    +0.000 C 
ATOM     21  O   UNL     1       7.411   7.411  17.002  0.00  0.00    +0.000 OA
ENDBRANCH  14  15
ENDBRANCH   5  14
TORSDOF 3
ENDMDL
MODEL 9
REMARK VINA RESULT:      -6.6      1.147      1.372
REMARK  Name = 
REMARK  5 active torsions:
REMARK  status: ('A' for Active; 'I' for Inactive)
REMARK    1  A    between atoms: C_1  and  C_2
REMARK    2  A    between atoms: C_4  and  C_5
REMARK    3  A    between atoms: C_9  and  C_10
REMARK    4  A    between atoms: C_10  and  N_11
REMARK    5  A    between atoms: N_20  and  C_21
REMARK                            x       y       z     vdW  Elec       q    Type
REMARK                         _______ _______ _______ _____ _____    ______ ____
ROOT
ATOM      1  C   UNL     1       6.602   4.625  15.705  0.00  0.00    +0.000 C 
ATOM      2  O   UNL     1       7.716   4.457  16.203  0.00  0.00    +0.000 OA
ATOM      3  N   UNL     1       5.583   5.269  16.387  0.00  0.00    +0.000 N 
ATOM      4  C   UNL     1       5.672   5.873  17.704  0.00  0.00    +0.000 C 
ATOM      5  C   UNL     1       4.396   5.114  18.086  0.00  0.00    +0.000 C 
ATOM      6  C   UNL     1       4.237   4.740  16.598  0.00  0.00    +0.000 C 
ENDROOT
BRANCH   1  10
ATOM      7  C   UNL     1       4.226   3.192  11.432  0.00  0.00    +0.000 C 
ATOM      8  C   UNL     1       5.197   3.600  12.475  0.00  0.00    +0.000 A 
ATOM      9  C   UNL     1       5.009   4.155  13.723  0.00  0.00    +0.000 A 
ATOM     10  C   UNL     1       6.301   4.241  14.313  0.00  0.00    +0.000 A 
ATOM     11  N   UNL     1       7.240   3.824  13.441  0.00  0.00    +0.000 NA
ATOM     12  N   UNL     1       6.550   3.428  12.359  0.00  0.00    +0.000 N 
ATOM     13  C   UNL     1       7.261   2.815  11.261  0.00  0.00    +0.000 C 
ENDBRANCH   1  10
BRANCH   5  14
ATOM     14  C   UNL     1       4.669   4.001  19.089  0.00  0.00    +0.000 C 
BRANCH  14  15
ATOM     15  N   UNL     1       3.408   3.362  19.407  0.00  0.00    +0.000 N 
ATOM     16  C   UNL     1       2.500   3.842  20.292  0.00  0.00    +0.000 C 
ATOM     17  O   UNL     1       2.571   4.875  20.939  0.00  0.00    +0.000 OA
ATOM     18  C   UNL     1       1.371   2.860  20.341  0.00  0.00    +0.000 C 
ATOM     19  O   UNL     1       1.797   1.822  19.459  0.00  0.00    +0.000 OA
ATOM     20  C   UNL     1       3.013   2.157  18.943  0.00  0.00    +0.000 C 
ATOM     21  O   UNL     1       3.630   1.436  18.174  0.00  0.00    +0.000 OA
ENDBRANCH  14  15
ENDBRANCH   5  14
TORSDOF 3
ENDMDL
