MODEL 1
REMARK VINA RESULT:      -5.5      0.000      0.000
REMARK  Name = 
REMARK  0 active torsions:
REMARK  status: ('A' for Active; 'I' for Inactive)
REMARK                            x       y       z     vdW  Elec       q    Type
REMARK                         _______ _______ _______ _____ _____    ______ ____
ROOT
ATOM      1  S   UNL     1       7.819   6.926  18.195  0.00  0.00    +0.000 S 
ATOM      2  C   UNL     1       7.024   5.846  17.202  0.00  0.00    +0.000 A 
ATOM      3  N   UNL     1       7.369   5.740  15.866  0.00  0.00    +0.000 N 
ATOM      4  C   UNL     1       6.783   4.895  14.967  0.00  0.00    +0.000 A 
ATOM      5 CL   UNL     1       7.429   5.003  13.391  0.00  0.00    +0.000 Cl
ATOM      6  C   UNL     1       5.794   4.069  15.310  0.00  0.00    +0.000 A 
ATOM      7  C   UNL     1       5.355   4.083  16.653  0.00  0.00    +0.000 A 
ATOM      8  N   UNL     1       4.415   3.383  17.249  0.00  0.00    +0.000 NA
ATOM      9  C   UNL     1       4.413   3.802  18.552  0.00  0.00    +0.000 A 
ATOM     10 CL   UNL     1       3.354   3.176  19.722  0.00  0.00    +0.000 Cl
ATOM     11  C   UNL     1       5.366   4.772  18.752  0.00  0.00    +0.000 A 
ATOM     12  N   UNL     1       5.979   4.959  17.533  0.00  0.00    +0.000 N 
ATOM     13  H   UNL     1       8.116   6.339  15.525  0.00  0.00    +0.000 HD
ENDROOT
TORSDOF 0
ENDMDL
MODEL 2
REMARK VINA RESULT:      -5.5      2.391      2.911
REMARK  Name = 
REMARK  0 active torsions:
REMARK  status: ('A' for Active; 'I' for Inactive)
REMARK                            x       y       z     vdW  Elec       q    Type
REMARK                         _______ _______ _______ _____ _____    ______ ____
ROOT
ATOM      1  S   UNL     1       6.845   4.821  14.341  0.00  0.00    +0.000 S 
ATOM      2  C   UNL     1       6.601   5.097  15.968  0.00  0.00    +0.000 A 
ATOM      3  N   UNL     1       7.356   6.044  16.637  0.00  0.00    +0.000 N 
ATOM      4  C   UNL     1       7.242   6.347  17.964  0.00  0.00    +0.000 A 
ATOM      5 CL   UNL     1       8.321   7.558  18.495  0.00  0.00    +0.000 Cl
ATOM      6  C   UNL     1       6.360   5.737  18.758  0.00  0.00    +0.000 A 
ATOM      7  C   UNL     1       5.527   4.750  18.187  0.00  0.00    +0.000 A 
ATOM      8  N   UNL     1       4.588   4.009  18.733  0.00  0.00    +0.000 NA
ATOM      9  C   UNL     1       4.105   3.223  17.721  0.00  0.00    +0.000 A 
ATOM     10 CL   UNL     1       2.863   2.087  17.948  0.00  0.00    +0.000 Cl
ATOM     11  C   UNL     1       4.759   3.489  16.543  0.00  0.00    +0.000 A 
ATOM     12  N   UNL     1       5.678   4.474  16.833  0.00  0.00    +0.000 N 
ATOM     13  H   UNL     1       8.053   6.553  16.101  0.00  0.00    +0.000 HD
ENDROOT
TORSDOF 0
ENDMDL
MODEL 3
REMARK VINA RESULT:      -5.4      3.082      4.362
REMARK  Name = 
REMARK  0 active torsions:
REMARK  status: ('A' for Active; 'I' for Inactive)
REMARK                            x       y       z     vdW  Elec       q    Type
REMARK                         _______ _______ _______ _____ _____    ______ ____
ROOT
ATOM      1  S   UNL     1       7.033   5.111  17.085  0.00  0.00    +0.000 S 
ATOM      2  C   UNL     1       5.670   4.824  18.005  0.00  0.00    +0.000 A 
ATOM      3  N   UNL     1       5.562   3.664  18.750  0.00  0.00    +0.000 N 
ATOM      4  C   UNL     1       4.493   3.328  19.532  0.00  0.00    +0.000 A 
ATOM      5 CL   UNL     1       4.658   1.825  20.325  0.00  0.00    +0.000 Cl
ATOM      6  C   UNL     1       3.425   4.118  19.651  0.00  0.00    +0.000 A 
ATOM      7  C   UNL     1       3.420   5.337  18.937  0.00  0.00    +0.000 A 
ATOM      8  N   UNL     1       2.510   6.285  18.876  0.00  0.00    +0.000 NA
ATOM      9  C   UNL     1       3.023   7.235  18.035  0.00  0.00    +0.000 A 
ATOM     10 CL   UNL     1       2.196   8.665  17.644  0.00  0.00    +0.000 Cl
ATOM     11  C   UNL     1       4.263   6.860  17.576  0.00  0.00    +0.000 A 
ATOM     12  N   UNL     1       4.527   5.638  18.153  0.00  0.00    +0.000 N 
ATOM     13  H   UNL     1       6.336   3.008  18.713  0.00  0.00    +0.000 HD
ENDROOT
TORSDOF 0
ENDMDL
MODEL 4
REMARK VINA RESULT:      -5.4      2.964      3.519
REMARK  Name = 
REMARK  0 active torsions:
REMARK  status: ('A' for Active; 'I' for Inactive)
REMARK                            x       y       z     vdW  Elec       q    Type
REMARK                         _______ _______ _______ _____ _____    ______ ____
ROOT
ATOM      1  S   UNL     1       3.483   1.964  18.604  0.00  0.00    +0.000 S 
ATOM      2  C   UNL     1       3.985   3.370  17.859  0.00  0.00    +0.000 A 
ATOM      3  N   UNL     1       4.849   3.317  16.779  0.00  0.00    +0.000 N 
ATOM      4  C   UNL     1       5.325   4.403  16.099  0.00  0.00    +0.000 A 
ATOM      5 CL   UNL     1       6.378   4.010  14.815  0.00  0.00    +0.000 Cl
ATOM      6  C   UNL     1       4.984   5.650  16.426  0.00  0.00    +0.000 A 
ATOM      7  C   UNL     1       4.102   5.832  17.514  0.00  0.00    +0.000 A 
ATOM      8  N   UNL     1       3.612   6.934  18.038  0.00  0.00    +0.000 NA
ATOM      9  C   UNL     1       2.813   6.527  19.072  0.00  0.00    +0.000 A 
ATOM     10 CL   UNL     1       1.956   7.611  20.059  0.00  0.00    +0.000 Cl
ATOM     11  C   UNL     1       2.815   5.157  19.179  0.00  0.00    +0.000 A 
ATOM     12  N   UNL     1       3.644   4.700  18.178  0.00  0.00    +0.000 N 
ATOM     13  H   UNL     1       5.157   2.401  16.467  0.00  0.00    +0.000 HD
ENDROOT
TORSDOF 0
ENDMDL
MODEL 5
REMARK VINA RESULT:      -5.3      2.577      4.805
REMARK  Name = 
REMARK  0 active torsions:
REMARK  status: ('A' for Active; 'I' for Inactive)
REMARK                            x       y       z     vdW  Elec       q    Type
REMARK                         _______ _______ _______ _____ _____    ______ ____
ROOT
ATOM      1  S   UNL     1       2.489   7.294  18.606  0.00  0.00    +0.000 S 
ATOM      2  C   UNL     1       2.733   5.709  18.147  0.00  0.00    +0.000 A 
ATOM      3  N   UNL     1       1.832   4.727  18.520  0.00  0.00    +0.000 N 
ATOM      4  C   UNL     1       1.937   3.403  18.202  0.00  0.00    +0.000 A 
ATOM      5 CL   UNL     1       0.667   2.440  18.815  0.00  0.00    +0.000 Cl
ATOM      6  C   UNL     1       2.949   2.924  17.478  0.00  0.00    +0.000 A 
ATOM      7  C   UNL     1       3.934   3.834  17.034  0.00  0.00    +0.000 A 
ATOM      8  N   UNL     1       5.018   3.634  16.317  0.00  0.00    +0.000 NA
ATOM      9  C   UNL     1       5.606   4.863  16.185  0.00  0.00    +0.000 A 
ATOM     10 CL   UNL     1       7.051   5.109  15.328  0.00  0.00    +0.000 Cl
ATOM     11  C   UNL     1       4.869   5.827  16.831  0.00  0.00    +0.000 A 
ATOM     12  N   UNL     1       3.789   5.172  17.381  0.00  0.00    +0.000 N 
ATOM     13  H   UNL     1       1.031   5.011  19.076  0.00  0.00    +0.000 HD
ENDROOT
TORSDOF 0
ENDMDL
MODEL 6
REMARK VINA RESULT:      -5.3      1.538      1.672
REMARK  Name = 
REMARK  0 active torsions:
REMARK  status: ('A' for Active; 'I' for Inactive)
REMARK                            x       y       z     vdW  Elec       q    Type
REMARK                         _______ _______ _______ _____ _____    ______ ____
ROOT
ATOM      1  S   UNL     1       7.689   5.815  18.978  0.00  0.00    +0.000 S 
ATOM      2  C   UNL     1       6.459   5.204  18.031  0.00  0.00    +0.000 A 
ATOM      3  N   UNL     1       6.716   4.782  16.738  0.00  0.00    +0.000 N 
ATOM      4  C   UNL     1       5.785   4.271  15.878  0.00  0.00    +0.000 A 
ATOM      5 CL   UNL     1       6.414   3.845  14.349  0.00  0.00    +0.000 Cl
ATOM      6  C   UNL     1       4.505   4.127  16.222  0.00  0.00    +0.000 A 
ATOM      7  C   UNL     1       4.120   4.522  17.523  0.00  0.00    +0.000 A 
ATOM      8  N   UNL     1       2.943   4.488  18.109  0.00  0.00    +0.000 NA
ATOM      9  C   UNL     1       3.144   4.992  19.366  0.00  0.00    +0.000 A 
ATOM     10 CL   UNL     1       1.897   5.148  20.508  0.00  0.00    +0.000 Cl
ATOM     11  C   UNL     1       4.462   5.338  19.547  0.00  0.00    +0.000 A 
ATOM     12  N   UNL     1       5.099   5.037  18.363  0.00  0.00    +0.000 N 
ATOM     13  H   UNL     1       7.670   4.860  16.400  0.00  0.00    +0.000 HD
ENDROOT
TORSDOF 0
ENDMDL
MODEL 7
REMARK VINA RESULT:      -5.3      2.867      4.927
REMARK  Name = 
REMARK  0 active torsions:
REMARK  status: ('A' for Active; 'I' for Inactive)
REMARK                            x       y       z     vdW  Elec       q    Type
REMARK                         _______ _______ _______ _____ _____    ______ ____
ROOT
ATOM      1  S   UNL     1       3.107   2.624  17.879  0.00  0.00    +0.000 S 
ATOM      2  C   UNL     1       3.507   4.231  17.672  0.00  0.00    +0.000 A 
ATOM      3  N   UNL     1       2.901   5.206  18.445  0.00  0.00    +0.000 N 
ATOM      4  C   UNL     1       3.151   6.546  18.356  0.00  0.00    +0.000 A 
ATOM      5 CL   UNL     1       2.238   7.495  19.443  0.00  0.00    +0.000 Cl
ATOM      6  C   UNL     1       4.032   7.048  17.490  0.00  0.00    +0.000 A 
ATOM      7  C   UNL     1       4.719   6.148  16.647  0.00  0.00    +0.000 A 
ATOM      8  N   UNL     1       5.624   6.371  15.720  0.00  0.00    +0.000 NA
ATOM      9  C   UNL     1       5.947   5.139  15.215  0.00  0.00    +0.000 A 
ATOM     10 CL   UNL     1       7.089   4.919  13.979  0.00  0.00    +0.000 Cl
ATOM     11  C   UNL     1       5.228   4.152  15.845  0.00  0.00    +0.000 A 
ATOM     12  N   UNL     1       4.433   4.793  16.770  0.00  0.00    +0.000 N 
ATOM     13  H   UNL     1       2.215   4.904  19.130  0.00  0.00    +0.000 HD
ENDROOT
TORSDOF 0
ENDMDL
MODEL 8
REMARK VINA RESULT:      -5.3      2.490      4.271
REMARK  Name = 
REMARK  0 active torsions:
REMARK  status: ('A' for Active; 'I' for Inactive)
REMARK                            x       y       z     vdW  Elec       q    Type
REMARK                         _______ _______ _______ _____ _____    ______ ____
ROOT
ATOM      1  S   UNL     1       5.962   3.978  14.526  0.00  0.00    +0.000 S 
ATOM      2  C   UNL     1       5.634   4.014  16.162  0.00  0.00    +0.000 A 
ATOM      3  N   UNL     1       4.707   3.143  16.708  0.00  0.00    +0.000 N 
ATOM      4  C   UNL     1       4.361   3.089  18.028  0.00  0.00    +0.000 A 
ATOM      5 CL   UNL     1       3.182   1.909  18.389  0.00  0.00    +0.000 Cl
ATOM      6  C   UNL     1       4.907   3.897  18.938  0.00  0.00    +0.000 A 
ATOM      7  C   UNL     1       5.873   4.831  18.501  0.00  0.00    +0.000 A 
ATOM      8  N   UNL     1       6.556   5.729  19.176  0.00  0.00    +0.000 NA
ATOM      9  C   UNL     1       7.347   6.360  18.254  0.00  0.00    +0.000 A 
ATOM     10 CL   UNL     1       8.418   7.613  18.660  0.00  0.00    +0.000 Cl
ATOM     11  C   UNL     1       7.143   5.839  16.999  0.00  0.00    +0.000 A 
ATOM     12  N   UNL     1       6.194   4.851  17.149  0.00  0.00    +0.000 N 
ATOM     13  H   UNL     1       4.245   2.494  16.078  0.00  0.00    +0.000 HD
ENDROOT
TORSDOF 0
ENDMDL
MODEL 9
REMARK VINA RESULT:      -5.3      1.188      4.127
REMARK  Name = 
REMARK  0 active torsions:
REMARK  status: ('A' for Active; 'I' for Inactive)
REMARK                            x       y       z     vdW  Elec       q    Type
REMARK                         _______ _______ _______ _____ _____    ______ ____
ROOT
ATOM      1  S   UNL     1       7.751   5.744  19.207  0.00  0.00    +0.000 S 
ATOM      2  C   UNL     1       6.532   4.925  18.414  0.00  0.00    +0.000 A 
ATOM      3  N   UNL     1       5.498   4.347  19.130  0.00  0.00    +0.000 N 
ATOM      4  C   UNL     1       4.456   3.653  18.585  0.00  0.00    +0.000 A 
ATOM      5 CL   UNL     1       3.342   3.058  19.733  0.00  0.00    +0.000 Cl
ATOM      6  C   UNL     1       4.338   3.467  17.269  0.00  0.00    +0.000 A 
ATOM      7  C   UNL     1       5.335   4.015  16.431  0.00  0.00    +0.000 A 
ATOM      8  N   UNL     1       5.460   3.981  15.122  0.00  0.00    +0.000 NA
ATOM      9  C   UNL     1       6.610   4.670  14.844  0.00  0.00    +0.000 A 
ATOM     10 CL   UNL     1       7.192   4.896  13.265  0.00  0.00    +0.000 Cl
ATOM     11  C   UNL     1       7.193   5.130  16.000  0.00  0.00    +0.000 A 
ATOM     12  N   UNL     1       6.377   4.712  17.029  0.00  0.00    +0.000 N 
ATOM     13  H   UNL     1       5.516   4.444  20.141  0.00  0.00    +0.000 HD
ENDROOT
TORSDOF 0
ENDMDL
