MODEL 1
REMARK VINA RESULT:      -7.3      0.000      0.000
REMARK  Name = 
REMARK  8 active torsions:
REMARK  status: ('A' for Active; 'I' for Inactive)
REMARK    1  A    between atoms: C_1  and  O_2
REMARK    2  A    between atoms: O_2  and  C_3
REMARK    3  A    between atoms: C_7  and  N_8
REMARK    4  A    between atoms: C_9  and  S_10
REMARK    5  A    between atoms: S_10  and  C_11
REMARK    6  A    between atoms: C_11  and  C_12
REMARK    7  A    between atoms: C_12  and  O_14
REMARK    8  A    between atoms: C_17  and  C_18
REMARK                            x       y       z     vdW  Elec       q    Type
REMARK                         _______ _______ _______ _____ _____    ______ ____
ROOT
ATOM      1  N   UNL     1       3.896   5.231  18.080  0.00  0.00    +0.000 N 
ATOM      2  C   UNL     1       3.383   3.950  17.888  0.00  0.00    +0.000 A 
ATOM      3  N   UNL     1       4.302   3.152  17.389  0.00  0.00    +0.000 NA
ATOM      4  N   UNL     1       5.451   3.875  17.249  0.00  0.00    +0.000 NA
ATOM      5  C   UNL     1       5.249   5.077  17.758  0.00  0.00    +0.000 A 
ENDROOT
BRANCH   1  10
ATOM      6  C   UNL     1       1.893   7.674  20.093  0.00  0.00    +0.000 A 
ATOM      7  C   UNL     1       1.706   8.693  19.164  0.00  0.00    +0.000 A 
ATOM      8  C   UNL     1       2.312   8.624  17.913  0.00  0.00    +0.000 A 
ATOM      9  C   UNL     1       3.052   7.496  17.551  0.00  0.00    +0.000 A 
ATOM     10  C   UNL     1       3.228   6.445  18.458  0.00  0.00    +0.000 A 
ATOM     11  C   UNL     1       2.695   6.581  19.756  0.00  0.00    +0.000 A 
BRANCH   6  13
ATOM     12  C   UNL     1       0.686   9.133  21.545  0.00  0.00    +0.000 C 
ATOM     13  O   UNL     1       1.200   7.838  21.260  0.00  0.00    +0.000 OA
ENDBRANCH   6  13
ENDBRANCH   1  10
BRANCH   5  14
ATOM     14  C   UNL     1       6.377   6.028  17.982  0.00  0.00    +0.000 A 
ATOM     15  C   UNL     1       6.712   7.224  17.308  0.00  0.00    +0.000 A 
ATOM     16  N   UNL     1       7.849   7.758  17.753  0.00  0.00    +0.000 NA
ATOM     17  N   UNL     1       8.213   6.941  18.756  0.00  0.00    +0.000 N 
ATOM     18  C   UNL     1       7.342   5.907  18.956  0.00  0.00    +0.000 A 
ATOM     19  H   UNL     1       9.075   7.145  19.251  0.00  0.00    +0.000 HD
ENDBRANCH   5  14
BRANCH   2  20
ATOM     20  S   UNL     1       1.735   3.442  18.080  0.00  0.00    +0.000 S 
BRANCH  20  21
ATOM     21  C   UNL     1       1.840   2.343  19.514  0.00  0.00    +0.000 C 
BRANCH  21  22
ATOM     22  C   UNL     1       1.276   2.984  20.758  0.00  0.00    +0.000 C 
ATOM     23  O   UNL     1       1.493   2.582  21.893  0.00  0.00    +0.000 OA
BRANCH  22  24
ATOM     24  O   UNL     1       0.481   4.056  20.516  0.00  0.00    +0.000 OA
ATOM     25  H   UNL     1       0.971   4.893  20.346  0.00  0.00    +0.000 HD
ENDBRANCH  22  24
ENDBRANCH  21  22
ENDBRANCH  20  21
ENDBRANCH   2  20
TORSDOF 7
ENDMDL
MODEL 2
REMARK VINA RESULT:      -7.2      2.952      5.053
REMARK  Name = 
REMARK  8 active torsions:
REMARK  status: ('A' for Active; 'I' for Inactive)
REMARK    1  A    between atoms: C_1  and  O_2
REMARK    2  A    between atoms: O_2  and  C_3
REMARK    3  A    between atoms: C_7  and  N_8
REMARK    4  A    between atoms: C_9  and  S_10
REMARK    5  A    between atoms: S_10  and  C_11
REMARK    6  A    between atoms: C_11  and  C_12
REMARK    7  A    between atoms: C_12  and  O_14
REMARK    8  A    between atoms: C_17  and  C_18
REMARK                            x       y       z     vdW  Elec       q    Type
REMARK                         _______ _______ _______ _____ _____    ______ ____
ROOT
ATOM      1  N   UNL     1       3.652   5.193  19.228  0.00  0.00    +0.000 N 
ATOM      2  C   UNL     1       3.287   4.003  19.854  0.00  0.00    +0.000 A 
ATOM      3  N   UNL     1       2.210   4.176  20.589  0.00  0.00    +0.000 NA
ATOM      4  N   UNL     1       1.822   5.479  20.460  0.00  0.00    +0.000 NA
ATOM      5  C   UNL     1       2.606   6.059  19.570  0.00  0.00    +0.000 A 
ENDROOT
BRANCH   1  10
ATOM      6  C   UNL     1       5.914   5.677  16.281  0.00  0.00    +0.000 A 
ATOM      7  C   UNL     1       7.135   5.884  16.916  0.00  0.00    +0.000 A 
ATOM      8  C   UNL     1       7.202   5.959  18.304  0.00  0.00    +0.000 A 
ATOM      9  C   UNL     1       6.057   5.751  19.077  0.00  0.00    +0.000 A 
ATOM     10  C   UNL     1       4.823   5.511  18.461  0.00  0.00    +0.000 A 
ATOM     11  C   UNL     1       4.757   5.544  17.053  0.00  0.00    +0.000 A 
BRANCH   6  13
ATOM     12  C   UNL     1       5.790   4.286  14.347  0.00  0.00    +0.000 C 
ATOM     13  O   UNL     1       5.993   5.570  14.921  0.00  0.00    +0.000 OA
ENDBRANCH   6  13
ENDBRANCH   1  10
BRANCH   5  14
ATOM     14  C   UNL     1       2.295   7.411  19.021  0.00  0.00    +0.000 A 
ATOM     15  C   UNL     1       2.516   7.946  17.732  0.00  0.00    +0.000 A 
ATOM     16  N   UNL     1       2.171   9.231  17.648  0.00  0.00    +0.000 NA
ATOM     17  N   UNL     1       1.669   9.505  18.864  0.00  0.00    +0.000 N 
ATOM     18  C   UNL     1       1.689   8.434  19.713  0.00  0.00    +0.000 A 
ATOM     19  H   UNL     1       1.343  10.449  19.046  0.00  0.00    +0.000 HD
ENDBRANCH   5  14
BRANCH   2  20
ATOM     20  S   UNL     1       4.173   2.512  19.866  0.00  0.00    +0.000 S 
BRANCH  20  21
ATOM     21  C   UNL     1       3.661   1.753  18.304  0.00  0.00    +0.000 C 
BRANCH  21  22
ATOM     22  C   UNL     1       2.307   2.246  17.857  0.00  0.00    +0.000 C 
ATOM     23  O   UNL     1       2.137   3.038  16.939  0.00  0.00    +0.000 OA
BRANCH  22  24
ATOM     24  O   UNL     1       1.271   1.746  18.573  0.00  0.00    +0.000 OA
ATOM     25  H   UNL     1       1.442   1.680  19.541  0.00  0.00    +0.000 HD
ENDBRANCH  22  24
ENDBRANCH  21  22
ENDBRANCH  20  21
ENDBRANCH   2  20
TORSDOF 7
ENDMDL
MODEL 3
REMARK VINA RESULT:      -7.2      2.809      4.765
REMARK  Name = 
REMARK  8 active torsions:
REMARK  status: ('A' for Active; 'I' for Inactive)
REMARK    1  A    between atoms: C_1  and  O_2
REMARK    2  A    between atoms: O_2  and  C_3
REMARK    3  A    between atoms: C_7  and  N_8
REMARK    4  A    between atoms: C_9  and  S_10
REMARK    5  A    between atoms: S_10  and  C_11
REMARK    6  A    between atoms: C_11  and  C_12
REMARK    7  A    between atoms: C_12  and  O_14
REMARK    8  A    between atoms: C_17  and  C_18
REMARK                            x       y       z     vdW  Elec       q    Type
REMARK                         _______ _______ _______ _____ _____    ______ ____
ROOT
ATOM      1  N   UNL     1       3.629   5.112  19.197  0.00  0.00    +0.000 N 
ATOM      2  C   UNL     1       3.295   3.965  19.914  0.00  0.00    +0.000 A 
ATOM      3  N   UNL     1       2.302   4.206  20.741  0.00  0.00    +0.000 NA
ATOM      4  N   UNL     1       1.938   5.513  20.586  0.00  0.00    +0.000 NA
ATOM      5  C   UNL     1       2.646   6.026  19.597  0.00  0.00    +0.000 A 
ENDROOT
BRANCH   1  10
ATOM      6  C   UNL     1       6.928   6.345  17.920  0.00  0.00    +0.000 A 
ATOM      7  C   UNL     1       6.803   6.075  16.560  0.00  0.00    +0.000 A 
ATOM      8  C   UNL     1       5.683   5.406  16.076  0.00  0.00    +0.000 A 
ATOM      9  C   UNL     1       4.638   5.067  16.938  0.00  0.00    +0.000 A 
ATOM     10  C   UNL     1       4.727   5.355  18.304  0.00  0.00    +0.000 A 
ATOM     11  C   UNL     1       5.915   5.938  18.792  0.00  0.00    +0.000 A 
BRANCH   6  13
ATOM     12  C   UNL     1       8.097   8.424  17.885  0.00  0.00    +0.000 C 
ATOM     13  O   UNL     1       8.047   7.053  18.257  0.00  0.00    +0.000 OA
ENDBRANCH   6  13
ENDBRANCH   1  10
BRANCH   5  14
ATOM     14  C   UNL     1       2.320   7.360  19.014  0.00  0.00    +0.000 A 
ATOM     15  C   UNL     1       2.576   7.883  17.727  0.00  0.00    +0.000 A 
ATOM     16  N   UNL     1       2.199   9.156  17.609  0.00  0.00    +0.000 NA
ATOM     17  N   UNL     1       1.641   9.433  18.799  0.00  0.00    +0.000 N 
ATOM     18  C   UNL     1       1.658   8.376  19.665  0.00  0.00    +0.000 A 
ATOM     19  H   UNL     1       1.282  10.370  18.954  0.00  0.00    +0.000 HD
ENDBRANCH   5  14
BRANCH   2  20
ATOM     20  S   UNL     1       4.137   2.447  19.912  0.00  0.00    +0.000 S 
BRANCH  20  21
ATOM     21  C   UNL     1       3.605   1.719  18.343  0.00  0.00    +0.000 C 
BRANCH  21  22
ATOM     22  C   UNL     1       2.234   2.199  17.936  0.00  0.00    +0.000 C 
ATOM     23  O   UNL     1       2.025   2.957  16.997  0.00  0.00    +0.000 OA
BRANCH  22  24
ATOM     24  O   UNL     1       1.228   1.730  18.715  0.00  0.00    +0.000 OA
ATOM     25  H   UNL     1       0.618   2.426  19.051  0.00  0.00    +0.000 HD
ENDBRANCH  22  24
ENDBRANCH  21  22
ENDBRANCH  20  21
ENDBRANCH   2  20
TORSDOF 7
ENDMDL
MODEL 4
REMARK VINA RESULT:      -7.2      3.209      5.079
REMARK  Name = 
REMARK  8 active torsions:
REMARK  status: ('A' for Active; 'I' for Inactive)
REMARK    1  A    between atoms: C_1  and  O_2
REMARK    2  A    between atoms: O_2  and  C_3
REMARK    3  A    between atoms: C_7  and  N_8
REMARK    4  A    between atoms: C_9  and  S_10
REMARK    5  A    between atoms: S_10  and  C_11
REMARK    6  A    between atoms: C_11  and  C_12
REMARK    7  A    between atoms: C_12  and  O_14
REMARK    8  A    between atoms: C_17  and  C_18
REMARK                            x       y       z     vdW  Elec       q    Type
REMARK                         _______ _______ _______ _____ _____    ______ ____
ROOT
ATOM      1  N   UNL     1       4.173   5.236  19.030  0.00  0.00    +0.000 N 
ATOM      2  C   UNL     1       5.547   5.041  18.907  0.00  0.00    +0.000 A 
ATOM      3  N   UNL     1       5.874   3.812  19.245  0.00  0.00    +0.000 NA
ATOM      4  N   UNL     1       4.727   3.155  19.587  0.00  0.00    +0.000 NA
ATOM      5  C   UNL     1       3.705   3.958  19.358  0.00  0.00    +0.000 A 
ENDROOT
BRANCH   1  10
ATOM      6  C   UNL     1       1.742   7.959  19.870  0.00  0.00    +0.000 A 
ATOM      7  C   UNL     1       1.681   8.643  18.659  0.00  0.00    +0.000 A 
ATOM      8  C   UNL     1       2.503   8.271  17.599  0.00  0.00    +0.000 A 
ATOM      9  C   UNL     1       3.342   7.161  17.715  0.00  0.00    +0.000 A 
ATOM     10  C   UNL     1       3.398   6.440  18.913  0.00  0.00    +0.000 A 
ATOM     11  C   UNL     1       2.637   6.896  20.009  0.00  0.00    +0.000 A 
BRANCH   6  13
ATOM     12  C   UNL     1       1.363   8.848  22.051  0.00  0.00    +0.000 C 
ATOM     13  O   UNL     1       0.846   8.389  20.809  0.00  0.00    +0.000 OA
ENDBRANCH   6  13
ENDBRANCH   1  10
BRANCH   5  14
ATOM     14  C   UNL     1       2.299   3.461  19.396  0.00  0.00    +0.000 A 
ATOM     15  C   UNL     1       1.514   2.860  18.388  0.00  0.00    +0.000 A 
ATOM     16  N   UNL     1       0.264   2.623  18.787  0.00  0.00    +0.000 NA
ATOM     17  N   UNL     1       0.263   3.013  20.073  0.00  0.00    +0.000 N 
ATOM     18  C   UNL     1       1.471   3.491  20.496  0.00  0.00    +0.000 A 
ATOM     19  H   UNL     1      -0.604   2.936  20.596  0.00  0.00    +0.000 HD
ENDBRANCH   5  14
BRANCH   2  20
ATOM     20  S   UNL     1       6.747   6.241  18.545  0.00  0.00    +0.000 S 
BRANCH  20  21
ATOM     21  C   UNL     1       6.872   6.122  16.743  0.00  0.00    +0.000 C 
BRANCH  21  22
ATOM     22  C   UNL     1       7.244   4.730  16.295  0.00  0.00    +0.000 C 
ATOM     23  O   UNL     1       6.816   4.203  15.277  0.00  0.00    +0.000 OA
BRANCH  22  24
ATOM     24  O   UNL     1       8.095   4.087  17.133  0.00  0.00    +0.000 OA
ATOM     25  H   UNL     1       7.793   3.190  17.406  0.00  0.00    +0.000 HD
ENDBRANCH  22  24
ENDBRANCH  21  22
ENDBRANCH  20  21
ENDBRANCH   2  20
TORSDOF 7
ENDMDL
MODEL 5
REMARK VINA RESULT:      -7.1      0.952      1.125
REMARK  Name = 
REMARK  8 active torsions:
REMARK  status: ('A' for Active; 'I' for Inactive)
REMARK    1  A    between atoms: C_1  and  O_2
REMARK    2  A    between atoms: O_2  and  C_3
REMARK    3  A    between atoms: C_7  and  N_8
REMARK    4  A    between atoms: C_9  and  S_10
REMARK    5  A    between atoms: S_10  and  C_11
REMARK    6  A    between atoms: C_11  and  C_12
REMARK    7  A    between atoms: C_12  and  O_14
REMARK    8  A    between atoms: C_17  and  C_18
REMARK                            x       y       z     vdW  Elec       q    Type
REMARK                         _______ _______ _______ _____ _____    ______ ____
ROOT
ATOM      1  N   UNL     1       4.538   5.340  17.625  0.00  0.00    +0.000 N 
ATOM      2  C   UNL     1       4.202   4.052  17.216  0.00  0.00    +0.000 A 
ATOM      3  N   UNL     1       5.244   3.443  16.693  0.00  0.00    +0.000 NA
ATOM      4  N   UNL     1       6.303   4.302  16.755  0.00  0.00    +0.000 NA
ATOM      5  C   UNL     1       5.920   5.386  17.404  0.00  0.00    +0.000 A 
ENDROOT
BRANCH   1  10
ATOM      6  C   UNL     1       2.178   7.254  19.816  0.00  0.00    +0.000 A 
ATOM      7  C   UNL     1       1.870   8.334  18.994  0.00  0.00    +0.000 A 
ATOM      8  C   UNL     1       2.505   8.485  17.765  0.00  0.00    +0.000 A 
ATOM      9  C   UNL     1       3.400   7.514  17.310  0.00  0.00    +0.000 A 
ATOM     10  C   UNL     1       3.702   6.404  18.107  0.00  0.00    +0.000 A 
ATOM     11  C   UNL     1       3.130   6.323  19.393  0.00  0.00    +0.000 A 
BRANCH   6  13
ATOM     12  C   UNL     1       0.841   8.394  21.429  0.00  0.00    +0.000 C 
ATOM     13  O   UNL     1       1.447   7.194  20.970  0.00  0.00    +0.000 OA
ENDBRANCH   6  13
ENDBRANCH   1  10
BRANCH   5  14
ATOM     14  C   UNL     1       6.904   6.414  17.853  0.00  0.00    +0.000 A 
ATOM     15  C   UNL     1       7.156   7.715  17.363  0.00  0.00    +0.000 A 
ATOM     16  N   UNL     1       8.179   8.304  17.982  0.00  0.00    +0.000 NA
ATOM     17  N   UNL     1       8.543   7.409  18.915  0.00  0.00    +0.000 N 
ATOM     18  C   UNL     1       7.785   6.272  18.901  0.00  0.00    +0.000 A 
ATOM     19  H   UNL     1       9.328   7.637  19.518  0.00  0.00    +0.000 HD
ENDBRANCH   5  14
BRANCH   2  20
ATOM     20  S   UNL     1       2.619   3.341  17.192  0.00  0.00    +0.000 S 
BRANCH  20  21
ATOM     21  C   UNL     1       2.412   2.817  18.913  0.00  0.00    +0.000 C 
BRANCH  21  22
ATOM     22  C   UNL     1       0.958   2.650  19.279  0.00  0.00    +0.000 C 
ATOM     23  O   UNL     1       0.108   2.205  18.518  0.00  0.00    +0.000 OA
BRANCH  22  24
ATOM     24  O   UNL     1       0.653   3.050  20.538  0.00  0.00    +0.000 OA
ATOM     25  H   UNL     1      -0.312   3.143  20.711  0.00  0.00    +0.000 HD
ENDBRANCH  22  24
ENDBRANCH  21  22
ENDBRANCH  20  21
ENDBRANCH   2  20
TORSDOF 7
ENDMDL
MODEL 6
REMARK VINA RESULT:      -7.1      1.067      1.614
REMARK  Name = 
REMARK  8 active torsions:
REMARK  status: ('A' for Active; 'I' for Inactive)
REMARK    1  A    between atoms: C_1  and  O_2
REMARK    2  A    between atoms: O_2  and  C_3
REMARK    3  A    between atoms: C_7  and  N_8
REMARK    4  A    between atoms: C_9  and  S_10
REMARK    5  A    between atoms: S_10  and  C_11
REMARK    6  A    between atoms: C_11  and  C_12
REMARK    7  A    between atoms: C_12  and  O_14
REMARK    8  A    between atoms: C_17  and  C_18
REMARK                            x       y       z     vdW  Elec       q    Type
REMARK                         _______ _______ _______ _____ _____    ______ ____
ROOT
ATOM      1  N   UNL     1       3.708   5.029  18.005  0.00  0.00    +0.000 N 
ATOM      2  C   UNL     1       3.267   3.723  17.803  0.00  0.00    +0.000 A 
ATOM      3  N   UNL     1       4.186   3.014  17.183  0.00  0.00    +0.000 NA
ATOM      4  N   UNL     1       5.265   3.823  16.972  0.00  0.00    +0.000 NA
ATOM      5  C   UNL     1       5.032   4.986  17.552  0.00  0.00    +0.000 A 
ENDROOT
BRANCH   1  10
ATOM      6  C   UNL     1       2.202   8.457  18.137  0.00  0.00    +0.000 A 
ATOM      7  C   UNL     1       1.836   8.534  19.477  0.00  0.00    +0.000 A 
ATOM      8  C   UNL     1       1.996   7.435  20.315  0.00  0.00    +0.000 A 
ATOM      9  C   UNL     1       2.595   6.267  19.836  0.00  0.00    +0.000 A 
ATOM     10  C   UNL     1       2.999   6.176  18.499  0.00  0.00    +0.000 A 
ATOM     11  C   UNL     1       2.732   7.263  17.642  0.00  0.00    +0.000 A 
BRANCH   6  13
ATOM     12  C   UNL     1       1.892  10.822  18.184  0.00  0.00    +0.000 C 
ATOM     13  O   UNL     1       2.043   9.621  17.438  0.00  0.00    +0.000 OA
ENDBRANCH   6  13
ENDBRANCH   1  10
BRANCH   5  14
ATOM     14  C   UNL     1       6.108   6.006  17.715  0.00  0.00    +0.000 A 
ATOM     15  C   UNL     1       6.317   7.230  17.042  0.00  0.00    +0.000 A 
ATOM     16  N   UNL     1       7.446   7.832  17.416  0.00  0.00    +0.000 NA
ATOM     17  N   UNL     1       7.931   7.028  18.376  0.00  0.00    +0.000 N 
ATOM     18  C   UNL     1       7.145   5.936  18.617  0.00  0.00    +0.000 A 
ATOM     19  H   UNL     1       8.811   7.281  18.814  0.00  0.00    +0.000 HD
ENDBRANCH   5  14
BRANCH   2  20
ATOM     20  S   UNL     1       1.683   3.091  18.123  0.00  0.00    +0.000 S 
BRANCH  20  21
ATOM     21  C   UNL     1       1.948   2.158  19.651  0.00  0.00    +0.000 C 
BRANCH  21  22
ATOM     22  C   UNL     1       1.352   2.857  20.847  0.00  0.00    +0.000 C 
ATOM     23  O   UNL     1       1.667   2.619  22.006  0.00  0.00    +0.000 OA
BRANCH  22  24
ATOM     24  O   UNL     1       0.408   3.779  20.537  0.00  0.00    +0.000 OA
ATOM     25  H   UNL     1       0.719   4.487  19.926  0.00  0.00    +0.000 HD
ENDBRANCH  22  24
ENDBRANCH  21  22
ENDBRANCH  20  21
ENDBRANCH   2  20
TORSDOF 7
ENDMDL
MODEL 7
REMARK VINA RESULT:      -7.1      3.824      5.845
REMARK  Name = 
REMARK  8 active torsions:
REMARK  status: ('A' for Active; 'I' for Inactive)
REMARK    1  A    between atoms: C_1  and  O_2
REMARK    2  A    between atoms: O_2  and  C_3
REMARK    3  A    between atoms: C_7  and  N_8
REMARK    4  A    between atoms: C_9  and  S_10
REMARK    5  A    between atoms: S_10  and  C_11
REMARK    6  A    between atoms: C_11  and  C_12
REMARK    7  A    between atoms: C_12  and  O_14
REMARK    8  A    between atoms: C_17  and  C_18
REMARK                            x       y       z     vdW  Elec       q    Type
REMARK                         _______ _______ _______ _____ _____    ______ ____
ROOT
ATOM      1  N   UNL     1       4.286   4.981  17.704  0.00  0.00    +0.000 N 
ATOM      2  C   UNL     1       4.092   3.978  16.757  0.00  0.00    +0.000 A 
ATOM      3  N   UNL     1       2.848   3.550  16.781  0.00  0.00    +0.000 NA
ATOM      4  N   UNL     1       2.180   4.266  17.733  0.00  0.00    +0.000 NA
ATOM      5  C   UNL     1       2.996   5.189  18.207  0.00  0.00    +0.000 A 
ENDROOT
BRANCH   1  10
ATOM      6  C   UNL     1       7.169   7.373  17.776  0.00  0.00    +0.000 A 
ATOM      7  C   UNL     1       7.971   6.792  18.754  0.00  0.00    +0.000 A 
ATOM      8  C   UNL     1       7.528   5.673  19.454  0.00  0.00    +0.000 A 
ATOM      9  C   UNL     1       6.307   5.078  19.129  0.00  0.00    +0.000 A 
ATOM     10  C   UNL     1       5.496   5.627  18.129  0.00  0.00    +0.000 A 
ATOM     11  C   UNL     1       5.914   6.821  17.505  0.00  0.00    +0.000 A 
BRANCH   6  13
ATOM     12  C   UNL     1       8.269   9.484  17.925  0.00  0.00    +0.000 C 
ATOM     13  O   UNL     1       7.742   8.431  17.129  0.00  0.00    +0.000 OA
ENDBRANCH   6  13
ENDBRANCH   1  10
BRANCH   5  14
ATOM     14  C   UNL     1       2.503   6.290  19.084  0.00  0.00    +0.000 A 
ATOM     15  C   UNL     1       2.318   7.663  18.811  0.00  0.00    +0.000 A 
ATOM     16  N   UNL     1       1.931   8.350  19.886  0.00  0.00    +0.000 NA
ATOM     17  N   UNL     1       1.805   7.408  20.836  0.00  0.00    +0.000 N 
ATOM     18  C   UNL     1       2.103   6.150  20.394  0.00  0.00    +0.000 A 
ATOM     19  H   UNL     1       1.524   7.700  21.767  0.00  0.00    +0.000 HD
ENDBRANCH   5  14
BRANCH   2  20
ATOM     20  S   UNL     1       5.303   3.216  15.775  0.00  0.00    +0.000 S 
BRANCH  20  21
ATOM     21  C   UNL     1       5.746   4.540  14.622  0.00  0.00    +0.000 C 
BRANCH  21  22
ATOM     22  C   UNL     1       7.201   4.922  14.736  0.00  0.00    +0.000 C 
ATOM     23  O   UNL     1       7.803   5.578  13.896  0.00  0.00    +0.000 OA
BRANCH  22  24
ATOM     24  O   UNL     1       7.808   4.462  15.858  0.00  0.00    +0.000 OA
ATOM     25  H   UNL     1       7.561   4.947  16.679  0.00  0.00    +0.000 HD
ENDBRANCH  22  24
ENDBRANCH  21  22
ENDBRANCH  20  21
ENDBRANCH   2  20
TORSDOF 7
ENDMDL
MODEL 8
REMARK VINA RESULT:      -7.0      3.506      5.361
REMARK  Name = 
REMARK  8 active torsions:
REMARK  status: ('A' for Active; 'I' for Inactive)
REMARK    1  A    between atoms: C_1  and  O_2
REMARK    2  A    between atoms: O_2  and  C_3
REMARK    3  A    between atoms: C_7  and  N_8
REMARK    4  A    between atoms: C_9  and  S_10
REMARK    5  A    between atoms: S_10  and  C_11
REMARK    6  A    between atoms: C_11  and  C_12
REMARK    7  A    between atoms: C_12  and  O_14
REMARK    8  A    between atoms: C_17  and  C_18
REMARK                            x       y       z     vdW  Elec       q    Type
REMARK                         _______ _______ _______ _____ _____    ______ ____
ROOT
ATOM      1  N   UNL     1       3.874   5.443  19.014  0.00  0.00    +0.000 N 
ATOM      2  C   UNL     1       5.062   5.349  18.291  0.00  0.00    +0.000 A 
ATOM      3  N   UNL     1       5.665   4.205  18.536  0.00  0.00    +0.000 NA
ATOM      4  N   UNL     1       4.889   3.505  19.414  0.00  0.00    +0.000 NA
ATOM      5  C   UNL     1       3.775   4.183  19.617  0.00  0.00    +0.000 A 
ENDROOT
BRANCH   1  10
ATOM      6  C   UNL     1       2.078   8.655  18.311  0.00  0.00    +0.000 A 
ATOM      7  C   UNL     1       1.427   8.865  19.523  0.00  0.00    +0.000 A 
ATOM      8  C   UNL     1       1.499   7.912  20.534  0.00  0.00    +0.000 A 
ATOM      9  C   UNL     1       2.288   6.771  20.372  0.00  0.00    +0.000 A 
ATOM     10  C   UNL     1       2.977   6.553  19.173  0.00  0.00    +0.000 A 
ATOM     11  C   UNL     1       2.806   7.477  18.122  0.00  0.00    +0.000 A 
BRANCH   6  13
ATOM     12  C   UNL     1       2.139  11.009  17.927  0.00  0.00    +0.000 C 
ATOM     13  O   UNL     1       1.972   9.690  17.424  0.00  0.00    +0.000 OA
ENDBRANCH   6  13
ENDBRANCH   1  10
BRANCH   5  14
ATOM     14  C   UNL     1       2.613   3.580  20.333  0.00  0.00    +0.000 A 
ATOM     15  C   UNL     1       2.481   3.170  21.678  0.00  0.00    +0.000 A 
ATOM     16  N   UNL     1       1.302   2.598  21.923  0.00  0.00    +0.000 NA
ATOM     17  N   UNL     1       0.650   2.700  20.752  0.00  0.00    +0.000 N 
ATOM     18  C   UNL     1       1.382   3.314  19.776  0.00  0.00    +0.000 A 
ATOM     19  H   UNL     1      -0.287   2.315  20.690  0.00  0.00    +0.000 HD
ENDBRANCH   5  14
BRANCH   2  20
ATOM     20  S   UNL     1       5.804   6.588  17.330  0.00  0.00    +0.000 S 
BRANCH  20  21
ATOM     21  C   UNL     1       5.512   5.989  15.647  0.00  0.00    +0.000 C 
BRANCH  21  22
ATOM     22  C   UNL     1       6.574   5.013  15.205  0.00  0.00    +0.000 C 
ATOM     23  O   UNL     1       7.661   5.344  14.750  0.00  0.00    +0.000 OA
BRANCH  22  24
ATOM     24  O   UNL     1       6.221   3.711  15.341  0.00  0.00    +0.000 OA
ATOM     25  H   UNL     1       6.565   3.281  16.159  0.00  0.00    +0.000 HD
ENDBRANCH  22  24
ENDBRANCH  21  22
ENDBRANCH  20  21
ENDBRANCH   2  20
TORSDOF 7
ENDMDL
MODEL 9
REMARK VINA RESULT:      -7.0      3.368      5.118
REMARK  Name = 
REMARK  8 active torsions:
REMARK  status: ('A' for Active; 'I' for Inactive)
REMARK    1  A    between atoms: C_1  and  O_2
REMARK    2  A    between atoms: O_2  and  C_3
REMARK    3  A    between atoms: C_7  and  N_8
REMARK    4  A    between atoms: C_9  and  S_10
REMARK    5  A    between atoms: S_10  and  C_11
REMARK    6  A    between atoms: C_11  and  C_12
REMARK    7  A    between atoms: C_12  and  O_14
REMARK    8  A    between atoms: C_17  and  C_18
REMARK                            x       y       z     vdW  Elec       q    Type
REMARK                         _______ _______ _______ _____ _____    ______ ____
ROOT
ATOM      1  N   UNL     1       4.091   5.451  18.902  0.00  0.00    +0.000 N 
ATOM      2  C   UNL     1       5.340   5.269  18.312  0.00  0.00    +0.000 A 
ATOM      3  N   UNL     1       5.851   4.106  18.653  0.00  0.00    +0.000 NA
ATOM      4  N   UNL     1       4.950   3.479  19.466  0.00  0.00    +0.000 NA
ATOM      5  C   UNL     1       3.861   4.221  19.529  0.00  0.00    +0.000 A 
ENDROOT
BRANCH   1  10
ATOM      6  C   UNL     1       1.626   7.987  20.137  0.00  0.00    +0.000 A 
ATOM      7  C   UNL     1       1.394   8.718  18.976  0.00  0.00    +0.000 A 
ATOM      8  C   UNL     1       2.112   8.443  17.817  0.00  0.00    +0.000 A 
ATOM      9  C   UNL     1       3.017   7.380  17.784  0.00  0.00    +0.000 A 
ATOM     10  C   UNL     1       3.245   6.611  18.931  0.00  0.00    +0.000 A 
ATOM     11  C   UNL     1       2.587   6.972  20.125  0.00  0.00    +0.000 A 
BRANCH   6  13
ATOM     12  C   UNL     1       0.258   9.627  21.199  0.00  0.00    +0.000 C 
ATOM     13  O   UNL     1       0.818   8.321  21.188  0.00  0.00    +0.000 OA
ENDBRANCH   6  13
ENDBRANCH   1  10
BRANCH   5  14
ATOM     14  C   UNL     1       2.600   3.705  20.137  0.00  0.00    +0.000 A 
ATOM     15  C   UNL     1       2.322   3.299  21.461  0.00  0.00    +0.000 A 
ATOM     16  N   UNL     1       1.086   2.818  21.598  0.00  0.00    +0.000 NA
ATOM     17  N   UNL     1       0.547   2.975  20.378  0.00  0.00    +0.000 N 
ATOM     18  C   UNL     1       1.405   3.536  19.474  0.00  0.00    +0.000 A 
ATOM     19  H   UNL     1      -0.408   2.664  20.232  0.00  0.00    +0.000 HD
ENDBRANCH   5  14
BRANCH   2  20
ATOM     20  S   UNL     1       6.245   6.433  17.396  0.00  0.00    +0.000 S 
BRANCH  20  21
ATOM     21  C   UNL     1       5.909   5.920  15.692  0.00  0.00    +0.000 C 
BRANCH  21  22
ATOM     22  C   UNL     1       6.801   4.783  15.261  0.00  0.00    +0.000 C 
ATOM     23  O   UNL     1       6.622   4.121  14.247  0.00  0.00    +0.000 OA
BRANCH  22  24
ATOM     24  O   UNL     1       7.831   4.534  16.107  0.00  0.00    +0.000 OA
ATOM     25  H   UNL     1       8.414   3.791  15.828  0.00  0.00    +0.000 HD
ENDBRANCH  22  24
ENDBRANCH  21  22
ENDBRANCH  20  21
ENDBRANCH   2  20
TORSDOF 7
ENDMDL
