MODEL 1
REMARK VINA RESULT:      -7.9      0.000      0.000
REMARK  Name = 
REMARK  3 active torsions:
REMARK  status: ('A' for Active; 'I' for Inactive)
REMARK    1  A    between atoms: O_1  and  C_2
REMARK    2  A    between atoms: C_5  and  C_6
REMARK    3  A    between atoms: C_15  and  O_16
REMARK                            x       y       z     vdW  Elec       q    Type
REMARK                         _______ _______ _______ _____ _____    ______ ____
ROOT
ATOM      1  C   UNL     1       6.615   5.326  16.085  0.00  0.00    +0.000 A 
ATOM      2  C   UNL     1       5.323   5.830  15.903  0.00  0.00    +0.000 A 
ATOM      3  C   UNL     1       4.338   5.625  16.873  0.00  0.00    +0.000 A 
ATOM      4  C   UNL     1       4.627   4.910  18.052  0.00  0.00    +0.000 A 
ATOM      5  C   UNL     1       5.940   4.416  18.227  0.00  0.00    +0.000 A 
ATOM      6  C   UNL     1       6.925   4.618  17.250  0.00  0.00    +0.000 A 
ENDROOT
BRANCH   4   7
ATOM      7  C   UNL     1       3.513   4.701  19.086  0.00  0.00    +0.000 C 
ATOM      8  C   UNL     1       2.097   4.855  18.435  0.00  0.00    +0.000 C 
ATOM      9  C   UNL     1       1.248   3.589  18.683  0.00  0.00    +0.000 C 
ATOM     10  C   UNL     1       1.062   3.391  20.202  0.00  0.00    +0.000 C 
ATOM     11  C   UNL     1       2.444   3.292  20.894  0.00  0.00    +0.000 C 
ATOM     12  C   UNL     1       3.569   3.332  19.833  0.00  0.00    +0.000 C 
ATOM     13  N   UNL     1       3.344   2.240  18.857  0.00  0.00    +0.000 NA
ATOM     14  C   UNL     1       2.048   2.378  18.150  0.00  0.00    +0.000 C 
ATOM     15  H   UNL     1       3.397   1.316  19.344  0.00  0.00    +0.000 HD
ENDBRANCH   4   7
BRANCH   1  16
ATOM     16  O   UNL     1       7.567   5.514  15.147  0.00  0.00    +0.000 OA
ATOM     17  H   UNL     1       7.934   4.783  14.631  0.00  0.00    +0.000 HD
ENDBRANCH   1  16
BRANCH   6  18
ATOM     18  O   UNL     1       8.171   4.129  17.433  0.00  0.00    +0.000 OA
ATOM     19  H   UNL     1       8.434   3.684  18.245  0.00  0.00    +0.000 HD
ENDBRANCH   6  18
TORSDOF 3
ENDMDL
MODEL 2
REMARK VINA RESULT:      -7.8      1.309      1.566
REMARK  Name = 
REMARK  3 active torsions:
REMARK  status: ('A' for Active; 'I' for Inactive)
REMARK    1  A    between atoms: O_1  and  C_2
REMARK    2  A    between atoms: C_5  and  C_6
REMARK    3  A    between atoms: C_15  and  O_16
REMARK                            x       y       z     vdW  Elec       q    Type
REMARK                         _______ _______ _______ _____ _____    ______ ____
ROOT
ATOM      1  C   UNL     1       6.425   5.351  15.869  0.00  0.00    +0.000 A 
ATOM      2  C   UNL     1       5.556   4.259  15.759  0.00  0.00    +0.000 A 
ATOM      3  C   UNL     1       4.409   4.185  16.554  0.00  0.00    +0.000 A 
ATOM      4  C   UNL     1       4.103   5.204  17.476  0.00  0.00    +0.000 A 
ATOM      5  C   UNL     1       4.984   6.306  17.568  0.00  0.00    +0.000 A 
ATOM      6  C   UNL     1       6.138   6.377  16.774  0.00  0.00    +0.000 A 
ENDROOT
BRANCH   4   7
ATOM      7  C   UNL     1       2.838   5.076  18.333  0.00  0.00    +0.000 C 
ATOM      8  C   UNL     1       1.850   4.017  17.735  0.00  0.00    +0.000 C 
ATOM      9  C   UNL     1       1.514   2.938  18.788  0.00  0.00    +0.000 C 
ATOM     10  C   UNL     1       0.830   3.605  20.000  0.00  0.00    +0.000 C 
ATOM     11  C   UNL     1       1.751   4.703  20.587  0.00  0.00    +0.000 C 
ATOM     12  C   UNL     1       3.101   4.719  19.830  0.00  0.00    +0.000 C 
ATOM     13  N   UNL     1       3.707   3.370  19.905  0.00  0.00    +0.000 NA
ATOM     14  C   UNL     1       2.849   2.334  19.281  0.00  0.00    +0.000 C 
ATOM     15  H   UNL     1       3.904   3.128  20.903  0.00  0.00    +0.000 HD
ENDBRANCH   4   7
BRANCH   1  16
ATOM     16  O   UNL     1       7.539   5.423  15.110  0.00  0.00    +0.000 OA
ATOM     17  H   UNL     1       8.375   5.021  15.383  0.00  0.00    +0.000 HD
ENDBRANCH   1  16
BRANCH   6  18
ATOM     18  O   UNL     1       6.973   7.434  16.884  0.00  0.00    +0.000 OA
ATOM     19  H   UNL     1       7.298   7.745  17.735  0.00  0.00    +0.000 HD
ENDBRANCH   6  18
TORSDOF 3
ENDMDL
MODEL 3
REMARK VINA RESULT:      -7.6      1.326      1.515
REMARK  Name = 
REMARK  3 active torsions:
REMARK  status: ('A' for Active; 'I' for Inactive)
REMARK    1  A    between atoms: O_1  and  C_2
REMARK    2  A    between atoms: C_5  and  C_6
REMARK    3  A    between atoms: C_15  and  O_16
REMARK                            x       y       z     vdW  Elec       q    Type
REMARK                         _______ _______ _______ _____ _____    ______ ____
ROOT
ATOM      1  C   UNL     1       6.837   5.182  15.358  0.00  0.00    +0.000 A 
ATOM      2  C   UNL     1       5.874   4.202  15.088  0.00  0.00    +0.000 A 
ATOM      3  C   UNL     1       4.830   3.970  15.987  0.00  0.00    +0.000 A 
ATOM      4  C   UNL     1       4.724   4.715  17.177  0.00  0.00    +0.000 A 
ATOM      5  C   UNL     1       5.698   5.708  17.431  0.00  0.00    +0.000 A 
ATOM      6  C   UNL     1       6.748   5.937  16.531  0.00  0.00    +0.000 A 
ENDROOT
BRANCH   4   7
ATOM      7  C   UNL     1       3.566   4.419  18.139  0.00  0.00    +0.000 C 
ATOM      8  C   UNL     1       2.507   3.472  17.480  0.00  0.00    +0.000 C 
ATOM      9  C   UNL     1       2.286   2.218  18.354  0.00  0.00    +0.000 C 
ATOM     10  C   UNL     1       1.755   2.648  19.737  0.00  0.00    +0.000 C 
ATOM     11  C   UNL     1       2.748   3.635  20.401  0.00  0.00    +0.000 C 
ATOM     12  C   UNL     1       3.999   3.804  19.507  0.00  0.00    +0.000 C 
ATOM     13  N   UNL     1       4.599   2.471  19.267  0.00  0.00    +0.000 NA
ATOM     14  C   UNL     1       3.665   1.552  18.572  0.00  0.00    +0.000 C 
ATOM     15  H   UNL     1       4.909   2.056  20.176  0.00  0.00    +0.000 HD
ENDBRANCH   4   7
BRANCH   1  16
ATOM     16  O   UNL     1       7.852   5.404  14.497  0.00  0.00    +0.000 OA
ATOM     17  H   UNL     1       8.420   6.185  14.560  0.00  0.00    +0.000 HD
ENDBRANCH   1  16
BRANCH   6  18
ATOM     18  O   UNL     1       7.675   6.884  16.795  0.00  0.00    +0.000 OA
ATOM     19  H   UNL     1       8.619   6.695  16.790  0.00  0.00    +0.000 HD
ENDBRANCH   6  18
TORSDOF 3
ENDMDL
MODEL 4
REMARK VINA RESULT:      -7.6      1.318      1.490
REMARK  Name = 
REMARK  3 active torsions:
REMARK  status: ('A' for Active; 'I' for Inactive)
REMARK    1  A    between atoms: O_1  and  C_2
REMARK    2  A    between atoms: C_5  and  C_6
REMARK    3  A    between atoms: C_15  and  O_16
REMARK                            x       y       z     vdW  Elec       q    Type
REMARK                         _______ _______ _______ _____ _____    ______ ____
ROOT
ATOM      1  C   UNL     1       6.419   5.441  15.951  0.00  0.00    +0.000 A 
ATOM      2  C   UNL     1       5.988   6.470  16.796  0.00  0.00    +0.000 A 
ATOM      3  C   UNL     1       4.820   6.324  17.550  0.00  0.00    +0.000 A 
ATOM      4  C   UNL     1       4.058   5.142  17.478  0.00  0.00    +0.000 A 
ATOM      5  C   UNL     1       4.512   4.107  16.628  0.00  0.00    +0.000 A 
ATOM      6  C   UNL     1       5.681   4.257  15.868  0.00  0.00    +0.000 A 
ENDROOT
BRANCH   4   7
ATOM      7  C   UNL     1       2.779   5.030  18.317  0.00  0.00    +0.000 C 
ATOM      8  C   UNL     1       1.810   3.947  17.734  0.00  0.00    +0.000 C 
ATOM      9  C   UNL     1       1.462   2.897  18.812  0.00  0.00    +0.000 C 
ATOM     10  C   UNL     1       0.753   3.595  19.992  0.00  0.00    +0.000 C 
ATOM     11  C   UNL     1       1.656   4.716  20.562  0.00  0.00    +0.000 C 
ATOM     12  C   UNL     1       3.018   4.720  19.828  0.00  0.00    +0.000 C 
ATOM     13  N   UNL     1       3.632   3.378  19.953  0.00  0.00    +0.000 NA
ATOM     14  C   UNL     1       2.792   2.317  19.346  0.00  0.00    +0.000 C 
ATOM     15  H   UNL     1       3.814   3.167  20.962  0.00  0.00    +0.000 HD
ENDBRANCH   4   7
BRANCH   1  16
ATOM     16  O   UNL     1       7.541   5.580  15.214  0.00  0.00    +0.000 OA
ATOM     17  H   UNL     1       8.044   6.406  15.192  0.00  0.00    +0.000 HD
ENDBRANCH   1  16
BRANCH   6  18
ATOM     18  O   UNL     1       6.093   3.259  15.054  0.00  0.00    +0.000 OA
ATOM     19  H   UNL     1       6.330   2.389  15.390  0.00  0.00    +0.000 HD
ENDBRANCH   6  18
TORSDOF 3
ENDMDL
MODEL 5
REMARK VINA RESULT:      -7.5      1.337      1.701
REMARK  Name = 
REMARK  3 active torsions:
REMARK  status: ('A' for Active; 'I' for Inactive)
REMARK    1  A    between atoms: O_1  and  C_2
REMARK    2  A    between atoms: C_5  and  C_6
REMARK    3  A    between atoms: C_15  and  O_16
REMARK                            x       y       z     vdW  Elec       q    Type
REMARK                         _______ _______ _______ _____ _____    ______ ____
ROOT
ATOM      1  C   UNL     1       6.868   5.226  15.440  0.00  0.00    +0.000 A 
ATOM      2  C   UNL     1       6.641   6.009  16.578  0.00  0.00    +0.000 A 
ATOM      3  C   UNL     1       5.561   5.735  17.422  0.00  0.00    +0.000 A 
ATOM      4  C   UNL     1       4.684   4.668  17.147  0.00  0.00    +0.000 A 
ATOM      5  C   UNL     1       4.932   3.880  15.999  0.00  0.00    +0.000 A 
ATOM      6  C   UNL     1       6.013   4.159  15.151  0.00  0.00    +0.000 A 
ENDROOT
BRANCH   4   7
ATOM      7  C   UNL     1       3.506   4.410  18.095  0.00  0.00    +0.000 C 
ATOM      8  C   UNL     1       2.418   3.509  17.420  0.00  0.00    +0.000 C 
ATOM      9  C   UNL     1       2.142   2.259  18.283  0.00  0.00    +0.000 C 
ATOM     10  C   UNL     1       1.613   2.700  19.664  0.00  0.00    +0.000 C 
ATOM     11  C   UNL     1       2.636   3.643  20.344  0.00  0.00    +0.000 C 
ATOM     12  C   UNL     1       3.902   3.770  19.463  0.00  0.00    +0.000 C 
ATOM     13  N   UNL     1       4.453   2.417  19.220  0.00  0.00    +0.000 NA
ATOM     14  C   UNL     1       3.492   1.539  18.510  0.00  0.00    +0.000 C 
ATOM     15  H   UNL     1       4.738   1.985  20.129  0.00  0.00    +0.000 HD
ENDBRANCH   4   7
BRANCH   1  16
ATOM     16  O   UNL     1       7.905   5.491  14.618  0.00  0.00    +0.000 OA
ATOM     17  H   UNL     1       8.613   4.852  14.458  0.00  0.00    +0.000 HD
ENDBRANCH   1  16
BRANCH   6  18
ATOM     18  O   UNL     1       6.228   3.399  14.054  0.00  0.00    +0.000 OA
ATOM     19  H   UNL     1       6.622   3.757  13.252  0.00  0.00    +0.000 HD
ENDBRANCH   6  18
TORSDOF 3
ENDMDL
MODEL 6
REMARK VINA RESULT:      -7.5      1.109      1.835
REMARK  Name = 
REMARK  3 active torsions:
REMARK  status: ('A' for Active; 'I' for Inactive)
REMARK    1  A    between atoms: O_1  and  C_2
REMARK    2  A    between atoms: C_5  and  C_6
REMARK    3  A    between atoms: C_15  and  O_16
REMARK                            x       y       z     vdW  Elec       q    Type
REMARK                         _______ _______ _______ _____ _____    ______ ____
ROOT
ATOM      1  C   UNL     1       6.641   6.267  17.105  0.00  0.00    +0.000 A 
ATOM      2  C   UNL     1       6.787   5.748  18.397  0.00  0.00    +0.000 A 
ATOM      3  C   UNL     1       5.678   5.257  19.092  0.00  0.00    +0.000 A 
ATOM      4  C   UNL     1       4.397   5.273  18.508  0.00  0.00    +0.000 A 
ATOM      5  C   UNL     1       4.267   5.790  17.199  0.00  0.00    +0.000 A 
ATOM      6  C   UNL     1       5.379   6.287  16.505  0.00  0.00    +0.000 A 
ENDROOT
BRANCH   4   7
ATOM      7  C   UNL     1       3.207   4.733  19.312  0.00  0.00    +0.000 C 
ATOM      8  C   UNL     1       1.895   4.733  18.456  0.00  0.00    +0.000 C 
ATOM      9  C   UNL     1       1.277   3.319  18.416  0.00  0.00    +0.000 C 
ATOM     10  C   UNL     1       0.917   2.878  19.850  0.00  0.00    +0.000 C 
ATOM     11  C   UNL     1       2.179   2.920  20.747  0.00  0.00    +0.000 C 
ATOM     12  C   UNL     1       3.416   3.301  19.899  0.00  0.00    +0.000 C 
ATOM     13  N   UNL     1       3.545   2.336  18.783  0.00  0.00    +0.000 NA
ATOM     14  C   UNL     1       2.361   2.350  17.890  0.00  0.00    +0.000 C 
ATOM     15  H   UNL     1       3.704   1.375  19.164  0.00  0.00    +0.000 HD
ENDBRANCH   4   7
BRANCH   1  16
ATOM     16  O   UNL     1       7.707   6.749  16.433  0.00  0.00    +0.000 OA
ATOM     17  H   UNL     1       7.918   6.470  15.532  0.00  0.00    +0.000 HD
ENDBRANCH   1  16
BRANCH   6  18
ATOM     18  O   UNL     1       5.233   6.786  15.257  0.00  0.00    +0.000 OA
ATOM     19  H   UNL     1       4.612   6.411  14.624  0.00  0.00    +0.000 HD
ENDBRANCH   6  18
TORSDOF 3
ENDMDL
MODEL 7
REMARK VINA RESULT:      -7.4      1.278      1.278
REMARK  Name = 
REMARK  3 active torsions:
REMARK  status: ('A' for Active; 'I' for Inactive)
REMARK    1  A    between atoms: O_1  and  C_2
REMARK    2  A    between atoms: C_5  and  C_6
REMARK    3  A    between atoms: C_15  and  O_16
REMARK                            x       y       z     vdW  Elec       q    Type
REMARK                         _______ _______ _______ _____ _____    ______ ____
ROOT
ATOM      1  C   UNL     1       6.747   6.570  17.342  0.00  0.00    +0.000 A 
ATOM      2  C   UNL     1       5.481   6.538  16.747  0.00  0.00    +0.000 A 
ATOM      3  C   UNL     1       4.407   5.924  17.399  0.00  0.00    +0.000 A 
ATOM      4  C   UNL     1       4.577   5.330  18.665  0.00  0.00    +0.000 A 
ATOM      5  C   UNL     1       5.860   5.379  19.257  0.00  0.00    +0.000 A 
ATOM      6  C   UNL     1       6.937   5.990  18.600  0.00  0.00    +0.000 A 
ENDROOT
BRANCH   4   7
ATOM      7  C   UNL     1       3.373   4.660  19.339  0.00  0.00    +0.000 C 
ATOM      8  C   UNL     1       2.135   4.619  18.381  0.00  0.00    +0.000 C 
ATOM      9  C   UNL     1       1.630   3.169  18.213  0.00  0.00    +0.000 C 
ATOM     10  C   UNL     1       1.194   2.619  19.588  0.00  0.00    +0.000 C 
ATOM     11  C   UNL     1       2.377   2.696  20.585  0.00  0.00    +0.000 C 
ATOM     12  C   UNL     1       3.643   3.214  19.862  0.00  0.00    +0.000 C 
ATOM     13  N   UNL     1       3.930   2.329  18.709  0.00  0.00    +0.000 NA
ATOM     14  C   UNL     1       2.821   2.313  17.725  0.00  0.00    +0.000 C 
ATOM     15  H   UNL     1       4.130   1.361  19.050  0.00  0.00    +0.000 HD
ENDBRANCH   4   7
BRANCH   1  16
ATOM     16  O   UNL     1       7.789   7.153  16.713  0.00  0.00    +0.000 OA
ATOM     17  H   UNL     1       7.843   7.209  15.749  0.00  0.00    +0.000 HD
ENDBRANCH   1  16
BRANCH   6  18
ATOM     18  O   UNL     1       8.157   6.019  19.180  0.00  0.00    +0.000 OA
ATOM     19  H   UNL     1       8.271   6.121  20.131  0.00  0.00    +0.000 HD
ENDBRANCH   6  18
TORSDOF 3
ENDMDL
MODEL 8
REMARK VINA RESULT:      -7.3      3.132      5.482
REMARK  Name = 
REMARK  3 active torsions:
REMARK  status: ('A' for Active; 'I' for Inactive)
REMARK    1  A    between atoms: O_1  and  C_2
REMARK    2  A    between atoms: C_5  and  C_6
REMARK    3  A    between atoms: C_15  and  O_16
REMARK                            x       y       z     vdW  Elec       q    Type
REMARK                         _______ _______ _______ _____ _____    ______ ____
ROOT
ATOM      1  C   UNL     1       1.306   3.610  19.620  0.00  0.00    +0.000 A 
ATOM      2  C   UNL     1       1.821   4.905  19.745  0.00  0.00    +0.000 A 
ATOM      3  C   UNL     1       2.835   5.349  18.892  0.00  0.00    +0.000 A 
ATOM      4  C   UNL     1       3.355   4.506  17.890  0.00  0.00    +0.000 A 
ATOM      5  C   UNL     1       2.817   3.205  17.770  0.00  0.00    +0.000 A 
ATOM      6  C   UNL     1       1.804   2.759  18.630  0.00  0.00    +0.000 A 
ENDROOT
BRANCH   4   7
ATOM      7  C   UNL     1       4.474   5.033  16.983  0.00  0.00    +0.000 C 
ATOM      8  C   UNL     1       4.910   6.479  17.398  0.00  0.00    +0.000 C 
ATOM      9  C   UNL     1       6.428   6.525  17.679  0.00  0.00    +0.000 C 
ATOM     10  C   UNL     1       7.196   6.139  16.397  0.00  0.00    +0.000 C 
ATOM     11  C   UNL     1       6.750   4.735  15.918  0.00  0.00    +0.000 C 
ATOM     12  C   UNL     1       5.745   4.128  16.927  0.00  0.00    +0.000 C 
ATOM     13  N   UNL     1       6.374   4.097  18.267  0.00  0.00    +0.000 NA
ATOM     14  C   UNL     1       6.738   5.452  18.748  0.00  0.00    +0.000 C 
ATOM     15  H   UNL     1       7.218   3.479  18.246  0.00  0.00    +0.000 HD
ENDBRANCH   4   7
BRANCH   1  16
ATOM     16  O   UNL     1       0.333   3.174  20.447  0.00  0.00    +0.000 OA
ATOM     17  H   UNL     1       0.474   2.450  21.073  0.00  0.00    +0.000 HD
ENDBRANCH   1  16
BRANCH   6  18
ATOM     18  O   UNL     1       1.309   1.507  18.504  0.00  0.00    +0.000 OA
ATOM     19  H   UNL     1       1.183   1.089  17.646  0.00  0.00    +0.000 HD
ENDBRANCH   6  18
TORSDOF 3
ENDMDL
MODEL 9
REMARK VINA RESULT:      -7.3      2.952      5.225
REMARK  Name = 
REMARK  3 active torsions:
REMARK  status: ('A' for Active; 'I' for Inactive)
REMARK    1  A    between atoms: O_1  and  C_2
REMARK    2  A    between atoms: C_5  and  C_6
REMARK    3  A    between atoms: C_15  and  O_16
REMARK                            x       y       z     vdW  Elec       q    Type
REMARK                         _______ _______ _______ _____ _____    ______ ____
ROOT
ATOM      1  C   UNL     1       1.839   2.761  18.198  0.00  0.00    +0.000 A 
ATOM      2  C   UNL     1       1.553   4.121  18.031  0.00  0.00    +0.000 A 
ATOM      3  C   UNL     1       2.576   5.072  18.090  0.00  0.00    +0.000 A 
ATOM      4  C   UNL     1       3.910   4.682  18.317  0.00  0.00    +0.000 A 
ATOM      5  C   UNL     1       4.185   3.304  18.474  0.00  0.00    +0.000 A 
ATOM      6  C   UNL     1       3.157   2.352  18.419  0.00  0.00    +0.000 A 
ENDROOT
BRANCH   4   7
ATOM      7  C   UNL     1       4.998   5.761  18.384  0.00  0.00    +0.000 C 
ATOM      8  C   UNL     1       6.215   5.289  19.249  0.00  0.00    +0.000 C 
ATOM      9  C   UNL     1       7.524   5.379  18.435  0.00  0.00    +0.000 C 
ATOM     10  C   UNL     1       7.767   6.846  18.021  0.00  0.00    +0.000 C 
ATOM     11  C   UNL     1       6.557   7.372  17.210  0.00  0.00    +0.000 C 
ATOM     12  C   UNL     1       5.531   6.233  16.994  0.00  0.00    +0.000 C 
ATOM     13  N   UNL     1       6.211   5.099  16.328  0.00  0.00    +0.000 NA
ATOM     14  C   UNL     1       7.326   4.557  17.140  0.00  0.00    +0.000 C 
ATOM     15  H   UNL     1       6.556   5.399  15.387  0.00  0.00    +0.000 HD
ENDBRANCH   4   7
BRANCH   1  16
ATOM     16  O   UNL     1       0.854   1.840  18.150  0.00  0.00    +0.000 OA
ATOM     17  H   UNL     1      -0.082   2.084  18.172  0.00  0.00    +0.000 HD
ENDBRANCH   1  16
BRANCH   6  18
ATOM     18  O   UNL     1       3.439   1.040  18.581  0.00  0.00    +0.000 OA
ATOM     19  H   UNL     1       3.821   0.694  19.394  0.00  0.00    +0.000 HD
ENDBRANCH   6  18
TORSDOF 3
ENDMDL
