MODEL 1
REMARK VINA RESULT:      -7.7      0.000      0.000
REMARK  Name = 
REMARK  6 active torsions:
REMARK  status: ('A' for Active; 'I' for Inactive)
REMARK    1  A    between atoms: C_1  and  C_2
REMARK    2  A    between atoms: N_6  and  C_7
REMARK    3  A    between atoms: C_17  and  N_18
REMARK    4  A    between atoms: C_19  and  C_21
REMARK    5  A    between atoms: C_21  and  C_22
REMARK    6  A    between atoms: C_21  and  C_23
REMARK                            x       y       z     vdW  Elec       q    Type
REMARK                         _______ _______ _______ _____ _____    ______ ____
ROOT
ATOM      1  C   UNL     1       3.972   2.564  18.309  0.00  0.00    +0.000 C 
ATOM      2  C   UNL     1       3.632   4.035  18.358  0.00  0.00    +0.000 A 
ATOM      3  C   UNL     1       2.903   4.455  19.508  0.00  0.00    +0.000 A 
ATOM      4  C   UNL     1       2.545   5.809  19.545  0.00  0.00    +0.000 A 
ATOM      5  N   UNL     1       1.883   6.481  20.488  0.00  0.00    +0.000 NA
ATOM      6  N   UNL     1       1.795   7.727  19.973  0.00  0.00    +0.000 N 
ATOM      7  N   UNL     1       2.353   7.923  18.754  0.00  0.00    +0.000 NA
ATOM      8  C   UNL     1       2.873   6.721  18.463  0.00  0.00    +0.000 A 
ATOM      9  C   UNL     1       3.609   6.312  17.339  0.00  0.00    +0.000 A 
ATOM     10  C   UNL     1       4.022   4.954  17.314  0.00  0.00    +0.000 A 
ENDROOT
BRANCH   6  11
ATOM     11  C   UNL     1       1.127   8.770  20.669  0.00  0.00    +0.000 A 
ATOM     12  C   UNL     1       0.952   8.675  22.059  0.00  0.00    +0.000 A 
ATOM     13  C   UNL     1       0.274   9.683  22.750  0.00  0.00    +0.000 A 
ATOM     14  C   UNL     1      -0.230  10.781  22.053  0.00  0.00    +0.000 A 
ATOM     15 CL   UNL     1      -1.087  12.006  22.905  0.00  0.00    +0.000 Cl
ATOM     16  C   UNL     1      -0.051  10.887  20.675  0.00  0.00    +0.000 A 
ATOM     17  C   UNL     1       0.634   9.888  19.980  0.00  0.00    +0.000 A 
ENDBRANCH   6  11
BRANCH  10  18
ATOM     18  N   UNL     1       4.836   4.479  16.239  0.00  0.00    +0.000 N 
ATOM     19  C   UNL     1       5.945   5.134  15.716  0.00  0.00    +0.000 C 
ATOM     20  O   UNL     1       6.417   6.186  16.144  0.00  0.00    +0.000 OA
ATOM     21  H   UNL     1       4.678   3.529  15.930  0.00  0.00    +0.000 HD
BRANCH  19  22
ATOM     22  C   UNL     1       6.645   4.445  14.541  0.00  0.00    +0.000 C 
ATOM     23  C   UNL     1       5.656   3.804  13.578  0.00  0.00    +0.000 C 
ATOM     24  C   UNL     1       7.620   5.372  13.828  0.00  0.00    +0.000 C 
ENDBRANCH  19  22
ENDBRANCH  10  18
TORSDOF 3
ENDMDL
MODEL 2
REMARK VINA RESULT:      -7.7      3.937      8.661
REMARK  Name = 
REMARK  6 active torsions:
REMARK  status: ('A' for Active; 'I' for Inactive)
REMARK    1  A    between atoms: C_1  and  C_2
REMARK    2  A    between atoms: N_6  and  C_7
REMARK    3  A    between atoms: C_17  and  N_18
REMARK    4  A    between atoms: C_19  and  C_21
REMARK    5  A    between atoms: C_21  and  C_22
REMARK    6  A    between atoms: C_21  and  C_23
REMARK                            x       y       z     vdW  Elec       q    Type
REMARK                         _______ _______ _______ _____ _____    ______ ____
ROOT
ATOM      1  C   UNL     1      -0.162   9.233  22.825  0.00  0.00    +0.000 C 
ATOM      2  C   UNL     1       0.469   9.042  21.466  0.00  0.00    +0.000 A 
ATOM      3  C   UNL     1       1.195   7.829  21.295  0.00  0.00    +0.000 A 
ATOM      4  C   UNL     1       1.821   7.660  20.052  0.00  0.00    +0.000 A 
ATOM      5  N   UNL     1       2.546   6.634  19.605  0.00  0.00    +0.000 NA
ATOM      6  N   UNL     1       2.921   7.036  18.371  0.00  0.00    +0.000 N 
ATOM      7  N   UNL     1       2.493   8.258  17.973  0.00  0.00    +0.000 NA
ATOM      8  C   UNL     1       1.756   8.674  19.014  0.00  0.00    +0.000 A 
ATOM      9  C   UNL     1       1.024   9.861  19.176  0.00  0.00    +0.000 A 
ATOM     10  C   UNL     1       0.343  10.022  20.410  0.00  0.00    +0.000 A 
ENDROOT
BRANCH   6  11
ATOM     11  C   UNL     1       3.743   6.223  17.545  0.00  0.00    +0.000 A 
ATOM     12  C   UNL     1       4.693   6.826  16.705  0.00  0.00    +0.000 A 
ATOM     13  C   UNL     1       5.491   6.038  15.871  0.00  0.00    +0.000 A 
ATOM     14  C   UNL     1       5.335   4.652  15.873  0.00  0.00    +0.000 A 
ATOM     15 CL   UNL     1       6.300   3.688  14.824  0.00  0.00    +0.000 Cl
ATOM     16  C   UNL     1       4.401   4.046  16.711  0.00  0.00    +0.000 A 
ATOM     17  C   UNL     1       3.608   4.827  17.555  0.00  0.00    +0.000 A 
ENDBRANCH   6  11
BRANCH  10  18
ATOM     18  N   UNL     1      -0.482  11.170  20.624  0.00  0.00    +0.000 N 
ATOM     19  C   UNL     1      -0.057  12.380  21.159  0.00  0.00    +0.000 C 
ATOM     20  O   UNL     1       1.100  12.653  21.470  0.00  0.00    +0.000 OA
ATOM     21  H   UNL     1      -1.410  11.147  20.224  0.00  0.00    +0.000 HD
BRANCH  19  22
ATOM     22  C   UNL     1      -1.131  13.460  21.323  0.00  0.00    +0.000 C 
ATOM     23  C   UNL     1      -1.151  14.433  20.153  0.00  0.00    +0.000 C 
ATOM     24  C   UNL     1      -2.506  12.867  21.599  0.00  0.00    +0.000 C 
ENDBRANCH  19  22
ENDBRANCH  10  18
TORSDOF 3
ENDMDL
MODEL 3
REMARK VINA RESULT:      -7.7      3.968      8.671
REMARK  Name = 
REMARK  6 active torsions:
REMARK  status: ('A' for Active; 'I' for Inactive)
REMARK    1  A    between atoms: C_1  and  C_2
REMARK    2  A    between atoms: N_6  and  C_7
REMARK    3  A    between atoms: C_17  and  N_18
REMARK    4  A    between atoms: C_19  and  C_21
REMARK    5  A    between atoms: C_21  and  C_22
REMARK    6  A    between atoms: C_21  and  C_23
REMARK                            x       y       z     vdW  Elec       q    Type
REMARK                         _______ _______ _______ _____ _____    ______ ____
ROOT
ATOM      1  C   UNL     1      -0.125   9.434  22.905  0.00  0.00    +0.000 C 
ATOM      2  C   UNL     1       0.442   9.200  21.525  0.00  0.00    +0.000 A 
ATOM      3  C   UNL     1       1.205   8.007  21.373  0.00  0.00    +0.000 A 
ATOM      4  C   UNL     1       1.772   7.800  20.108  0.00  0.00    +0.000 A 
ATOM      5  N   UNL     1       2.513   6.781  19.672  0.00  0.00    +0.000 NA
ATOM      6  N   UNL     1       2.807   7.134  18.402  0.00  0.00    +0.000 N 
ATOM      7  N   UNL     1       2.311   8.318  17.969  0.00  0.00    +0.000 NA
ATOM      8  C   UNL     1       1.613   8.758  19.028  0.00  0.00    +0.000 A 
ATOM      9  C   UNL     1       0.844   9.924  19.172  0.00  0.00    +0.000 A 
ATOM     10  C   UNL     1       0.222  10.120  20.432  0.00  0.00    +0.000 A 
ENDROOT
BRANCH   6  11
ATOM     11  C   UNL     1       3.617   6.313  17.573  0.00  0.00    +0.000 A 
ATOM     12  C   UNL     1       3.445   4.919  17.597  0.00  0.00    +0.000 A 
ATOM     13  C   UNL     1       4.253   4.100  16.804  0.00  0.00    +0.000 A 
ATOM     14  C   UNL     1       5.234   4.672  15.995  0.00  0.00    +0.000 A 
ATOM     15 CL   UNL     1       6.246   3.657  15.041  0.00  0.00    +0.000 Cl
ATOM     16  C   UNL     1       5.405   6.055  15.958  0.00  0.00    +0.000 A 
ATOM     17  C   UNL     1       4.593   6.880  16.740  0.00  0.00    +0.000 A 
ENDBRANCH   6  11
BRANCH  10  18
ATOM     18  N   UNL     1      -0.636  11.246  20.635  0.00  0.00    +0.000 N 
ATOM     19  C   UNL     1      -0.253  12.463  21.186  0.00  0.00    +0.000 C 
ATOM     20  O   UNL     1       0.891  12.763  21.522  0.00  0.00    +0.000 OA
ATOM     21  H   UNL     1      -1.555  11.202  20.216  0.00  0.00    +0.000 HD
BRANCH  19  22
ATOM     22  C   UNL     1      -1.356  13.515  21.333  0.00  0.00    +0.000 C 
ATOM     23  C   UNL     1      -1.061  14.775  20.531  0.00  0.00    +0.000 C 
ATOM     24  C   UNL     1      -2.735  12.949  21.024  0.00  0.00    +0.000 C 
ENDBRANCH  19  22
ENDBRANCH  10  18
TORSDOF 3
ENDMDL
MODEL 4
REMARK VINA RESULT:      -7.6      3.996      8.648
REMARK  Name = 
REMARK  6 active torsions:
REMARK  status: ('A' for Active; 'I' for Inactive)
REMARK    1  A    between atoms: C_1  and  C_2
REMARK    2  A    between atoms: N_6  and  C_7
REMARK    3  A    between atoms: C_17  and  N_18
REMARK    4  A    between atoms: C_19  and  C_21
REMARK    5  A    between atoms: C_21  and  C_22
REMARK    6  A    between atoms: C_21  and  C_23
REMARK                            x       y       z     vdW  Elec       q    Type
REMARK                         _______ _______ _______ _____ _____    ______ ____
ROOT
ATOM      1  C   UNL     1      -0.197   9.437  22.803  0.00  0.00    +0.000 C 
ATOM      2  C   UNL     1       0.436   9.224  21.449  0.00  0.00    +0.000 A 
ATOM      3  C   UNL     1       1.140   7.996  21.289  0.00  0.00    +0.000 A 
ATOM      4  C   UNL     1       1.769   7.807  20.050  0.00  0.00    +0.000 A 
ATOM      5  N   UNL     1       2.477   6.765  19.615  0.00  0.00    +0.000 NA
ATOM      6  N   UNL     1       2.863   7.150  18.379  0.00  0.00    +0.000 N 
ATOM      7  N   UNL     1       2.459   8.376  17.969  0.00  0.00    +0.000 NA
ATOM      8  C   UNL     1       1.726   8.814  19.005  0.00  0.00    +0.000 A 
ATOM      9  C   UNL     1       1.015  10.016  19.154  0.00  0.00    +0.000 A 
ATOM     10  C   UNL     1       0.332  10.197  20.385  0.00  0.00    +0.000 A 
ENDROOT
BRANCH   6  11
ATOM     11  C   UNL     1       3.674   6.316  17.563  0.00  0.00    +0.000 A 
ATOM     12  C   UNL     1       3.516   4.922  17.622  0.00  0.00    +0.000 A 
ATOM     13  C   UNL     1       4.326   4.092  16.842  0.00  0.00    +0.000 A 
ATOM     14  C   UNL     1       5.294   4.653  16.011  0.00  0.00    +0.000 A 
ATOM     15 CL   UNL     1       6.307   3.625  15.073  0.00  0.00    +0.000 Cl
ATOM     16  C   UNL     1       5.450   6.036  15.939  0.00  0.00    +0.000 A 
ATOM     17  C   UNL     1       4.637   6.873  16.708  0.00  0.00    +0.000 A 
ENDBRANCH   6  11
BRANCH  10  18
ATOM     18  N   UNL     1      -0.473  11.362  20.586  0.00  0.00    +0.000 N 
ATOM     19  C   UNL     1      -1.607  11.695  19.854  0.00  0.00    +0.000 C 
ATOM     20  O   UNL     1      -2.110  11.005  18.969  0.00  0.00    +0.000 OA
ATOM     21  H   UNL     1      -0.286  11.910  21.414  0.00  0.00    +0.000 HD
BRANCH  19  22
ATOM     22  C   UNL     1      -2.291  13.011  20.230  0.00  0.00    +0.000 C 
ATOM     23  C   UNL     1      -3.773  12.826  20.528  0.00  0.00    +0.000 C 
ATOM     24  C   UNL     1      -1.567  13.735  21.358  0.00  0.00    +0.000 C 
ENDBRANCH  19  22
ENDBRANCH  10  18
TORSDOF 3
ENDMDL
MODEL 5
REMARK VINA RESULT:      -7.6      1.360      1.741
REMARK  Name = 
REMARK  6 active torsions:
REMARK  status: ('A' for Active; 'I' for Inactive)
REMARK    1  A    between atoms: C_1  and  C_2
REMARK    2  A    between atoms: N_6  and  C_7
REMARK    3  A    between atoms: C_17  and  N_18
REMARK    4  A    between atoms: C_19  and  C_21
REMARK    5  A    between atoms: C_21  and  C_22
REMARK    6  A    between atoms: C_21  and  C_23
REMARK                            x       y       z     vdW  Elec       q    Type
REMARK                         _______ _______ _______ _____ _____    ______ ____
ROOT
ATOM      1  C   UNL     1       3.566   3.749  19.401  0.00  0.00    +0.000 C 
ATOM      2  C   UNL     1       3.086   5.179  19.328  0.00  0.00    +0.000 A 
ATOM      3  C   UNL     1       2.310   5.620  20.439  0.00  0.00    +0.000 A 
ATOM      4  C   UNL     1       1.823   6.932  20.362  0.00  0.00    +0.000 A 
ATOM      5  N   UNL     1       1.091   7.613  21.245  0.00  0.00    +0.000 NA
ATOM      6  N   UNL     1       0.888   8.798  20.629  0.00  0.00    +0.000 N 
ATOM      7  N   UNL     1       1.435   8.945  19.398  0.00  0.00    +0.000 NA
ATOM      8  C   UNL     1       2.071   7.779  19.208  0.00  0.00    +0.000 A 
ATOM      9  C   UNL     1       2.852   7.351  18.123  0.00  0.00    +0.000 A 
ATOM     10  C   UNL     1       3.394   6.042  18.211  0.00  0.00    +0.000 A 
ENDROOT
BRANCH   6  11
ATOM     11  C   UNL     1       0.118   9.826  21.235  0.00  0.00    +0.000 A 
ATOM     12  C   UNL     1      -0.302   9.683  22.568  0.00  0.00    +0.000 A 
ATOM     13  C   UNL     1      -1.082  10.677  23.166  0.00  0.00    +0.000 A 
ATOM     14  C   UNL     1      -1.445  11.806  22.433  0.00  0.00    +0.000 A 
ATOM     15 CL   UNL     1      -2.428  13.014  23.166  0.00  0.00    +0.000 Cl
ATOM     16  C   UNL     1      -1.024  11.959  21.113  0.00  0.00    +0.000 A 
ATOM     17  C   UNL     1      -0.236  10.975  20.512  0.00  0.00    +0.000 A 
ENDBRANCH   6  11
BRANCH  10  18
ATOM     18  N   UNL     1       4.260   5.560  17.180  0.00  0.00    +0.000 N 
ATOM     19  C   UNL     1       5.558   5.997  16.947  0.00  0.00    +0.000 C 
ATOM     20  O   UNL     1       6.166   6.818  17.631  0.00  0.00    +0.000 OA
ATOM     21  H   UNL     1       3.955   4.741  16.672  0.00  0.00    +0.000 HD
BRANCH  19  22
ATOM     22  C   UNL     1       6.284   5.355  15.762  0.00  0.00    +0.000 C 
ATOM     23  C   UNL     1       7.393   4.412  16.208  0.00  0.00    +0.000 C 
ATOM     24  C   UNL     1       5.321   4.688  14.789  0.00  0.00    +0.000 C 
ENDBRANCH  19  22
ENDBRANCH  10  18
TORSDOF 3
ENDMDL
MODEL 6
REMARK VINA RESULT:      -7.6      0.266      1.041
REMARK  Name = 
REMARK  6 active torsions:
REMARK  status: ('A' for Active; 'I' for Inactive)
REMARK    1  A    between atoms: C_1  and  C_2
REMARK    2  A    between atoms: N_6  and  C_7
REMARK    3  A    between atoms: C_17  and  N_18
REMARK    4  A    between atoms: C_19  and  C_21
REMARK    5  A    between atoms: C_21  and  C_22
REMARK    6  A    between atoms: C_21  and  C_23
REMARK                            x       y       z     vdW  Elec       q    Type
REMARK                         _______ _______ _______ _____ _____    ______ ____
ROOT
ATOM      1  C   UNL     1       4.164   2.792  18.628  0.00  0.00    +0.000 C 
ATOM      2  C   UNL     1       3.723   4.236  18.598  0.00  0.00    +0.000 A 
ATOM      3  C   UNL     1       3.029   4.687  19.757  0.00  0.00    +0.000 A 
ATOM      4  C   UNL     1       2.577   6.014  19.723  0.00  0.00    +0.000 A 
ATOM      5  N   UNL     1       1.921   6.705  20.655  0.00  0.00    +0.000 NA
ATOM      6  N   UNL     1       1.717   7.903  20.064  0.00  0.00    +0.000 N 
ATOM      7  N   UNL     1       2.193   8.048  18.804  0.00  0.00    +0.000 NA
ATOM      8  C   UNL     1       2.781   6.866  18.564  0.00  0.00    +0.000 A 
ATOM      9  C   UNL     1       3.482   6.428  17.430  0.00  0.00    +0.000 A 
ATOM     10  C   UNL     1       3.989   5.103  17.472  0.00  0.00    +0.000 A 
ENDROOT
BRANCH   6  11
ATOM     11  C   UNL     1       1.015   8.945  20.726  0.00  0.00    +0.000 A 
ATOM     12  C   UNL     1       0.671  10.108  20.017  0.00  0.00    +0.000 A 
ATOM     13  C   UNL     1       0.002  11.150  20.665  0.00  0.00    +0.000 A 
ATOM     14  C   UNL     1      -0.317  11.033  22.017  0.00  0.00    +0.000 A 
ATOM     15 CL   UNL     1      -1.116  12.330  22.818  0.00  0.00    +0.000 Cl
ATOM     16  C   UNL     1       0.013   9.878  22.725  0.00  0.00    +0.000 A 
ATOM     17  C   UNL     1       0.672   8.828  22.081  0.00  0.00    +0.000 A 
ENDBRANCH   6  11
BRANCH  10  18
ATOM     18  N   UNL     1       4.776   4.608  16.386  0.00  0.00    +0.000 N 
ATOM     19  C   UNL     1       5.949   5.184  15.911  0.00  0.00    +0.000 C 
ATOM     20  O   UNL     1       6.506   6.166  16.397  0.00  0.00    +0.000 OA
ATOM     21  H   UNL     1       4.539   3.692  16.028  0.00  0.00    +0.000 HD
BRANCH  19  22
ATOM     22  C   UNL     1       6.605   4.491  14.713  0.00  0.00    +0.000 C 
ATOM     23  C   UNL     1       5.579   3.879  13.770  0.00  0.00    +0.000 C 
ATOM     24  C   UNL     1       7.581   5.405  13.984  0.00  0.00    +0.000 C 
ENDBRANCH  19  22
ENDBRANCH  10  18
TORSDOF 3
ENDMDL
MODEL 7
REMARK VINA RESULT:      -7.5      0.911      1.521
REMARK  Name = 
REMARK  6 active torsions:
REMARK  status: ('A' for Active; 'I' for Inactive)
REMARK    1  A    between atoms: C_1  and  C_2
REMARK    2  A    between atoms: N_6  and  C_7
REMARK    3  A    between atoms: C_17  and  N_18
REMARK    4  A    between atoms: C_19  and  C_21
REMARK    5  A    between atoms: C_21  and  C_22
REMARK    6  A    between atoms: C_21  and  C_23
REMARK                            x       y       z     vdW  Elec       q    Type
REMARK                         _______ _______ _______ _____ _____    ______ ____
ROOT
ATOM      1  C   UNL     1       3.904   3.111  18.884  0.00  0.00    +0.000 C 
ATOM      2  C   UNL     1       3.479   4.560  18.910  0.00  0.00    +0.000 A 
ATOM      3  C   UNL     1       2.652   4.935  20.008  0.00  0.00    +0.000 A 
ATOM      4  C   UNL     1       2.217   6.268  20.020  0.00  0.00    +0.000 A 
ATOM      5  N   UNL     1       1.457   6.898  20.916  0.00  0.00    +0.000 NA
ATOM      6  N   UNL     1       1.335   8.140  20.396  0.00  0.00    +0.000 N 
ATOM      7  N   UNL     1       1.961   8.370  19.218  0.00  0.00    +0.000 NA
ATOM      8  C   UNL     1       2.566   7.200  18.962  0.00  0.00    +0.000 A 
ATOM      9  C   UNL     1       3.397   6.836  17.891  0.00  0.00    +0.000 A 
ATOM     10  C   UNL     1       3.886   5.504  17.894  0.00  0.00    +0.000 A 
ENDROOT
BRANCH   6  11
ATOM     11  C   UNL     1       0.565   9.141  21.046  0.00  0.00    +0.000 A 
ATOM     12  C   UNL     1       0.080  10.232  20.305  0.00  0.00    +0.000 A 
ATOM     13  C   UNL     1      -0.657  11.236  20.939  0.00  0.00    +0.000 A 
ATOM     14  C   UNL     1      -0.905  11.152  22.308  0.00  0.00    +0.000 A 
ATOM     15 CL   UNL     1      -1.791  12.405  23.089  0.00  0.00    +0.000 Cl
ATOM     16  C   UNL     1      -0.436  10.068  23.048  0.00  0.00    +0.000 A 
ATOM     17  C   UNL     1       0.293   9.055  22.419  0.00  0.00    +0.000 A 
ENDBRANCH   6  11
BRANCH  10  18
ATOM     18  N   UNL     1       4.796   5.078  16.876  0.00  0.00    +0.000 N 
ATOM     19  C   UNL     1       5.228   5.852  15.806  0.00  0.00    +0.000 C 
ATOM     20  O   UNL     1       4.935   7.031  15.616  0.00  0.00    +0.000 OA
ATOM     21  H   UNL     1       5.270   4.198  17.024  0.00  0.00    +0.000 HD
BRANCH  19  22
ATOM     22  C   UNL     1       6.183   5.171  14.822  0.00  0.00    +0.000 C 
ATOM     23  C   UNL     1       7.403   4.583  15.517  0.00  0.00    +0.000 C 
ATOM     24  C   UNL     1       5.473   4.147  13.946  0.00  0.00    +0.000 C 
ENDBRANCH  19  22
ENDBRANCH  10  18
TORSDOF 3
ENDMDL
MODEL 8
REMARK VINA RESULT:      -7.5      0.895      1.122
REMARK  Name = 
REMARK  6 active torsions:
REMARK  status: ('A' for Active; 'I' for Inactive)
REMARK    1  A    between atoms: C_1  and  C_2
REMARK    2  A    between atoms: N_6  and  C_7
REMARK    3  A    between atoms: C_17  and  N_18
REMARK    4  A    between atoms: C_19  and  C_21
REMARK    5  A    between atoms: C_21  and  C_22
REMARK    6  A    between atoms: C_21  and  C_23
REMARK                            x       y       z     vdW  Elec       q    Type
REMARK                         _______ _______ _______ _____ _____    ______ ____
ROOT
ATOM      1  C   UNL     1       3.553   3.028  18.638  0.00  0.00    +0.000 C 
ATOM      2  C   UNL     1       3.262   4.506  18.753  0.00  0.00    +0.000 A 
ATOM      3  C   UNL     1       2.386   4.876  19.814  0.00  0.00    +0.000 A 
ATOM      4  C   UNL     1       2.075   6.239  19.904  0.00  0.00    +0.000 A 
ATOM      5  N   UNL     1       1.305   6.872  20.790  0.00  0.00    +0.000 NA
ATOM      6  N   UNL     1       1.339   8.155  20.368  0.00  0.00    +0.000 N 
ATOM      7  N   UNL     1       2.079   8.412  19.262  0.00  0.00    +0.000 NA
ATOM      8  C   UNL     1       2.593   7.211  18.956  0.00  0.00    +0.000 A 
ATOM      9  C   UNL     1       3.473   6.849  17.923  0.00  0.00    +0.000 A 
ATOM     10  C   UNL     1       3.836   5.479  17.852  0.00  0.00    +0.000 A 
ENDROOT
BRANCH   6  11
ATOM     11  C   UNL     1       0.613   9.175  21.038  0.00  0.00    +0.000 A 
ATOM     12  C   UNL     1       0.304   9.025  22.400  0.00  0.00    +0.000 A 
ATOM     13  C   UNL     1      -0.431  10.011  23.064  0.00  0.00    +0.000 A 
ATOM     14  C   UNL     1      -0.860  11.141  22.367  0.00  0.00    +0.000 A 
ATOM     15 CL   UNL     1      -1.789  12.339  23.182  0.00  0.00    +0.000 Cl
ATOM     16  C   UNL     1      -0.549  11.301  21.018  0.00  0.00    +0.000 A 
ATOM     17  C   UNL     1       0.195  10.324  20.351  0.00  0.00    +0.000 A 
ENDBRANCH   6  11
BRANCH  10  18
ATOM     18  N   UNL     1       4.783   5.045  16.873  0.00  0.00    +0.000 N 
ATOM     19  C   UNL     1       5.231   5.798  15.794  0.00  0.00    +0.000 C 
ATOM     20  O   UNL     1       4.920   6.965  15.564  0.00  0.00    +0.000 OA
ATOM     21  H   UNL     1       5.270   4.179  17.060  0.00  0.00    +0.000 HD
BRANCH  19  22
ATOM     22  C   UNL     1       6.228   5.110  14.857  0.00  0.00    +0.000 C 
ATOM     23  C   UNL     1       7.387   4.478  15.614  0.00  0.00    +0.000 C 
ATOM     24  C   UNL     1       5.548   4.121  13.920  0.00  0.00    +0.000 C 
ENDBRANCH  19  22
ENDBRANCH  10  18
TORSDOF 3
ENDMDL
MODEL 9
REMARK VINA RESULT:      -7.4      1.169      1.277
REMARK  Name = 
REMARK  6 active torsions:
REMARK  status: ('A' for Active; 'I' for Inactive)
REMARK    1  A    between atoms: C_1  and  C_2
REMARK    2  A    between atoms: N_6  and  C_7
REMARK    3  A    between atoms: C_17  and  N_18
REMARK    4  A    between atoms: C_19  and  C_21
REMARK    5  A    between atoms: C_21  and  C_22
REMARK    6  A    between atoms: C_21  and  C_23
REMARK                            x       y       z     vdW  Elec       q    Type
REMARK                         _______ _______ _______ _____ _____    ______ ____
ROOT
ATOM      1  C   UNL     1       3.421   3.033  19.287  0.00  0.00    +0.000 C 
ATOM      2  C   UNL     1       3.100   4.509  19.269  0.00  0.00    +0.000 A 
ATOM      3  C   UNL     1       2.298   4.973  20.351  0.00  0.00    +0.000 A 
ATOM      4  C   UNL     1       1.957   6.332  20.322  0.00  0.00    +0.000 A 
ATOM      5  N   UNL     1       1.241   7.041  21.195  0.00  0.00    +0.000 NA
ATOM      6  N   UNL     1       1.208   8.272  20.639  0.00  0.00    +0.000 N 
ATOM      7  N   UNL     1       1.852   8.423  19.457  0.00  0.00    +0.000 NA
ATOM      8  C   UNL     1       2.374   7.207  19.239  0.00  0.00    +0.000 A 
ATOM      9  C   UNL     1       3.181   6.754  18.183  0.00  0.00    +0.000 A 
ATOM     10  C   UNL     1       3.575   5.391  18.227  0.00  0.00    +0.000 A 
ENDROOT
BRANCH   6  11
ATOM     11  C   UNL     1       0.508   9.344  21.255  0.00  0.00    +0.000 A 
ATOM     12  C   UNL     1      -0.035   9.171  22.539  0.00  0.00    +0.000 A 
ATOM     13  C   UNL     1      -0.746  10.211  23.144  0.00  0.00    +0.000 A 
ATOM     14  C   UNL     1      -0.919  11.417  22.465  0.00  0.00    +0.000 A 
ATOM     15 CL   UNL     1      -1.820  12.685  23.203  0.00  0.00    +0.000 Cl
ATOM     16  C   UNL     1      -0.376  11.599  21.194  0.00  0.00    +0.000 A 
ATOM     17  C   UNL     1       0.346  10.568  20.588  0.00  0.00    +0.000 A 
ENDBRANCH   6  11
BRANCH  10  18
ATOM     18  N   UNL     1       4.455   4.873  17.227  0.00  0.00    +0.000 N 
ATOM     19  C   UNL     1       5.840   4.806  17.327  0.00  0.00    +0.000 C 
ATOM     20  O   UNL     1       6.498   5.129  18.315  0.00  0.00    +0.000 OA
ATOM     21  H   UNL     1       4.029   4.389  16.448  0.00  0.00    +0.000 HD
BRANCH  19  22
ATOM     22  C   UNL     1       6.579   4.238  16.113  0.00  0.00    +0.000 C 
ATOM     23  C   UNL     1       5.657   3.444  15.197  0.00  0.00    +0.000 C 
ATOM     24  C   UNL     1       7.353   5.310  15.357  0.00  0.00    +0.000 C 
ENDBRANCH  19  22
ENDBRANCH  10  18
TORSDOF 3
ENDMDL
