MODEL 1
REMARK VINA RESULT:      -8.5      0.000      0.000
REMARK  Name = 
REMARK  4 active torsions:
REMARK  status: ('A' for Active; 'I' for Inactive)
REMARK    1  A    between atoms: C_1  and  C_2
REMARK    2  A    between atoms: C_7  and  C_8
REMARK    3  A    between atoms: C_13  and  C_15
REMARK    4  A    between atoms: C_15  and  C_16
REMARK                            x       y       z     vdW  Elec       q    Type
REMARK                         _______ _______ _______ _____ _____    ______ ____
ROOT
ATOM      1  C   UNL     1       2.271   6.313  20.032  0.00  0.00    +0.000 C 
ATOM      2  C   UNL     1       1.446   5.252  20.775  0.00  0.00    +0.000 C 
ATOM      3  C   UNL     1       2.350   4.039  21.035  0.00  0.00    +0.000 C 
ATOM      4  C   UNL     1       3.032   3.524  19.757  0.00  0.00    +0.000 C 
ATOM      5  N   UNL     1       3.587   4.607  18.932  0.00  0.00    +0.000 N 
ATOM      6  C   UNL     1       4.971   4.723  18.783  0.00  0.00    +0.000 C 
ATOM      7  O   UNL     1       5.755   3.977  19.367  0.00  0.00    +0.000 OA
ATOM      8  C   UNL     1       2.664   5.720  18.675  0.00  0.00    +0.000 C 
ENDROOT
BRANCH   1  15
ATOM      9  C   UNL     1       2.383   8.447  17.742  0.00  0.00    +0.000 C 
ATOM     10  C   UNL     1       1.700   8.664  19.063  0.00  0.00    +0.000 A 
ATOM     11  C   UNL     1       1.083   9.912  19.284  0.00  0.00    +0.000 A 
ATOM     12  C   UNL     1       0.432  10.204  20.484  0.00  0.00    +0.000 A 
ATOM     13  C   UNL     1       0.388   9.256  21.493  0.00  0.00    +0.000 A 
ATOM     14  C   UNL     1       0.997   8.022  21.293  0.00  0.00    +0.000 A 
ATOM     15  C   UNL     1       1.667   7.701  20.086  0.00  0.00    +0.000 A 
ENDBRANCH   1  15
BRANCH   6  16
ATOM     16  C   UNL     1       5.455   5.838  17.857  0.00  0.00    +0.000 C 
BRANCH  16  17
ATOM     17  C   UNL     1       5.900   5.368  16.501  0.00  0.00    +0.000 A 
ATOM     18  C   UNL     1       5.060   4.636  15.661  0.00  0.00    +0.000 A 
ATOM     19  C   UNL     1       5.528   4.223  14.416  0.00  0.00    +0.000 A 
ATOM     20  C   UNL     1       6.818   4.563  14.058  0.00  0.00    +0.000 A 
ATOM     21  N   UNL     1       7.663   5.267  14.842  0.00  0.00    +0.000 NA
ATOM     22  C   UNL     1       7.180   5.664  16.037  0.00  0.00    +0.000 A 
ENDBRANCH  16  17
ENDBRANCH   6  16
TORSDOF 3
ENDMDL
MODEL 2
REMARK VINA RESULT:      -8.4      2.284      6.135
REMARK  Name = 
REMARK  4 active torsions:
REMARK  status: ('A' for Active; 'I' for Inactive)
REMARK    1  A    between atoms: C_1  and  C_2
REMARK    2  A    between atoms: C_7  and  C_8
REMARK    3  A    between atoms: C_13  and  C_15
REMARK    4  A    between atoms: C_15  and  C_16
REMARK                            x       y       z     vdW  Elec       q    Type
REMARK                         _______ _______ _______ _____ _____    ______ ____
ROOT
ATOM      1  C   UNL     1       3.905   3.624  18.007  0.00  0.00    +0.000 C 
ATOM      2  C   UNL     1       3.546   2.176  17.645  0.00  0.00    +0.000 C 
ATOM      3  C   UNL     1       2.127   1.892  18.156  0.00  0.00    +0.000 C 
ATOM      4  C   UNL     1       1.957   2.227  19.647  0.00  0.00    +0.000 C 
ATOM      5  N   UNL     1       2.553   3.522  20.010  0.00  0.00    +0.000 N 
ATOM      6  C   UNL     1       1.726   4.579  20.399  0.00  0.00    +0.000 C 
ATOM      7  O   UNL     1       0.500   4.483  20.397  0.00  0.00    +0.000 OA
ATOM      8  C   UNL     1       3.928   3.721  19.537  0.00  0.00    +0.000 C 
ENDROOT
BRANCH   1  15
ATOM      9  C   UNL     1       6.231   5.379  19.155  0.00  0.00    +0.000 C 
ATOM     10  C   UNL     1       6.125   4.959  17.717  0.00  0.00    +0.000 A 
ATOM     11  C   UNL     1       7.130   5.394  16.831  0.00  0.00    +0.000 A 
ATOM     12  C   UNL     1       7.108   5.058  15.475  0.00  0.00    +0.000 A 
ATOM     13  C   UNL     1       6.075   4.283  14.974  0.00  0.00    +0.000 A 
ATOM     14  C   UNL     1       5.071   3.851  15.834  0.00  0.00    +0.000 A 
ATOM     15  C   UNL     1       5.068   4.180  17.213  0.00  0.00    +0.000 A 
ENDBRANCH   1  15
BRANCH   6  16
ATOM     16  C   UNL     1       2.435   5.865  20.821  0.00  0.00    +0.000 C 
BRANCH  16  17
ATOM     17  C   UNL     1       2.191   7.035  19.910  0.00  0.00    +0.000 A 
ATOM     18  C   UNL     1       2.653   7.055  18.594  0.00  0.00    +0.000 A 
ATOM     19  C   UNL     1       2.401   8.169  17.797  0.00  0.00    +0.000 A 
ATOM     20  C   UNL     1       1.690   9.217  18.347  0.00  0.00    +0.000 A 
ATOM     21  N   UNL     1       1.227   9.239  19.617  0.00  0.00    +0.000 NA
ATOM     22  C   UNL     1       1.476   8.142  20.362  0.00  0.00    +0.000 A 
ENDBRANCH  16  17
ENDBRANCH   6  16
TORSDOF 3
ENDMDL
MODEL 3
REMARK VINA RESULT:      -8.4      2.242      4.250
REMARK  Name = 
REMARK  4 active torsions:
REMARK  status: ('A' for Active; 'I' for Inactive)
REMARK    1  A    between atoms: C_1  and  C_2
REMARK    2  A    between atoms: C_7  and  C_8
REMARK    3  A    between atoms: C_13  and  C_15
REMARK    4  A    between atoms: C_15  and  C_16
REMARK                            x       y       z     vdW  Elec       q    Type
REMARK                         _______ _______ _______ _____ _____    ______ ____
ROOT
ATOM      1  C   UNL     1       3.088   5.610  18.528  0.00  0.00    +0.000 C 
ATOM      2  C   UNL     1       2.545   6.957  19.027  0.00  0.00    +0.000 C 
ATOM      3  C   UNL     1       2.789   8.006  17.933  0.00  0.00    +0.000 C 
ATOM      4  C   UNL     1       4.255   8.051  17.472  0.00  0.00    +0.000 C 
ATOM      5  N   UNL     1       4.824   6.713  17.254  0.00  0.00    +0.000 N 
ATOM      6  C   UNL     1       5.163   6.308  15.961  0.00  0.00    +0.000 C 
ATOM      7  O   UNL     1       4.950   7.017  14.978  0.00  0.00    +0.000 OA
ATOM      8  C   UNL     1       4.603   5.764  18.352  0.00  0.00    +0.000 C 
ENDROOT
BRANCH   1  15
ATOM      9  C   UNL     1       2.509   2.780  17.318  0.00  0.00    +0.000 C 
ATOM     10  C   UNL     1       2.295   3.138  18.761  0.00  0.00    +0.000 A 
ATOM     11  C   UNL     1       1.792   2.138  19.617  0.00  0.00    +0.000 A 
ATOM     12  C   UNL     1       1.555   2.385  20.971  0.00  0.00    +0.000 A 
ATOM     13  C   UNL     1       1.811   3.639  21.498  0.00  0.00    +0.000 A 
ATOM     14  C   UNL     1       2.302   4.639  20.666  0.00  0.00    +0.000 A 
ATOM     15  C   UNL     1       2.549   4.416  19.288  0.00  0.00    +0.000 A 
ENDBRANCH   1  15
BRANCH   6  16
ATOM     16  C   UNL     1       5.807   4.928  15.837  0.00  0.00    +0.000 C 
BRANCH  16  17
ATOM     17  C   UNL     1       6.221   4.560  14.440  0.00  0.00    +0.000 A 
ATOM     18  C   UNL     1       5.479   3.671  13.660  0.00  0.00    +0.000 A 
ATOM     19  C   UNL     1       5.913   3.363  12.374  0.00  0.00    +0.000 A 
ATOM     20  C   UNL     1       7.070   3.962  11.914  0.00  0.00    +0.000 A 
ATOM     21  N   UNL     1       7.818   4.824  12.637  0.00  0.00    +0.000 NA
ATOM     22  C   UNL     1       7.368   5.113  13.875  0.00  0.00    +0.000 A 
ENDBRANCH  16  17
ENDBRANCH   6  16
TORSDOF 3
ENDMDL
MODEL 4
REMARK VINA RESULT:      -8.4      2.401      5.883
REMARK  Name = 
REMARK  4 active torsions:
REMARK  status: ('A' for Active; 'I' for Inactive)
REMARK    1  A    between atoms: C_1  and  C_2
REMARK    2  A    between atoms: C_7  and  C_8
REMARK    3  A    between atoms: C_13  and  C_15
REMARK    4  A    between atoms: C_15  and  C_16
REMARK                            x       y       z     vdW  Elec       q    Type
REMARK                         _______ _______ _______ _____ _____    ______ ____
ROOT
ATOM      1  C   UNL     1       4.634   4.536  18.275  0.00  0.00    +0.000 C 
ATOM      2  C   UNL     1       4.797   3.278  17.411  0.00  0.00    +0.000 C 
ATOM      3  C   UNL     1       3.429   2.590  17.303  0.00  0.00    +0.000 C 
ATOM      4  C   UNL     1       2.786   2.331  18.676  0.00  0.00    +0.000 C 
ATOM      5  N   UNL     1       2.884   3.489  19.577  0.00  0.00    +0.000 N 
ATOM      6  C   UNL     1       1.726   4.176  19.948  0.00  0.00    +0.000 C 
ATOM      7  O   UNL     1       0.620   3.879  19.500  0.00  0.00    +0.000 OA
ATOM      8  C   UNL     1       4.225   4.078  19.679  0.00  0.00    +0.000 C 
ENDROOT
BRANCH   1  15
ATOM      9  C   UNL     1       4.810   6.784  16.101  0.00  0.00    +0.000 C 
ATOM     10  C   UNL     1       5.852   6.552  17.158  0.00  0.00    +0.000 A 
ATOM     11  C   UNL     1       6.982   7.394  17.161  0.00  0.00    +0.000 A 
ATOM     12  C   UNL     1       8.002   7.246  18.103  0.00  0.00    +0.000 A 
ATOM     13  C   UNL     1       7.919   6.249  19.060  0.00  0.00    +0.000 A 
ATOM     14  C   UNL     1       6.813   5.406  19.067  0.00  0.00    +0.000 A 
ATOM     15  C   UNL     1       5.765   5.532  18.121  0.00  0.00    +0.000 A 
ENDBRANCH   1  15
BRANCH   6  16
ATOM     16  C   UNL     1       1.915   5.325  20.937  0.00  0.00    +0.000 C 
BRANCH  16  17
ATOM     17  C   UNL     1       1.784   6.694  20.331  0.00  0.00    +0.000 A 
ATOM     18  C   UNL     1       2.266   6.985  19.054  0.00  0.00    +0.000 A 
ATOM     19  C   UNL     1       2.121   8.272  18.545  0.00  0.00    +0.000 A 
ATOM     20  C   UNL     1       1.494   9.218  19.332  0.00  0.00    +0.000 A 
ATOM     21  N   UNL     1       1.016   8.979  20.573  0.00  0.00    +0.000 NA
ATOM     22  C   UNL     1       1.160   7.720  21.036  0.00  0.00    +0.000 A 
ENDBRANCH  16  17
ENDBRANCH   6  16
TORSDOF 3
ENDMDL
MODEL 5
REMARK VINA RESULT:      -8.2      2.319      4.367
REMARK  Name = 
REMARK  4 active torsions:
REMARK  status: ('A' for Active; 'I' for Inactive)
REMARK    1  A    between atoms: C_1  and  C_2
REMARK    2  A    between atoms: C_7  and  C_8
REMARK    3  A    between atoms: C_13  and  C_15
REMARK    4  A    between atoms: C_15  and  C_16
REMARK                            x       y       z     vdW  Elec       q    Type
REMARK                         _______ _______ _______ _____ _____    ______ ____
ROOT
ATOM      1  C   UNL     1       3.055   5.625  18.502  0.00  0.00    +0.000 C 
ATOM      2  C   UNL     1       2.497   6.968  18.993  0.00  0.00    +0.000 C 
ATOM      3  C   UNL     1       2.737   8.017  17.898  0.00  0.00    +0.000 C 
ATOM      4  C   UNL     1       4.206   8.074  17.445  0.00  0.00    +0.000 C 
ATOM      5  N   UNL     1       4.789   6.740  17.235  0.00  0.00    +0.000 N 
ATOM      6  C   UNL     1       5.139   6.334  15.946  0.00  0.00    +0.000 C 
ATOM      7  O   UNL     1       4.925   7.038  14.960  0.00  0.00    +0.000 OA
ATOM      8  C   UNL     1       4.570   5.793  18.335  0.00  0.00    +0.000 C 
ENDROOT
BRANCH   1  15
ATOM      9  C   UNL     1       2.556   2.773  17.309  0.00  0.00    +0.000 C 
ATOM     10  C   UNL     1       2.304   3.141  18.743  0.00  0.00    +0.000 A 
ATOM     11  C   UNL     1       1.802   2.140  19.599  0.00  0.00    +0.000 A 
ATOM     12  C   UNL     1       1.532   2.395  20.945  0.00  0.00    +0.000 A 
ATOM     13  C   UNL     1       1.752   3.660  21.465  0.00  0.00    +0.000 A 
ATOM     14  C   UNL     1       2.242   4.660  20.633  0.00  0.00    +0.000 A 
ATOM     15  C   UNL     1       2.522   4.429  19.262  0.00  0.00    +0.000 A 
ENDBRANCH   1  15
BRANCH   6  16
ATOM     16  C   UNL     1       5.797   4.960  15.830  0.00  0.00    +0.000 C 
BRANCH  16  17
ATOM     17  C   UNL     1       6.268   4.613  14.446  0.00  0.00    +0.000 A 
ATOM     18  C   UNL     1       7.420   5.176  13.895  0.00  0.00    +0.000 A 
ATOM     19  C   UNL     1       7.806   4.820  12.605  0.00  0.00    +0.000 A 
ATOM     20  C   UNL     1       7.027   3.909  11.919  0.00  0.00    +0.000 A 
ATOM     21  N   UNL     1       5.905   3.343  12.414  0.00  0.00    +0.000 NA
ATOM     22  C   UNL     1       5.561   3.697  13.670  0.00  0.00    +0.000 A 
ENDBRANCH  16  17
ENDBRANCH   6  16
TORSDOF 3
ENDMDL
MODEL 6
REMARK VINA RESULT:      -8.2      2.422      5.910
REMARK  Name = 
REMARK  4 active torsions:
REMARK  status: ('A' for Active; 'I' for Inactive)
REMARK    1  A    between atoms: C_1  and  C_2
REMARK    2  A    between atoms: C_7  and  C_8
REMARK    3  A    between atoms: C_13  and  C_15
REMARK    4  A    between atoms: C_15  and  C_16
REMARK                            x       y       z     vdW  Elec       q    Type
REMARK                         _______ _______ _______ _____ _____    ______ ____
ROOT
ATOM      1  C   UNL     1       4.558   4.474  18.292  0.00  0.00    +0.000 C 
ATOM      2  C   UNL     1       4.670   3.256  17.365  0.00  0.00    +0.000 C 
ATOM      3  C   UNL     1       3.283   2.606  17.259  0.00  0.00    +0.000 C 
ATOM      4  C   UNL     1       2.668   2.296  18.633  0.00  0.00    +0.000 C 
ATOM      5  N   UNL     1       2.816   3.406  19.586  0.00  0.00    +0.000 N 
ATOM      6  C   UNL     1       1.685   4.101  20.019  0.00  0.00    +0.000 C 
ATOM      7  O   UNL     1       0.561   3.852  19.586  0.00  0.00    +0.000 OA
ATOM      8  C   UNL     1       4.174   3.957  19.683  0.00  0.00    +0.000 C 
ENDROOT
BRANCH   1  15
ATOM      9  C   UNL     1       4.807   6.724  16.127  0.00  0.00    +0.000 C 
ATOM     10  C   UNL     1       5.829   6.471  17.199  0.00  0.00    +0.000 A 
ATOM     11  C   UNL     1       6.974   7.292  17.220  0.00  0.00    +0.000 A 
ATOM     12  C   UNL     1       7.978   7.123  18.176  0.00  0.00    +0.000 A 
ATOM     13  C   UNL     1       7.862   6.125  19.129  0.00  0.00    +0.000 A 
ATOM     14  C   UNL     1       6.741   5.302  19.118  0.00  0.00    +0.000 A 
ATOM     15  C   UNL     1       5.709   5.450  18.158  0.00  0.00    +0.000 A 
ENDBRANCH   1  15
BRANCH   6  16
ATOM     16  C   UNL     1       1.926   5.195  21.058  0.00  0.00    +0.000 C 
BRANCH  16  17
ATOM     17  C   UNL     1       1.744   6.594  20.539  0.00  0.00    +0.000 A 
ATOM     18  C   UNL     1       1.054   7.566  21.263  0.00  0.00    +0.000 A 
ATOM     19  C   UNL     1       0.912   8.845  20.731  0.00  0.00    +0.000 A 
ATOM     20  C   UNL     1       1.472   9.103  19.495  0.00  0.00    +0.000 A 
ATOM     21  N   UNL     1       2.145   8.190  18.760  0.00  0.00    +0.000 NA
ATOM     22  C   UNL     1       2.276   6.963  19.306  0.00  0.00    +0.000 A 
ENDBRANCH  16  17
ENDBRANCH   6  16
TORSDOF 3
ENDMDL
MODEL 7
REMARK VINA RESULT:      -8.2      1.305      2.061
REMARK  Name = 
REMARK  4 active torsions:
REMARK  status: ('A' for Active; 'I' for Inactive)
REMARK    1  A    between atoms: C_1  and  C_2
REMARK    2  A    between atoms: C_7  and  C_8
REMARK    3  A    between atoms: C_13  and  C_15
REMARK    4  A    between atoms: C_15  and  C_16
REMARK                            x       y       z     vdW  Elec       q    Type
REMARK                         _______ _______ _______ _____ _____    ______ ____
ROOT
ATOM      1  C   UNL     1       2.398   5.787  19.658  0.00  0.00    +0.000 C 
ATOM      2  C   UNL     1       1.568   5.300  20.854  0.00  0.00    +0.000 C 
ATOM      3  C   UNL     1       2.222   4.025  21.404  0.00  0.00    +0.000 C 
ATOM      4  C   UNL     1       2.446   2.959  20.319  0.00  0.00    +0.000 C 
ATOM      5  N   UNL     1       3.007   3.518  19.079  0.00  0.00    +0.000 N 
ATOM      6  C   UNL     1       4.305   3.176  18.692  0.00  0.00    +0.000 C 
ATOM      7  O   UNL     1       5.025   2.460  19.385  0.00  0.00    +0.000 OA
ATOM      8  C   UNL     1       2.313   4.708  18.572  0.00  0.00    +0.000 C 
ENDROOT
BRANCH   1  15
ATOM      9  C   UNL     1       3.465   7.233  17.093  0.00  0.00    +0.000 C 
ATOM     10  C   UNL     1       2.605   7.891  18.133  0.00  0.00    +0.000 A 
ATOM     11  C   UNL     1       2.268   9.247  17.945  0.00  0.00    +0.000 A 
ATOM     12  C   UNL     1       1.479   9.940  18.865  0.00  0.00    +0.000 A 
ATOM     13  C   UNL     1       1.013   9.295  19.998  0.00  0.00    +0.000 A 
ATOM     14  C   UNL     1       1.340   7.959  20.202  0.00  0.00    +0.000 A 
ATOM     15  C   UNL     1       2.142   7.232  19.286  0.00  0.00    +0.000 A 
ENDBRANCH   1  15
BRANCH   6  16
ATOM     16  C   UNL     1       4.780   3.752  17.359  0.00  0.00    +0.000 C 
BRANCH  16  17
ATOM     17  C   UNL     1       5.861   4.789  17.482  0.00  0.00    +0.000 A 
ATOM     18  C   UNL     1       6.274   5.283  18.720  0.00  0.00    +0.000 A 
ATOM     19  C   UNL     1       7.277   6.247  18.773  0.00  0.00    +0.000 A 
ATOM     20  C   UNL     1       7.833   6.675  17.583  0.00  0.00    +0.000 A 
ATOM     21  N   UNL     1       7.461   6.225  16.365  0.00  0.00    +0.000 NA
ATOM     22  C   UNL     1       6.495   5.284  16.344  0.00  0.00    +0.000 A 
ENDBRANCH  16  17
ENDBRANCH   6  16
TORSDOF 3
ENDMDL
MODEL 8
REMARK VINA RESULT:      -8.2      1.640      2.345
REMARK  Name = 
REMARK  4 active torsions:
REMARK  status: ('A' for Active; 'I' for Inactive)
REMARK    1  A    between atoms: C_1  and  C_2
REMARK    2  A    between atoms: C_7  and  C_8
REMARK    3  A    between atoms: C_13  and  C_15
REMARK    4  A    between atoms: C_15  and  C_16
REMARK                            x       y       z     vdW  Elec       q    Type
REMARK                         _______ _______ _______ _____ _____    ______ ____
ROOT
ATOM      1  C   UNL     1       1.889   4.916  19.680  0.00  0.00    +0.000 C 
ATOM      2  C   UNL     1       0.916   4.170  20.605  0.00  0.00    +0.000 C 
ATOM      3  C   UNL     1       1.402   2.721  20.743  0.00  0.00    +0.000 C 
ATOM      4  C   UNL     1       1.625   2.039  19.383  0.00  0.00    +0.000 C 
ATOM      5  N   UNL     1       2.340   2.897  18.426  0.00  0.00    +0.000 N 
ATOM      6  C   UNL     1       3.631   2.552  18.020  0.00  0.00    +0.000 C 
ATOM      7  O   UNL     1       4.220   1.575  18.479  0.00  0.00    +0.000 OA
ATOM      8  C   UNL     1       1.803   4.257  18.298  0.00  0.00    +0.000 C 
ENDROOT
BRANCH   1  15
ATOM      9  C   UNL     1       2.988   6.970  17.586  0.00  0.00    +0.000 C 
ATOM     10  C   UNL     1       2.275   7.357  18.851  0.00  0.00    +0.000 A 
ATOM     11  C   UNL     1       2.103   8.731  19.112  0.00  0.00    +0.000 A 
ATOM     12  C   UNL     1       1.458   9.182  20.266  0.00  0.00    +0.000 A 
ATOM     13  C   UNL     1       0.977   8.268  21.188  0.00  0.00    +0.000 A 
ATOM     14  C   UNL     1       1.144   6.908  20.948  0.00  0.00    +0.000 A 
ATOM     15  C   UNL     1       1.797   6.424  19.787  0.00  0.00    +0.000 A 
ENDBRANCH   1  15
BRANCH   6  16
ATOM     16  C   UNL     1       4.272   3.465  16.976  0.00  0.00    +0.000 C 
BRANCH  16  17
ATOM     17  C   UNL     1       5.439   4.264  17.483  0.00  0.00    +0.000 A 
ATOM     18  C   UNL     1       5.499   4.730  18.797  0.00  0.00    +0.000 A 
ATOM     19  C   UNL     1       6.603   5.470  19.211  0.00  0.00    +0.000 A 
ATOM     20  C   UNL     1       7.608   5.711  18.295  0.00  0.00    +0.000 A 
ATOM     21  N   UNL     1       7.587   5.281  17.014  0.00  0.00    +0.000 NA
ATOM     22  C   UNL     1       6.511   4.556  16.644  0.00  0.00    +0.000 A 
ENDBRANCH  16  17
ENDBRANCH   6  16
TORSDOF 3
ENDMDL
MODEL 9
REMARK VINA RESULT:      -8.2      1.558      2.594
REMARK  Name = 
REMARK  4 active torsions:
REMARK  status: ('A' for Active; 'I' for Inactive)
REMARK    1  A    between atoms: C_1  and  C_2
REMARK    2  A    between atoms: C_7  and  C_8
REMARK    3  A    between atoms: C_13  and  C_15
REMARK    4  A    between atoms: C_15  and  C_16
REMARK                            x       y       z     vdW  Elec       q    Type
REMARK                         _______ _______ _______ _____ _____    ______ ____
ROOT
ATOM      1  C   UNL     1       2.406   6.022  19.690  0.00  0.00    +0.000 C 
ATOM      2  C   UNL     1       1.551   5.433  20.822  0.00  0.00    +0.000 C 
ATOM      3  C   UNL     1       2.281   4.205  21.384  0.00  0.00    +0.000 C 
ATOM      4  C   UNL     1       2.661   3.192  20.292  0.00  0.00    +0.000 C 
ATOM      5  N   UNL     1       3.244   3.830  19.102  0.00  0.00    +0.000 N 
ATOM      6  C   UNL     1       4.587   3.612  18.788  0.00  0.00    +0.000 C 
ATOM      7  O   UNL     1       5.325   2.942  19.509  0.00  0.00    +0.000 OA
ATOM      8  C   UNL     1       2.479   4.969  18.578  0.00  0.00    +0.000 C 
ENDROOT
BRANCH   1  15
ATOM      9  C   UNL     1       1.060   8.101  21.607  0.00  0.00    +0.000 C 
ATOM     10  C   UNL     1       1.453   8.397  20.188  0.00  0.00    +0.000 A 
ATOM     11  C   UNL     1       1.187   9.687  19.689  0.00  0.00    +0.000 A 
ATOM     12  C   UNL     1       1.512  10.047  18.379  0.00  0.00    +0.000 A 
ATOM     13  C   UNL     1       2.105   9.122  17.536  0.00  0.00    +0.000 A 
ATOM     14  C   UNL     1       2.368   7.842  18.012  0.00  0.00    +0.000 A 
ATOM     15  C   UNL     1       2.046   7.449  19.335  0.00  0.00    +0.000 A 
ENDBRANCH   1  15
BRANCH   6  16
ATOM     16  C   UNL     1       5.089   4.262  17.500  0.00  0.00    +0.000 C 
BRANCH  16  17
ATOM     17  C   UNL     1       6.071   5.379  17.711  0.00  0.00    +0.000 A 
ATOM     18  C   UNL     1       7.094   5.295  18.656  0.00  0.00    +0.000 A 
ATOM     19  C   UNL     1       7.973   6.363  18.811  0.00  0.00    +0.000 A 
ATOM     20  C   UNL     1       7.798   7.474  18.010  0.00  0.00    +0.000 A 
ATOM     21  N   UNL     1       6.820   7.597  17.086  0.00  0.00    +0.000 NA
ATOM     22  C   UNL     1       5.990   6.542  16.948  0.00  0.00    +0.000 A 
ENDBRANCH  16  17
ENDBRANCH   6  16
TORSDOF 3
ENDMDL
