MODEL 1
REMARK VINA RESULT:      -7.4      0.000      0.000
REMARK  Name = 
REMARK  7 active torsions:
REMARK  status: ('A' for Active; 'I' for Inactive)
REMARK    1  A    between atoms: C_1  and  C_2
REMARK    2  A    between atoms: C_7  and  C_8
REMARK    3  A    between atoms: C_11  and  C_12
REMARK    4  A    between atoms: C_17  and  N_18
REMARK    5  A    between atoms: N_18  and  C_19
REMARK    6  A    between atoms: N_18  and  C_20
REMARK    7  A    between atoms: C_20  and  C_21
REMARK                            x       y       z     vdW  Elec       q    Type
REMARK                         _______ _______ _______ _____ _____    ______ ____
ROOT
ATOM      1  C   UNL     1      -1.067  11.548  22.094  0.00  0.00    +0.000 A 
ATOM      2  C   UNL     1      -1.928  11.457  23.215  0.00  0.00    +0.000 A 
ATOM      3  C   UNL     1      -2.891  12.421  23.467  0.00  0.00    +0.000 A 
ATOM      4  C   UNL     1      -2.990  13.451  22.570  0.00  0.00    +0.000 A 
ATOM      5  N   UNL     1      -2.193  13.575  21.489  0.00  0.00    +0.000 NA
ATOM      6  C   UNL     1      -1.203  12.671  21.247  0.00  0.00    +0.000 A 
ENDROOT
BRANCH   1  10
ATOM      7  C   UNL     1       1.078   8.847  21.180  0.00  0.00    +0.000 A 
ATOM      8  N   UNL     1       1.604   9.174  22.368  0.00  0.00    +0.000 NA
ATOM      9  O   UNL     1       0.810  10.223  22.808  0.00  0.00    +0.000 OA
ATOM     10  C   UNL     1      -0.150  10.433  21.853  0.00  0.00    +0.000 A 
ATOM     11  N   UNL     1      -0.056   9.569  20.871  0.00  0.00    +0.000 NA
BRANCH   7  18
ATOM     12  C   UNL     1       1.959   9.568  18.349  0.00  0.00    +0.000 C 
ATOM     13  C   UNL     1       2.037   8.179  18.926  0.00  0.00    +0.000 A 
ATOM     14  C   UNL     1       2.515   7.148  18.096  0.00  0.00    +0.000 A 
ATOM     15  C   UNL     1       2.580   5.829  18.545  0.00  0.00    +0.000 A 
ATOM     16  C   UNL     1       2.172   5.514  19.834  0.00  0.00    +0.000 A 
ATOM     17  C   UNL     1       1.701   6.524  20.674  0.00  0.00    +0.000 A 
ATOM     18  C   UNL     1       1.628   7.866  20.243  0.00  0.00    +0.000 A 
ENDBRANCH   7  18
ENDBRANCH   1  10
BRANCH   6  19
ATOM     19  N   UNL     1      -0.407  12.963  20.154  0.00  0.00    +0.000 N 
ATOM     20  C   UNL     1       1.022  13.195  20.247  0.00  0.00    +0.000 C 
BRANCH  19  21
ATOM     21  C   UNL     1      -1.041  13.132  18.847  0.00  0.00    +0.000 C 
BRANCH  21  22
ATOM     22  C   UNL     1      -1.821  11.929  18.354  0.00  0.00    +0.000 A 
ATOM     23  C   UNL     1      -3.218  11.867  18.457  0.00  0.00    +0.000 A 
ATOM     24  C   UNL     1      -3.923  10.759  17.972  0.00  0.00    +0.000 A 
ATOM     25  C   UNL     1      -3.238   9.701  17.377  0.00  0.00    +0.000 A 
ATOM     26  C   UNL     1      -1.853   9.752  17.259  0.00  0.00    +0.000 A 
ATOM     27  C   UNL     1      -1.151  10.858  17.742  0.00  0.00    +0.000 A 
ENDBRANCH  21  22
ENDBRANCH  19  21
ENDBRANCH   6  19
TORSDOF 5
ENDMDL
MODEL 2
REMARK VINA RESULT:      -7.4      3.959      8.902
REMARK  Name = 
REMARK  7 active torsions:
REMARK  status: ('A' for Active; 'I' for Inactive)
REMARK    1  A    between atoms: C_1  and  C_2
REMARK    2  A    between atoms: C_7  and  C_8
REMARK    3  A    between atoms: C_11  and  C_12
REMARK    4  A    between atoms: C_17  and  N_18
REMARK    5  A    between atoms: N_18  and  C_19
REMARK    6  A    between atoms: N_18  and  C_20
REMARK    7  A    between atoms: C_20  and  C_21
REMARK                            x       y       z     vdW  Elec       q    Type
REMARK                         _______ _______ _______ _____ _____    ______ ____
ROOT
ATOM      1  C   UNL     1       4.854   5.688  16.743  0.00  0.00    +0.000 A 
ATOM      2  C   UNL     1       5.013   5.908  15.353  0.00  0.00    +0.000 A 
ATOM      3  C   UNL     1       5.968   5.223  14.618  0.00  0.00    +0.000 A 
ATOM      4  C   UNL     1       6.734   4.308  15.291  0.00  0.00    +0.000 A 
ATOM      5  N   UNL     1       6.614   4.067  16.612  0.00  0.00    +0.000 NA
ATOM      6  C   UNL     1       5.720   4.764  17.369  0.00  0.00    +0.000 A 
ENDROOT
BRANCH   1  10
ATOM      7  C   UNL     1       2.346   7.665  18.334  0.00  0.00    +0.000 A 
ATOM      8  N   UNL     1       1.647   6.549  18.088  0.00  0.00    +0.000 NA
ATOM      9  O   UNL     1       2.562   5.708  17.474  0.00  0.00    +0.000 OA
ATOM     10  C   UNL     1       3.755   6.381  17.416  0.00  0.00    +0.000 A 
ATOM     11  N   UNL     1       3.677   7.558  17.989  0.00  0.00    +0.000 NA
BRANCH   7  18
ATOM     12  C   UNL     1       1.150   7.886  21.132  0.00  0.00    +0.000 C 
ATOM     13  C   UNL     1       1.238   9.035  20.162  0.00  0.00    +0.000 A 
ATOM     14  C   UNL     1       0.705  10.275  20.562  0.00  0.00    +0.000 A 
ATOM     15  C   UNL     1       0.715  11.375  19.705  0.00  0.00    +0.000 A 
ATOM     16  C   UNL     1       1.259  11.260  18.433  0.00  0.00    +0.000 A 
ATOM     17  C   UNL     1       1.797  10.040  18.021  0.00  0.00    +0.000 A 
ATOM     18  C   UNL     1       1.802   8.914  18.871  0.00  0.00    +0.000 A 
ENDBRANCH   7  18
ENDBRANCH   1  10
BRANCH   6  19
ATOM     19  N   UNL     1       5.761   4.478  18.721  0.00  0.00    +0.000 N 
ATOM     20  C   UNL     1       6.461   5.300  19.690  0.00  0.00    +0.000 C 
BRANCH  19  21
ATOM     21  C   UNL     1       5.141   3.241  19.198  0.00  0.00    +0.000 C 
BRANCH  21  22
ATOM     22  C   UNL     1       3.644   3.321  19.420  0.00  0.00    +0.000 A 
ATOM     23  C   UNL     1       2.746   2.575  18.644  0.00  0.00    +0.000 A 
ATOM     24  C   UNL     1       1.368   2.641  18.881  0.00  0.00    +0.000 A 
ATOM     25  C   UNL     1       0.872   3.454  19.899  0.00  0.00    +0.000 A 
ATOM     26  C   UNL     1       1.752   4.193  20.684  0.00  0.00    +0.000 A 
ATOM     27  C   UNL     1       3.126   4.125  20.447  0.00  0.00    +0.000 A 
ENDBRANCH  21  22
ENDBRANCH  19  21
ENDBRANCH   6  19
TORSDOF 5
ENDMDL
MODEL 3
REMARK VINA RESULT:      -7.2      2.160      3.486
REMARK  Name = 
REMARK  7 active torsions:
REMARK  status: ('A' for Active; 'I' for Inactive)
REMARK    1  A    between atoms: C_1  and  C_2
REMARK    2  A    between atoms: C_7  and  C_8
REMARK    3  A    between atoms: C_11  and  C_12
REMARK    4  A    between atoms: C_17  and  N_18
REMARK    5  A    between atoms: N_18  and  C_19
REMARK    6  A    between atoms: N_18  and  C_20
REMARK    7  A    between atoms: C_20  and  C_21
REMARK                            x       y       z     vdW  Elec       q    Type
REMARK                         _______ _______ _______ _____ _____    ______ ____
ROOT
ATOM      1  C   UNL     1       0.894   8.971  20.919  0.00  0.00    +0.000 A 
ATOM      2  C   UNL     1       0.780   8.871  22.328  0.00  0.00    +0.000 A 
ATOM      3  C   UNL     1       0.080   9.813  23.065  0.00  0.00    +0.000 A 
ATOM      4  C   UNL     1      -0.517  10.830  22.369  0.00  0.00    +0.000 A 
ATOM      5  N   UNL     1      -0.436  10.962  21.029  0.00  0.00    +0.000 NA
ATOM      6  C   UNL     1       0.290  10.080  20.286  0.00  0.00    +0.000 A 
ENDROOT
BRANCH   1  10
ATOM      7  C   UNL     1       2.691   6.543  19.022  0.00  0.00    +0.000 A 
ATOM      8  N   UNL     1       2.293   5.788  20.055  0.00  0.00    +0.000 NA
ATOM      9  O   UNL     1       1.564   6.661  20.848  0.00  0.00    +0.000 OA
ATOM     10  C   UNL     1       1.564   7.878  20.216  0.00  0.00    +0.000 A 
ATOM     11  N   UNL     1       2.192   7.828  19.065  0.00  0.00    +0.000 NA
BRANCH   7  18
ATOM     12  C   UNL     1       2.701   3.713  17.881  0.00  0.00    +0.000 C 
ATOM     13  C   UNL     1       3.621   4.811  17.416  0.00  0.00    +0.000 A 
ATOM     14  C   UNL     1       4.563   4.499  16.417  0.00  0.00    +0.000 A 
ATOM     15  C   UNL     1       5.475   5.451  15.961  0.00  0.00    +0.000 A 
ATOM     16  C   UNL     1       5.462   6.735  16.492  0.00  0.00    +0.000 A 
ATOM     17  C   UNL     1       4.532   7.063  17.478  0.00  0.00    +0.000 A 
ATOM     18  C   UNL     1       3.598   6.118  17.953  0.00  0.00    +0.000 A 
ENDBRANCH   7  18
ENDBRANCH   1  10
BRANCH   6  19
ATOM     19  N   UNL     1       0.359  10.381  18.938  0.00  0.00    +0.000 N 
ATOM     20  C   UNL     1       1.112  11.502  18.407  0.00  0.00    +0.000 C 
BRANCH  19  21
ATOM     21  C   UNL     1      -0.431   9.585  17.998  0.00  0.00    +0.000 C 
BRANCH  21  22
ATOM     22  C   UNL     1      -1.748  10.210  17.581  0.00  0.00    +0.000 A 
ATOM     23  C   UNL     1      -2.484  11.024  18.453  0.00  0.00    +0.000 A 
ATOM     24  C   UNL     1      -3.685  11.613  18.041  0.00  0.00    +0.000 A 
ATOM     25  C   UNL     1      -4.162  11.397  16.750  0.00  0.00    +0.000 A 
ATOM     26  C   UNL     1      -3.438  10.599  15.869  0.00  0.00    +0.000 A 
ATOM     27  C   UNL     1      -2.240  10.012  16.281  0.00  0.00    +0.000 A 
ENDBRANCH  21  22
ENDBRANCH  19  21
ENDBRANCH   6  19
TORSDOF 5
ENDMDL
MODEL 4
REMARK VINA RESULT:      -7.2      1.983      3.586
REMARK  Name = 
REMARK  7 active torsions:
REMARK  status: ('A' for Active; 'I' for Inactive)
REMARK    1  A    between atoms: C_1  and  C_2
REMARK    2  A    between atoms: C_7  and  C_8
REMARK    3  A    between atoms: C_11  and  C_12
REMARK    4  A    between atoms: C_17  and  N_18
REMARK    5  A    between atoms: N_18  and  C_19
REMARK    6  A    between atoms: N_18  and  C_20
REMARK    7  A    between atoms: C_20  and  C_21
REMARK                            x       y       z     vdW  Elec       q    Type
REMARK                         _______ _______ _______ _____ _____    ______ ____
ROOT
ATOM      1  C   UNL     1       1.486  10.852  18.654  0.00  0.00    +0.000 A 
ATOM      2  C   UNL     1       2.484  11.610  17.993  0.00  0.00    +0.000 A 
ATOM      3  C   UNL     1       2.387  12.988  17.876  0.00  0.00    +0.000 A 
ATOM      4  C   UNL     1       1.296  13.586  18.449  0.00  0.00    +0.000 A 
ATOM      5  N   UNL     1       0.324  12.903  19.089  0.00  0.00    +0.000 NA
ATOM      6  C   UNL     1       0.368  11.543  19.173  0.00  0.00    +0.000 A 
ENDROOT
BRANCH   1  10
ATOM      7  C   UNL     1       2.204   7.359  18.742  0.00  0.00    +0.000 A 
ATOM      8  N   UNL     1       2.004   7.592  20.047  0.00  0.00    +0.000 NA
ATOM      9  O   UNL     1       1.702   8.944  20.104  0.00  0.00    +0.000 OA
ATOM     10  C   UNL     1       1.723   9.418  18.817  0.00  0.00    +0.000 A 
ATOM     11  N   UNL     1       1.965   8.463  17.951  0.00  0.00    +0.000 NA
BRANCH   7  18
ATOM     12  C   UNL     1       4.946   7.042  17.442  0.00  0.00    +0.000 C 
ATOM     13  C   UNL     1       3.933   5.933  17.549  0.00  0.00    +0.000 A 
ATOM     14  C   UNL     1       4.261   4.686  16.985  0.00  0.00    +0.000 A 
ATOM     15  C   UNL     1       3.361   3.621  17.011  0.00  0.00    +0.000 A 
ATOM     16  C   UNL     1       2.115   3.780  17.603  0.00  0.00    +0.000 A 
ATOM     17  C   UNL     1       1.773   5.007  18.172  0.00  0.00    +0.000 A 
ATOM     18  C   UNL     1       2.669   6.098  18.161  0.00  0.00    +0.000 A 
ENDBRANCH   7  18
ENDBRANCH   1  10
BRANCH   6  19
ATOM     19  N   UNL     1      -0.732  10.966  19.780  0.00  0.00    +0.000 N 
ATOM     20  C   UNL     1      -1.203  11.341  21.100  0.00  0.00    +0.000 C 
BRANCH  19  21
ATOM     21  C   UNL     1      -1.412   9.862  19.102  0.00  0.00    +0.000 C 
BRANCH  21  22
ATOM     22  C   UNL     1      -2.297  10.272  17.941  0.00  0.00    +0.000 A 
ATOM     23  C   UNL     1      -3.375  11.151  18.114  0.00  0.00    +0.000 A 
ATOM     24  C   UNL     1      -4.165  11.539  17.026  0.00  0.00    +0.000 A 
ATOM     25  C   UNL     1      -3.882  11.054  15.750  0.00  0.00    +0.000 A 
ATOM     26  C   UNL     1      -2.809  10.189  15.560  0.00  0.00    +0.000 A 
ATOM     27  C   UNL     1      -2.023   9.803  16.647  0.00  0.00    +0.000 A 
ENDBRANCH  21  22
ENDBRANCH  19  21
ENDBRANCH   6  19
TORSDOF 5
ENDMDL
MODEL 5
REMARK VINA RESULT:      -7.1      2.085      3.400
REMARK  Name = 
REMARK  7 active torsions:
REMARK  status: ('A' for Active; 'I' for Inactive)
REMARK    1  A    between atoms: C_1  and  C_2
REMARK    2  A    between atoms: C_7  and  C_8
REMARK    3  A    between atoms: C_11  and  C_12
REMARK    4  A    between atoms: C_17  and  N_18
REMARK    5  A    between atoms: N_18  and  C_19
REMARK    6  A    between atoms: N_18  and  C_20
REMARK    7  A    between atoms: C_20  and  C_21
REMARK                            x       y       z     vdW  Elec       q    Type
REMARK                         _______ _______ _______ _____ _____    ______ ____
ROOT
ATOM      1  C   UNL     1       0.687   9.047  21.088  0.00  0.00    +0.000 A 
ATOM      2  C   UNL     1       0.565   8.898  22.491  0.00  0.00    +0.000 A 
ATOM      3  C   UNL     1      -0.165   9.797  23.253  0.00  0.00    +0.000 A 
ATOM      4  C   UNL     1      -0.783  10.821  22.585  0.00  0.00    +0.000 A 
ATOM      5  N   UNL     1      -0.695  10.998  21.251  0.00  0.00    +0.000 NA
ATOM      6  C   UNL     1       0.060  10.160  20.485  0.00  0.00    +0.000 A 
ENDROOT
BRANCH   1  10
ATOM      7  C   UNL     1       2.163   6.268  19.406  0.00  0.00    +0.000 A 
ATOM      8  N   UNL     1       2.778   7.279  18.776  0.00  0.00    +0.000 NA
ATOM      9  O   UNL     1       2.266   8.415  19.386  0.00  0.00    +0.000 OA
ATOM     10  C   UNL     1       1.392   7.995  20.355  0.00  0.00    +0.000 A 
ATOM     11  N   UNL     1       1.350   6.686  20.438  0.00  0.00    +0.000 NA
BRANCH   7  18
ATOM     12  C   UNL     1       2.223   4.038  21.487  0.00  0.00    +0.000 C 
ATOM     13  C   UNL     1       2.304   3.804  20.002  0.00  0.00    +0.000 A 
ATOM     14  C   UNL     1       2.449   2.478  19.552  0.00  0.00    +0.000 A 
ATOM     15  C   UNL     1       2.569   2.185  18.194  0.00  0.00    +0.000 A 
ATOM     16  C   UNL     1       2.544   3.210  17.257  0.00  0.00    +0.000 A 
ATOM     17  C   UNL     1       2.395   4.530  17.684  0.00  0.00    +0.000 A 
ATOM     18  C   UNL     1       2.269   4.851  19.052  0.00  0.00    +0.000 A 
ENDBRANCH   7  18
ENDBRANCH   1  10
BRANCH   6  19
ATOM     19  N   UNL     1       0.131  10.506  19.148  0.00  0.00    +0.000 N 
ATOM     20  C   UNL     1       0.797  11.703  18.668  0.00  0.00    +0.000 C 
BRANCH  19  21
ATOM     21  C   UNL     1      -0.567   9.675  18.168  0.00  0.00    +0.000 C 
BRANCH  21  22
ATOM     22  C   UNL     1      -1.870  10.253  17.652  0.00  0.00    +0.000 A 
ATOM     23  C   UNL     1      -2.679  11.070  18.454  0.00  0.00    +0.000 A 
ATOM     24  C   UNL     1      -3.866  11.616  17.952  0.00  0.00    +0.000 A 
ATOM     25  C   UNL     1      -4.256  11.352  16.640  0.00  0.00    +0.000 A 
ATOM     26  C   UNL     1      -3.459  10.550  15.829  0.00  0.00    +0.000 A 
ATOM     27  C   UNL     1      -2.275  10.007  16.331  0.00  0.00    +0.000 A 
ENDBRANCH  21  22
ENDBRANCH  19  21
ENDBRANCH   6  19
TORSDOF 5
ENDMDL
MODEL 6
REMARK VINA RESULT:      -7.1      3.917      8.718
REMARK  Name = 
REMARK  7 active torsions:
REMARK  status: ('A' for Active; 'I' for Inactive)
REMARK    1  A    between atoms: C_1  and  C_2
REMARK    2  A    between atoms: C_7  and  C_8
REMARK    3  A    between atoms: C_11  and  C_12
REMARK    4  A    between atoms: C_17  and  N_18
REMARK    5  A    between atoms: N_18  and  C_19
REMARK    6  A    between atoms: N_18  and  C_20
REMARK    7  A    between atoms: C_20  and  C_21
REMARK                            x       y       z     vdW  Elec       q    Type
REMARK                         _______ _______ _______ _____ _____    ______ ____
ROOT
ATOM      1  C   UNL     1       4.870   5.718  16.531  0.00  0.00    +0.000 A 
ATOM      2  C   UNL     1       5.083   5.783  15.132  0.00  0.00    +0.000 A 
ATOM      3  C   UNL     1       5.871   4.850  14.476  0.00  0.00    +0.000 A 
ATOM      4  C   UNL     1       6.415   3.849  15.238  0.00  0.00    +0.000 A 
ATOM      5  N   UNL     1       6.236   3.749  16.571  0.00  0.00    +0.000 NA
ATOM      6  C   UNL     1       5.510   4.682  17.249  0.00  0.00    +0.000 A 
ENDROOT
BRANCH   1  10
ATOM      7  C   UNL     1       2.597   7.872  18.240  0.00  0.00    +0.000 A 
ATOM      8  N   UNL     1       3.061   8.712  17.305  0.00  0.00    +0.000 NA
ATOM      9  O   UNL     1       3.955   7.942  16.576  0.00  0.00    +0.000 OA
ATOM     10  C   UNL     1       3.943   6.684  17.120  0.00  0.00    +0.000 A 
ATOM     11  N   UNL     1       3.078   6.586  18.101  0.00  0.00    +0.000 NA
BRANCH   7  18
ATOM     12  C   UNL     1       0.613  10.185  18.086  0.00  0.00    +0.000 C 
ATOM     13  C   UNL     1       0.784   9.302  19.294  0.00  0.00    +0.000 A 
ATOM     14  C   UNL     1       0.003   9.585  20.431  0.00  0.00    +0.000 A 
ATOM     15  C   UNL     1       0.131   8.837  21.601  0.00  0.00    +0.000 A 
ATOM     16  C   UNL     1       1.041   7.790  21.658  0.00  0.00    +0.000 A 
ATOM     17  C   UNL     1       1.819   7.490  20.540  0.00  0.00    +0.000 A 
ATOM     18  C   UNL     1       1.705   8.231  19.344  0.00  0.00    +0.000 A 
ENDBRANCH   7  18
ENDBRANCH   1  10
BRANCH   6  19
ATOM     19  N   UNL     1       5.478   4.505  18.619  0.00  0.00    +0.000 N 
ATOM     20  C   UNL     1       6.088   5.429  19.558  0.00  0.00    +0.000 C 
BRANCH  19  21
ATOM     21  C   UNL     1       4.875   3.286  19.158  0.00  0.00    +0.000 C 
BRANCH  21  22
ATOM     22  C   UNL     1       3.377   3.360  19.385  0.00  0.00    +0.000 A 
ATOM     23  C   UNL     1       2.839   3.805  20.600  0.00  0.00    +0.000 A 
ATOM     24  C   UNL     1       1.454   3.891  20.781  0.00  0.00    +0.000 A 
ATOM     25  C   UNL     1       0.591   3.534  19.747  0.00  0.00    +0.000 A 
ATOM     26  C   UNL     1       1.110   3.100  18.531  0.00  0.00    +0.000 A 
ATOM     27  C   UNL     1       2.492   3.015  18.352  0.00  0.00    +0.000 A 
ENDBRANCH  21  22
ENDBRANCH  19  21
ENDBRANCH   6  19
TORSDOF 5
ENDMDL
MODEL 7
REMARK VINA RESULT:      -7.1      0.998      1.252
REMARK  Name = 
REMARK  7 active torsions:
REMARK  status: ('A' for Active; 'I' for Inactive)
REMARK    1  A    between atoms: C_1  and  C_2
REMARK    2  A    between atoms: C_7  and  C_8
REMARK    3  A    between atoms: C_11  and  C_12
REMARK    4  A    between atoms: C_17  and  N_18
REMARK    5  A    between atoms: N_18  and  C_19
REMARK    6  A    between atoms: N_18  and  C_20
REMARK    7  A    between atoms: C_20  and  C_21
REMARK                            x       y       z     vdW  Elec       q    Type
REMARK                         _______ _______ _______ _____ _____    ______ ____
ROOT
ATOM      1  C   UNL     1      -1.042  11.070  21.828  0.00  0.00    +0.000 A 
ATOM      2  C   UNL     1      -1.556  11.280  23.132  0.00  0.00    +0.000 A 
ATOM      3  C   UNL     1      -2.563  12.201  23.373  0.00  0.00    +0.000 A 
ATOM      4  C   UNL     1      -3.057  12.881  22.291  0.00  0.00    +0.000 A 
ATOM      5  N   UNL     1      -2.598  12.710  21.033  0.00  0.00    +0.000 NA
ATOM      6  C   UNL     1      -1.573  11.850  20.777  0.00  0.00    +0.000 A 
ENDROOT
BRANCH   1  10
ATOM      7  C   UNL     1       1.228   8.416  21.102  0.00  0.00    +0.000 A 
ATOM      8  N   UNL     1       1.894   9.033  22.088  0.00  0.00    +0.000 NA
ATOM      9  O   UNL     1       1.064  10.085  22.446  0.00  0.00    +0.000 OA
ATOM     10  C   UNL     1      -0.052  10.007  21.654  0.00  0.00    +0.000 A 
ATOM     11  N   UNL     1      -0.016   8.961  20.863  0.00  0.00    +0.000 NA
BRANCH   7  18
ATOM     12  C   UNL     1       2.238   8.761  18.244  0.00  0.00    +0.000 C 
ATOM     13  C   UNL     1       2.201   7.442  18.969  0.00  0.00    +0.000 A 
ATOM     14  C   UNL     1       2.627   6.296  18.271  0.00  0.00    +0.000 A 
ATOM     15  C   UNL     1       2.586   5.033  18.861  0.00  0.00    +0.000 A 
ATOM     16  C   UNL     1       2.121   4.890  20.162  0.00  0.00    +0.000 A 
ATOM     17  C   UNL     1       1.699   6.015  20.871  0.00  0.00    +0.000 A 
ATOM     18  C   UNL     1       1.734   7.303  20.296  0.00  0.00    +0.000 A 
ENDBRANCH   7  18
ENDBRANCH   1  10
BRANCH   6  19
ATOM     19  N   UNL     1      -1.147  11.836  19.461  0.00  0.00    +0.000 N 
ATOM     20  C   UNL     1      -0.631  13.006  18.776  0.00  0.00    +0.000 C 
BRANCH  19  21
ATOM     21  C   UNL     1      -1.297  10.604  18.686  0.00  0.00    +0.000 C 
BRANCH  21  22
ATOM     22  C   UNL     1      -2.323  10.670  17.573  0.00  0.00    +0.000 A 
ATOM     23  C   UNL     1      -3.529  11.367  17.727  0.00  0.00    +0.000 A 
ATOM     24  C   UNL     1      -4.454  11.439  16.678  0.00  0.00    +0.000 A 
ATOM     25  C   UNL     1      -4.180  10.816  15.462  0.00  0.00    +0.000 A 
ATOM     26  C   UNL     1      -2.983  10.129  15.290  0.00  0.00    +0.000 A 
ATOM     27  C   UNL     1      -2.062  10.058  16.337  0.00  0.00    +0.000 A 
ENDBRANCH  21  22
ENDBRANCH  19  21
ENDBRANCH   6  19
TORSDOF 5
ENDMDL
MODEL 8
REMARK VINA RESULT:      -7.1      1.902      2.955
REMARK  Name = 
REMARK  7 active torsions:
REMARK  status: ('A' for Active; 'I' for Inactive)
REMARK    1  A    between atoms: C_1  and  C_2
REMARK    2  A    between atoms: C_7  and  C_8
REMARK    3  A    between atoms: C_11  and  C_12
REMARK    4  A    between atoms: C_17  and  N_18
REMARK    5  A    between atoms: N_18  and  C_19
REMARK    6  A    between atoms: N_18  and  C_20
REMARK    7  A    between atoms: C_20  and  C_21
REMARK                            x       y       z     vdW  Elec       q    Type
REMARK                         _______ _______ _______ _____ _____    ______ ____
ROOT
ATOM      1  C   UNL     1       0.732   9.651  20.793  0.00  0.00    +0.000 A 
ATOM      2  C   UNL     1       0.414   8.988  22.003  0.00  0.00    +0.000 A 
ATOM      3  C   UNL     1      -0.287   9.626  23.015  0.00  0.00    +0.000 A 
ATOM      4  C   UNL     1      -0.679  10.918  22.782  0.00  0.00    +0.000 A 
ATOM      5  N   UNL     1      -0.399  11.585  21.644  0.00  0.00    +0.000 NA
ATOM      6  C   UNL     1       0.334  11.000  20.655  0.00  0.00    +0.000 A 
ENDROOT
BRANCH   1  10
ATOM      7  C   UNL     1       2.284   7.469  18.435  0.00  0.00    +0.000 A 
ATOM      8  N   UNL     1       1.996   8.509  17.640  0.00  0.00    +0.000 NA
ATOM      9  O   UNL     1       1.393   9.424  18.490  0.00  0.00    +0.000 OA
ATOM     10  C   UNL     1       1.384   8.867  19.743  0.00  0.00    +0.000 A 
ATOM     11  N   UNL     1       1.976   7.697  19.760  0.00  0.00    +0.000 NA
BRANCH   7  18
ATOM     12  C   UNL     1       5.114   7.151  17.339  0.00  0.00    +0.000 C 
ATOM     13  C   UNL     1       4.133   6.016  17.479  0.00  0.00    +0.000 A 
ATOM     14  C   UNL     1       4.539   4.740  17.046  0.00  0.00    +0.000 A 
ATOM     15  C   UNL     1       3.675   3.647  17.107  0.00  0.00    +0.000 A 
ATOM     16  C   UNL     1       2.388   3.807  17.604  0.00  0.00    +0.000 A 
ATOM     17  C   UNL     1       1.970   5.063  18.043  0.00  0.00    +0.000 A 
ATOM     18  C   UNL     1       2.827   6.183  17.994  0.00  0.00    +0.000 A 
ENDBRANCH   7  18
ENDBRANCH   1  10
BRANCH   6  19
ATOM     19  N   UNL     1       0.619  11.824  19.582  0.00  0.00    +0.000 N 
ATOM     20  C   UNL     1       1.969  12.105  19.128  0.00  0.00    +0.000 C 
BRANCH  19  21
ATOM     21  C   UNL     1      -0.483  12.519  18.915  0.00  0.00    +0.000 C 
BRANCH  21  22
ATOM     22  C   UNL     1      -1.557  11.615  18.344  0.00  0.00    +0.000 A 
ATOM     23  C   UNL     1      -1.242  10.551  17.488  0.00  0.00    +0.000 A 
ATOM     24  C   UNL     1      -2.246   9.710  16.991  0.00  0.00    +0.000 A 
ATOM     25  C   UNL     1      -3.576   9.924  17.349  0.00  0.00    +0.000 A 
ATOM     26  C   UNL     1      -3.903  10.970  18.206  0.00  0.00    +0.000 A 
ATOM     27  C   UNL     1      -2.901  11.807  18.700  0.00  0.00    +0.000 A 
ENDBRANCH  21  22
ENDBRANCH  19  21
ENDBRANCH   6  19
TORSDOF 5
ENDMDL
MODEL 9
REMARK VINA RESULT:      -7.1      1.948      3.187
REMARK  Name = 
REMARK  7 active torsions:
REMARK  status: ('A' for Active; 'I' for Inactive)
REMARK    1  A    between atoms: C_1  and  C_2
REMARK    2  A    between atoms: C_7  and  C_8
REMARK    3  A    between atoms: C_11  and  C_12
REMARK    4  A    between atoms: C_17  and  N_18
REMARK    5  A    between atoms: N_18  and  C_19
REMARK    6  A    between atoms: N_18  and  C_20
REMARK    7  A    between atoms: C_20  and  C_21
REMARK                            x       y       z     vdW  Elec       q    Type
REMARK                         _______ _______ _______ _____ _____    ______ ____
ROOT
ATOM      1  C   UNL     1       0.651   9.605  20.684  0.00  0.00    +0.000 A 
ATOM      2  C   UNL     1       0.355   8.826  21.829  0.00  0.00    +0.000 A 
ATOM      3  C   UNL     1      -0.380   9.343  22.885  0.00  0.00    +0.000 A 
ATOM      4  C   UNL     1      -0.827  10.632  22.759  0.00  0.00    +0.000 A 
ATOM      5  N   UNL     1      -0.570  11.407  21.686  0.00  0.00    +0.000 NA
ATOM      6  C   UNL     1       0.195  10.942  20.658  0.00  0.00    +0.000 A 
ENDROOT
BRANCH   1  10
ATOM      7  C   UNL     1       2.424   7.748  18.206  0.00  0.00    +0.000 A 
ATOM      8  N   UNL     1       1.702   8.559  17.421  0.00  0.00    +0.000 NA
ATOM      9  O   UNL     1       0.982   9.338  18.315  0.00  0.00    +0.000 OA
ATOM     10  C   UNL     1       1.345   8.944  19.578  0.00  0.00    +0.000 A 
ATOM     11  N   UNL     1       2.272   8.017  19.550  0.00  0.00    +0.000 NA
BRANCH   7  18
ATOM     12  C   UNL     1       1.597   4.819  18.426  0.00  0.00    +0.000 C 
ATOM     13  C   UNL     1       2.907   5.282  17.844  0.00  0.00    +0.000 A 
ATOM     14  C   UNL     1       3.815   4.300  17.407  0.00  0.00    +0.000 A 
ATOM     15  C   UNL     1       5.064   4.648  16.893  0.00  0.00    +0.000 A 
ATOM     16  C   UNL     1       5.429   5.985  16.802  0.00  0.00    +0.000 A 
ATOM     17  C   UNL     1       4.539   6.972  17.225  0.00  0.00    +0.000 A 
ATOM     18  C   UNL     1       3.270   6.645  17.746  0.00  0.00    +0.000 A 
ENDBRANCH   7  18
ENDBRANCH   1  10
BRANCH   6  19
ATOM     19  N   UNL     1       0.450  11.867  19.663  0.00  0.00    +0.000 N 
ATOM     20  C   UNL     1       1.787  12.207  19.213  0.00  0.00    +0.000 C 
BRANCH  19  21
ATOM     21  C   UNL     1      -0.672  12.608  19.086  0.00  0.00    +0.000 C 
BRANCH  21  22
ATOM     22  C   UNL     1      -1.761  11.747  18.476  0.00  0.00    +0.000 A 
ATOM     23  C   UNL     1      -1.466  10.736  17.551  0.00  0.00    +0.000 A 
ATOM     24  C   UNL     1      -2.482   9.934  17.019  0.00  0.00    +0.000 A 
ATOM     25  C   UNL     1      -3.805  10.133  17.408  0.00  0.00    +0.000 A 
ATOM     26  C   UNL     1      -4.113  11.126  18.332  0.00  0.00    +0.000 A 
ATOM     27  C   UNL     1      -3.098  11.925  18.863  0.00  0.00    +0.000 A 
ENDBRANCH  21  22
ENDBRANCH  19  21
ENDBRANCH   6  19
TORSDOF 5
ENDMDL
