MODEL 1
REMARK VINA RESULT:      -7.5      0.000      0.000
REMARK  Name = 
REMARK  6 active torsions:
REMARK  status: ('A' for Active; 'I' for Inactive)
REMARK    1  A    between atoms: N_1  and  C_2
REMARK    2  A    between atoms: C_3  and  S_4
REMARK    3  A    between atoms: S_4  and  C_5
REMARK    4  A    between atoms: C_5  and  C_6
REMARK    5  A    between atoms: C_6  and  C_7
REMARK    6  A    between atoms: C_7  and  O_9
REMARK                            x       y       z     vdW  Elec       q    Type
REMARK                         _______ _______ _______ _____ _____    ______ ____
ROOT
ATOM      1  C   UNL     1       5.293   4.100  16.140  0.00  0.00    +0.000 A 
ATOM      2  C   UNL     1       5.875   5.214  15.486  0.00  0.00    +0.000 A 
ATOM      3  C   UNL     1       5.507   6.513  15.854  0.00  0.00    +0.000 A 
ATOM      4  C   UNL     1       4.597   6.720  16.892  0.00  0.00    +0.000 A 
ATOM      5  C   UNL     1       4.035   5.630  17.568  0.00  0.00    +0.000 A 
ATOM      6  C   UNL     1       4.382   4.325  17.200  0.00  0.00    +0.000 A 
ATOM      7  C   UNL     1       3.720   3.184  17.885  0.00  0.00    +0.000 C 
ATOM      8  O   UNL     1       3.910   2.028  17.516  0.00  0.00    +0.000 OA
ATOM      9  C   UNL     1       2.790   3.435  19.000  0.00  0.00    +0.000 A 
ATOM     10  C   UNL     1       2.210   2.351  19.672  0.00  0.00    +0.000 A 
ATOM     11  C   UNL     1       1.328   2.571  20.728  0.00  0.00    +0.000 A 
ATOM     12  C   UNL     1       1.019   3.874  21.114  0.00  0.00    +0.000 A 
ATOM     13  C   UNL     1       1.590   4.958  20.443  0.00  0.00    +0.000 A 
ATOM     14  C   UNL     1       2.479   4.737  19.381  0.00  0.00    +0.000 A 
ATOM     15  C   UNL     1       3.074   5.882  18.665  0.00  0.00    +0.000 C 
ATOM     16  O   UNL     1       2.778   7.027  18.977  0.00  0.00    +0.000 OA
ENDROOT
BRANCH   1  17
ATOM     17  N   UNL     1       5.788   2.799  15.861  0.00  0.00    +0.000 N 
ATOM     18  H   UNL     1       6.384   2.797  15.034  0.00  0.00    +0.000 HD
ATOM     19  H   UNL     1       5.024   2.114  15.787  0.00  0.00    +0.000 HD
ENDBRANCH   1  17
BRANCH   2  20
ATOM     20  S   UNL     1       7.002   4.993  14.104  0.00  0.00    +0.000 S 
BRANCH  20  21
ATOM     21  C   UNL     1       5.881   4.254  12.860  0.00  0.00    +0.000 C 
BRANCH  21  22
ATOM     22  C   UNL     1       6.565   3.151  12.062  0.00  0.00    +0.000 C 
BRANCH  22  23
ATOM     23  C   UNL     1       5.550   2.199  11.488  0.00  0.00    +0.000 C 
ATOM     24  O   UNL     1       4.414   2.494  11.150  0.00  0.00    +0.000 OA
BRANCH  23  25
ATOM     25  O   UNL     1       6.031   0.938  11.379  0.00  0.00    +0.000 OA
ATOM     26  H   UNL     1       5.646   0.436  10.634  0.00  0.00    +0.000 HD
ENDBRANCH  23  25
ENDBRANCH  22  23
ENDBRANCH  21  22
ENDBRANCH  20  21
ENDBRANCH   2  20
TORSDOF 6
ENDMDL
MODEL 2
REMARK VINA RESULT:      -7.5      4.786      6.955
REMARK  Name = 
REMARK  6 active torsions:
REMARK  status: ('A' for Active; 'I' for Inactive)
REMARK    1  A    between atoms: N_1  and  C_2
REMARK    2  A    between atoms: C_3  and  S_4
REMARK    3  A    between atoms: S_4  and  C_5
REMARK    4  A    between atoms: C_5  and  C_6
REMARK    5  A    between atoms: C_6  and  C_7
REMARK    6  A    between atoms: C_7  and  O_9
REMARK                            x       y       z     vdW  Elec       q    Type
REMARK                         _______ _______ _______ _____ _____    ______ ____
ROOT
ATOM      1  C   UNL     1       2.521   6.234  19.919  0.00  0.00    +0.000 A 
ATOM      2  C   UNL     1       3.367   5.645  18.948  0.00  0.00    +0.000 A 
ATOM      3  C   UNL     1       3.666   6.337  17.769  0.00  0.00    +0.000 A 
ATOM      4  C   UNL     1       3.168   7.624  17.561  0.00  0.00    +0.000 A 
ATOM      5  C   UNL     1       2.354   8.231  18.526  0.00  0.00    +0.000 A 
ATOM      6  C   UNL     1       2.033   7.545  19.702  0.00  0.00    +0.000 A 
ATOM      7  C   UNL     1       1.111   8.182  20.678  0.00  0.00    +0.000 C 
ATOM      8  O   UNL     1       0.715   7.569  21.667  0.00  0.00    +0.000 OA
ATOM      9  C   UNL     1       0.630   9.554  20.447  0.00  0.00    +0.000 A 
ATOM     10  C   UNL     1      -0.198  10.165  21.399  0.00  0.00    +0.000 A 
ATOM     11  C   UNL     1      -0.664  11.462  21.195  0.00  0.00    +0.000 A 
ATOM     12  C   UNL     1      -0.307  12.154  20.038  0.00  0.00    +0.000 A 
ATOM     13  C   UNL     1       0.514  11.547  19.085  0.00  0.00    +0.000 A 
ATOM     14  C   UNL     1       0.983  10.242  19.290  0.00  0.00    +0.000 A 
ATOM     15  C   UNL     1       1.842   9.597  18.278  0.00  0.00    +0.000 C 
ATOM     16  O   UNL     1       2.128  10.187  17.244  0.00  0.00    +0.000 OA
ENDROOT
BRANCH   1  17
ATOM     17  N   UNL     1       2.351   5.585  21.171  0.00  0.00    +0.000 N 
ATOM     18  H   UNL     1       2.921   4.742  21.234  0.00  0.00    +0.000 HD
ATOM     19  H   UNL     1       1.359   5.394  21.363  0.00  0.00    +0.000 HD
ENDBRANCH   1  17
BRANCH   2  20
ATOM     20  S   UNL     1       3.980   3.968  19.145  0.00  0.00    +0.000 S 
BRANCH  20  21
ATOM     21  C   UNL     1       2.545   3.003  18.542  0.00  0.00    +0.000 C 
BRANCH  21  22
ATOM     22  C   UNL     1       2.084   1.971  19.563  0.00  0.00    +0.000 C 
BRANCH  22  23
ATOM     23  C   UNL     1       1.406   2.640  20.729  0.00  0.00    +0.000 C 
ATOM     24  O   UNL     1       1.727   2.517  21.901  0.00  0.00    +0.000 OA
BRANCH  23  25
ATOM     25  O   UNL     1       0.368   3.420  20.344  0.00  0.00    +0.000 OA
ATOM     26  H   UNL     1       0.103   4.078  21.016  0.00  0.00    +0.000 HD
ENDBRANCH  23  25
ENDBRANCH  22  23
ENDBRANCH  21  22
ENDBRANCH  20  21
ENDBRANCH   2  20
TORSDOF 6
ENDMDL
MODEL 3
REMARK VINA RESULT:      -7.4      4.179      5.520
REMARK  Name = 
REMARK  6 active torsions:
REMARK  status: ('A' for Active; 'I' for Inactive)
REMARK    1  A    between atoms: N_1  and  C_2
REMARK    2  A    between atoms: C_3  and  S_4
REMARK    3  A    between atoms: S_4  and  C_5
REMARK    4  A    between atoms: C_5  and  C_6
REMARK    5  A    between atoms: C_6  and  C_7
REMARK    6  A    between atoms: C_7  and  O_9
REMARK                            x       y       z     vdW  Elec       q    Type
REMARK                         _______ _______ _______ _____ _____    ______ ____
ROOT
ATOM      1  C   UNL     1       3.478   5.607  18.862  0.00  0.00    +0.000 A 
ATOM      2  C   UNL     1       4.297   5.503  17.712  0.00  0.00    +0.000 A 
ATOM      3  C   UNL     1       4.340   6.552  16.786  0.00  0.00    +0.000 A 
ATOM      4  C   UNL     1       3.610   7.720  17.009  0.00  0.00    +0.000 A 
ATOM      5  C   UNL     1       2.818   7.849  18.158  0.00  0.00    +0.000 A 
ATOM      6  C   UNL     1       2.753   6.803  19.084  0.00  0.00    +0.000 A 
ATOM      7  C   UNL     1       1.851   6.936  20.258  0.00  0.00    +0.000 C 
ATOM      8  O   UNL     1       1.678   5.998  21.033  0.00  0.00    +0.000 OA
ATOM      9  C   UNL     1       1.121   8.194  20.485  0.00  0.00    +0.000 A 
ATOM     10  C   UNL     1       0.313   8.328  21.622  0.00  0.00    +0.000 A 
ATOM     11  C   UNL     1      -0.386   9.512  21.851  0.00  0.00    +0.000 A 
ATOM     12  C   UNL     1      -0.284  10.565  20.943  0.00  0.00    +0.000 A 
ATOM     13  C   UNL     1       0.515  10.433  19.805  0.00  0.00    +0.000 A 
ATOM     14  C   UNL     1       1.220   9.244  19.575  0.00  0.00    +0.000 A 
ATOM     15  C   UNL     1       2.056   9.101  18.368  0.00  0.00    +0.000 C 
ATOM     16  O   UNL     1       2.120  10.009  17.550  0.00  0.00    +0.000 OA
ENDROOT
BRANCH   1  17
ATOM     17  N   UNL     1       3.562   4.603  19.863  0.00  0.00    +0.000 N 
ATOM     18  H   UNL     1       2.788   3.944  19.795  0.00  0.00    +0.000 HD
ATOM     19  H   UNL     1       3.636   5.015  20.803  0.00  0.00    +0.000 HD
ENDBRANCH   1  17
BRANCH   2  20
ATOM     20  S   UNL     1       5.204   3.995  17.352  0.00  0.00    +0.000 S 
BRANCH  20  21
ATOM     21  C   UNL     1       6.836   4.678  16.879  0.00  0.00    +0.000 C 
BRANCH  21  22
ATOM     22  C   UNL     1       7.846   4.576  18.014  0.00  0.00    +0.000 C 
BRANCH  22  23
ATOM     23  C   UNL     1       7.821   5.819  18.864  0.00  0.00    +0.000 C 
ATOM     24  O   UNL     1       7.858   6.964  18.443  0.00  0.00    +0.000 OA
BRANCH  23  25
ATOM     25  O   UNL     1       7.752   5.537  20.186  0.00  0.00    +0.000 OA
ATOM     26  H   UNL     1       7.570   6.318  20.744  0.00  0.00    +0.000 HD
ENDBRANCH  23  25
ENDBRANCH  22  23
ENDBRANCH  21  22
ENDBRANCH  20  21
ENDBRANCH   2  20
TORSDOF 6
ENDMDL
MODEL 4
REMARK VINA RESULT:      -7.3      5.247      7.586
REMARK  Name = 
REMARK  6 active torsions:
REMARK  status: ('A' for Active; 'I' for Inactive)
REMARK    1  A    between atoms: N_1  and  C_2
REMARK    2  A    between atoms: C_3  and  S_4
REMARK    3  A    between atoms: S_4  and  C_5
REMARK    4  A    between atoms: C_5  and  C_6
REMARK    5  A    between atoms: C_6  and  C_7
REMARK    6  A    between atoms: C_7  and  O_9
REMARK                            x       y       z     vdW  Elec       q    Type
REMARK                         _______ _______ _______ _____ _____    ______ ____
ROOT
ATOM      1  C   UNL     1       1.810   7.722  19.890  0.00  0.00    +0.000 A 
ATOM      2  C   UNL     1       2.474   7.554  18.650  0.00  0.00    +0.000 A 
ATOM      3  C   UNL     1       2.395   8.553  17.673  0.00  0.00    +0.000 A 
ATOM      4  C   UNL     1       1.696   9.734  17.928  0.00  0.00    +0.000 A 
ATOM      5  C   UNL     1       1.059   9.926  19.160  0.00  0.00    +0.000 A 
ATOM      6  C   UNL     1       1.116   8.930  20.140  0.00  0.00    +0.000 A 
ATOM      7  C   UNL     1       0.374   9.128  21.412  0.00  0.00    +0.000 C 
ATOM      8  O   UNL     1       0.305   8.233  22.251  0.00  0.00    +0.000 OA
ATOM      9  C   UNL     1      -0.325  10.400  21.666  0.00  0.00    +0.000 A 
ATOM     10  C   UNL     1      -0.979  10.596  22.889  0.00  0.00    +0.000 A 
ATOM     11  C   UNL     1      -1.646  11.792  23.144  0.00  0.00    +0.000 A 
ATOM     12  C   UNL     1      -1.665  12.797  22.177  0.00  0.00    +0.000 A 
ATOM     13  C   UNL     1      -1.018  12.603  20.954  0.00  0.00    +0.000 A 
ATOM     14  C   UNL     1      -0.346  11.400  20.697  0.00  0.00    +0.000 A 
ATOM     15  C   UNL     1       0.327  11.191  19.401  0.00  0.00    +0.000 C 
ATOM     16  O   UNL     1       0.283  12.054  18.536  0.00  0.00    +0.000 OA
ENDROOT
BRANCH   1  17
ATOM     17  N   UNL     1       2.025   6.771  20.922  0.00  0.00    +0.000 N 
ATOM     18  H   UNL     1       1.360   6.000  20.863  0.00  0.00    +0.000 HD
ATOM     19  H   UNL     1       2.019   7.216  21.850  0.00  0.00    +0.000 HD
ENDBRANCH   1  17
BRANCH   2  20
ATOM     20  S   UNL     1       3.331   6.025  18.255  0.00  0.00    +0.000 S 
BRANCH  20  21
ATOM     21  C   UNL     1       1.917   4.918  17.901  0.00  0.00    +0.000 C 
BRANCH  21  22
ATOM     22  C   UNL     1       2.059   3.572  18.600  0.00  0.00    +0.000 C 
BRANCH  22  23
ATOM     23  C   UNL     1       1.027   3.423  19.687  0.00  0.00    +0.000 C 
ATOM     24  O   UNL     1       1.027   4.024  20.751  0.00  0.00    +0.000 OA
BRANCH  23  25
ATOM     25  O   UNL     1       0.064   2.529  19.363  0.00  0.00    +0.000 OA
ATOM     26  H   UNL     1      -0.840   2.832  19.579  0.00  0.00    +0.000 HD
ENDBRANCH  23  25
ENDBRANCH  22  23
ENDBRANCH  21  22
ENDBRANCH  20  21
ENDBRANCH   2  20
TORSDOF 6
ENDMDL
MODEL 5
REMARK VINA RESULT:      -7.2      5.209      6.934
REMARK  Name = 
REMARK  6 active torsions:
REMARK  status: ('A' for Active; 'I' for Inactive)
REMARK    1  A    between atoms: N_1  and  C_2
REMARK    2  A    between atoms: C_3  and  S_4
REMARK    3  A    between atoms: S_4  and  C_5
REMARK    4  A    between atoms: C_5  and  C_6
REMARK    5  A    between atoms: C_6  and  C_7
REMARK    6  A    between atoms: C_7  and  O_9
REMARK                            x       y       z     vdW  Elec       q    Type
REMARK                         _______ _______ _______ _____ _____    ______ ____
ROOT
ATOM      1  C   UNL     1       1.833   7.622  19.915  0.00  0.00    +0.000 A 
ATOM      2  C   UNL     1       2.505   7.387  18.691  0.00  0.00    +0.000 A 
ATOM      3  C   UNL     1       2.509   8.369  17.694  0.00  0.00    +0.000 A 
ATOM      4  C   UNL     1       1.888   9.599  17.914  0.00  0.00    +0.000 A 
ATOM      5  C   UNL     1       1.244   9.858  19.131  0.00  0.00    +0.000 A 
ATOM      6  C   UNL     1       1.218   8.879  20.131  0.00  0.00    +0.000 A 
ATOM      7  C   UNL     1       0.469   9.151  21.385  0.00  0.00    +0.000 C 
ATOM      8  O   UNL     1       0.326   8.279  22.239  0.00  0.00    +0.000 OA
ATOM      9  C   UNL     1      -0.147  10.471  21.602  0.00  0.00    +0.000 A 
ATOM     10  C   UNL     1      -0.807  10.735  22.809  0.00  0.00    +0.000 A 
ATOM     11  C   UNL     1      -1.396  11.978  23.030  0.00  0.00    +0.000 A 
ATOM     12  C   UNL     1      -1.331  12.962  22.045  0.00  0.00    +0.000 A 
ATOM     13  C   UNL     1      -0.679  12.701  20.838  0.00  0.00    +0.000 A 
ATOM     14  C   UNL     1      -0.085  11.451  20.615  0.00  0.00    +0.000 A 
ATOM     15  C   UNL     1       0.595  11.173  19.336  0.00  0.00    +0.000 C 
ATOM     16  O   UNL     1       0.623  12.020  18.454  0.00  0.00    +0.000 OA
ENDROOT
BRANCH   1  17
ATOM     17  N   UNL     1       1.967   6.680  20.968  0.00  0.00    +0.000 N 
ATOM     18  H   UNL     1       2.780   6.080  20.830  0.00  0.00    +0.000 HD
ATOM     19  H   UNL     1       1.104   6.135  21.097  0.00  0.00    +0.000 HD
ENDBRANCH   1  17
BRANCH   2  20
ATOM     20  S   UNL     1       3.264   5.796  18.340  0.00  0.00    +0.000 S 
BRANCH  20  21
ATOM     21  C   UNL     1       4.762   6.323  17.427  0.00  0.00    +0.000 C 
BRANCH  21  22
ATOM     22  C   UNL     1       5.299   5.216  16.530  0.00  0.00    +0.000 C 
BRANCH  22  23
ATOM     23  C   UNL     1       6.578   4.649  17.088  0.00  0.00    +0.000 C 
ATOM     24  O   UNL     1       7.670   4.697  16.544  0.00  0.00    +0.000 OA
BRANCH  23  25
ATOM     25  O   UNL     1       6.397   4.060  18.294  0.00  0.00    +0.000 OA
ATOM     26  H   UNL     1       5.988   4.648  18.959  0.00  0.00    +0.000 HD
ENDBRANCH  23  25
ENDBRANCH  22  23
ENDBRANCH  21  22
ENDBRANCH  20  21
ENDBRANCH   2  20
TORSDOF 6
ENDMDL
MODEL 6
REMARK VINA RESULT:      -7.2      3.909      5.414
REMARK  Name = 
REMARK  6 active torsions:
REMARK  status: ('A' for Active; 'I' for Inactive)
REMARK    1  A    between atoms: N_1  and  C_2
REMARK    2  A    between atoms: C_3  and  S_4
REMARK    3  A    between atoms: S_4  and  C_5
REMARK    4  A    between atoms: C_5  and  C_6
REMARK    5  A    between atoms: C_6  and  C_7
REMARK    6  A    between atoms: C_7  and  O_9
REMARK                            x       y       z     vdW  Elec       q    Type
REMARK                         _______ _______ _______ _____ _____    ______ ____
ROOT
ATOM      1  C   UNL     1       2.951   6.062  19.360  0.00  0.00    +0.000 A 
ATOM      2  C   UNL     1       3.753   5.853  18.212  0.00  0.00    +0.000 A 
ATOM      3  C   UNL     1       3.840   6.845  17.229  0.00  0.00    +0.000 A 
ATOM      4  C   UNL     1       3.172   8.059  17.392  0.00  0.00    +0.000 A 
ATOM      5  C   UNL     1       2.398   8.292  18.537  0.00  0.00    +0.000 A 
ATOM      6  C   UNL     1       2.289   7.303  19.520  0.00  0.00    +0.000 A 
ATOM      7  C   UNL     1       1.407   7.547  20.691  0.00  0.00    +0.000 C 
ATOM      8  O   UNL     1       1.194   6.663  21.518  0.00  0.00    +0.000 OA
ATOM      9  C   UNL     1       0.743   8.851  20.853  0.00  0.00    +0.000 A 
ATOM     10  C   UNL     1      -0.046   9.089  21.986  0.00  0.00    +0.000 A 
ATOM     11  C   UNL     1      -0.682  10.317  22.153  0.00  0.00    +0.000 A 
ATOM     12  C   UNL     1      -0.536  11.312  21.188  0.00  0.00    +0.000 A 
ATOM     13  C   UNL     1       0.245  11.077  20.054  0.00  0.00    +0.000 A 
ATOM     14  C   UNL     1       0.886   9.842  19.885  0.00  0.00    +0.000 A 
ATOM     15  C   UNL     1       1.703   9.591  18.682  0.00  0.00    +0.000 C 
ATOM     16  O   UNL     1       1.805  10.447  17.815  0.00  0.00    +0.000 OA
ENDROOT
BRANCH   1  17
ATOM     17  N   UNL     1       2.994   5.111  20.415  0.00  0.00    +0.000 N 
ATOM     18  H   UNL     1       3.217   5.554  21.306  0.00  0.00    +0.000 HD
ATOM     19  H   UNL     1       3.636   4.338  20.198  0.00  0.00    +0.000 HD
ENDBRANCH   1  17
BRANCH   2  20
ATOM     20  S   UNL     1       4.579   4.282  17.931  0.00  0.00    +0.000 S 
BRANCH  20  21
ATOM     21  C   UNL     1       4.817   4.338  16.116  0.00  0.00    +0.000 C 
BRANCH  21  22
ATOM     22  C   UNL     1       6.190   3.819  15.706  0.00  0.00    +0.000 C 
BRANCH  22  23
ATOM     23  C   UNL     1       7.282   4.645  16.333  0.00  0.00    +0.000 C 
ATOM     24  O   UNL     1       8.078   4.248  17.170  0.00  0.00    +0.000 OA
BRANCH  23  25
ATOM     25  O   UNL     1       7.299   5.916  15.866  0.00  0.00    +0.000 OA
ATOM     26  H   UNL     1       7.503   5.979  14.912  0.00  0.00    +0.000 HD
ENDBRANCH  23  25
ENDBRANCH  22  23
ENDBRANCH  21  22
ENDBRANCH  20  21
ENDBRANCH   2  20
TORSDOF 6
ENDMDL
MODEL 7
REMARK VINA RESULT:      -7.2      5.043      7.070
REMARK  Name = 
REMARK  6 active torsions:
REMARK  status: ('A' for Active; 'I' for Inactive)
REMARK    1  A    between atoms: N_1  and  C_2
REMARK    2  A    between atoms: C_3  and  S_4
REMARK    3  A    between atoms: S_4  and  C_5
REMARK    4  A    between atoms: C_5  and  C_6
REMARK    5  A    between atoms: C_6  and  C_7
REMARK    6  A    between atoms: C_7  and  O_9
REMARK                            x       y       z     vdW  Elec       q    Type
REMARK                         _______ _______ _______ _____ _____    ______ ____
ROOT
ATOM      1  C   UNL     1       2.088   7.271  19.757  0.00  0.00    +0.000 A 
ATOM      2  C   UNL     1       2.757   7.100  18.521  0.00  0.00    +0.000 A 
ATOM      3  C   UNL     1       2.721   8.115  17.559  0.00  0.00    +0.000 A 
ATOM      4  C   UNL     1       2.062   9.316  17.826  0.00  0.00    +0.000 A 
ATOM      5  C   UNL     1       1.421   9.512  19.056  0.00  0.00    +0.000 A 
ATOM      6  C   UNL     1       1.435   8.499  20.021  0.00  0.00    +0.000 A 
ATOM      7  C   UNL     1       0.688   8.704  21.290  0.00  0.00    +0.000 C 
ATOM      8  O   UNL     1       0.580   7.799  22.114  0.00  0.00    +0.000 OA
ATOM      9  C   UNL     1       0.033   9.995  21.557  0.00  0.00    +0.000 A 
ATOM     10  C   UNL     1      -0.626  10.196  22.777  0.00  0.00    +0.000 A 
ATOM     11  C   UNL     1      -1.252  11.411  23.046  0.00  0.00    +0.000 A 
ATOM     12  C   UNL     1      -1.227  12.430  22.094  0.00  0.00    +0.000 A 
ATOM     13  C   UNL     1      -0.577  12.232  20.874  0.00  0.00    +0.000 A 
ATOM     14  C   UNL     1       0.054  11.010  20.604  0.00  0.00    +0.000 A 
ATOM     15  C   UNL     1       0.732  10.798  19.311  0.00  0.00    +0.000 C 
ATOM     16  O   UNL     1       0.725  11.675  18.458  0.00  0.00    +0.000 OA
ENDROOT
BRANCH   1  17
ATOM     17  N   UNL     1       2.261   6.298  20.777  0.00  0.00    +0.000 N 
ATOM     18  H   UNL     1       3.003   5.641  20.542  0.00  0.00    +0.000 HD
ATOM     19  H   UNL     1       1.376   5.819  20.993  0.00  0.00    +0.000 HD
ENDBRANCH   1  17
BRANCH   2  20
ATOM     20  S   UNL     1       3.563   5.548  18.110  0.00  0.00    +0.000 S 
BRANCH  20  21
ATOM     21  C   UNL     1       5.310   6.085  17.998  0.00  0.00    +0.000 C 
BRANCH  21  22
ATOM     22  C   UNL     1       6.246   5.135  18.732  0.00  0.00    +0.000 C 
BRANCH  22  23
ATOM     23  C   UNL     1       7.473   5.861  19.216  0.00  0.00    +0.000 C 
ATOM     24  O   UNL     1       8.061   6.740  18.605  0.00  0.00    +0.000 OA
BRANCH  23  25
ATOM     25  O   UNL     1       7.879   5.432  20.434  0.00  0.00    +0.000 OA
ATOM     26  H   UNL     1       7.187   4.952  20.930  0.00  0.00    +0.000 HD
ENDBRANCH  23  25
ENDBRANCH  22  23
ENDBRANCH  21  22
ENDBRANCH  20  21
ENDBRANCH   2  20
TORSDOF 6
ENDMDL
MODEL 8
REMARK VINA RESULT:      -7.1      4.406      6.047
REMARK  Name = 
REMARK  6 active torsions:
REMARK  status: ('A' for Active; 'I' for Inactive)
REMARK    1  A    between atoms: N_1  and  C_2
REMARK    2  A    between atoms: C_3  and  S_4
REMARK    3  A    between atoms: S_4  and  C_5
REMARK    4  A    between atoms: C_5  and  C_6
REMARK    5  A    between atoms: C_6  and  C_7
REMARK    6  A    between atoms: C_7  and  O_9
REMARK                            x       y       z     vdW  Elec       q    Type
REMARK                         _______ _______ _______ _____ _____    ______ ____
ROOT
ATOM      1  C   UNL     1       2.445   6.429  19.801  0.00  0.00    +0.000 A 
ATOM      2  C   UNL     1       3.252   5.907  18.761  0.00  0.00    +0.000 A 
ATOM      3  C   UNL     1       3.512   6.677  17.622  0.00  0.00    +0.000 A 
ATOM      4  C   UNL     1       3.013   7.976  17.521  0.00  0.00    +0.000 A 
ATOM      5  C   UNL     1       2.237   8.517  18.555  0.00  0.00    +0.000 A 
ATOM      6  C   UNL     1       1.956   7.753  19.692  0.00  0.00    +0.000 A 
ATOM      7  C   UNL     1       1.073   8.324  20.743  0.00  0.00    +0.000 C 
ATOM      8  O   UNL     1       0.710   7.646  21.701  0.00  0.00    +0.000 OA
ATOM      9  C   UNL     1       0.591   9.710  20.624  0.00  0.00    +0.000 A 
ATOM     10  C   UNL     1      -0.199  10.256  21.645  0.00  0.00    +0.000 A 
ATOM     11  C   UNL     1      -0.665  11.565  21.548  0.00  0.00    +0.000 A 
ATOM     12  C   UNL     1      -0.347  12.334  20.429  0.00  0.00    +0.000 A 
ATOM     13  C   UNL     1       0.435  11.792  19.406  0.00  0.00    +0.000 A 
ATOM     14  C   UNL     1       0.905  10.475  19.504  0.00  0.00    +0.000 A 
ATOM     15  C   UNL     1       1.723   9.899  18.419  0.00  0.00    +0.000 C 
ATOM     16  O   UNL     1       1.974  10.557  17.419  0.00  0.00    +0.000 OA
ENDROOT
BRANCH   1  17
ATOM     17  N   UNL     1       2.317   5.696  21.011  0.00  0.00    +0.000 N 
ATOM     18  H   UNL     1       1.713   4.884  20.892  0.00  0.00    +0.000 HD
ATOM     19  H   UNL     1       2.005   6.299  21.784  0.00  0.00    +0.000 HD
ENDBRANCH   1  17
BRANCH   2  20
ATOM     20  S   UNL     1       3.863   4.218  18.820  0.00  0.00    +0.000 S 
BRANCH  20  21
ATOM     21  C   UNL     1       5.602   4.462  18.303  0.00  0.00    +0.000 C 
BRANCH  21  22
ATOM     22  C   UNL     1       5.775   4.309  16.797  0.00  0.00    +0.000 C 
BRANCH  22  23
ATOM     23  C   UNL     1       7.185   4.640  16.384  0.00  0.00    +0.000 C 
ATOM     24  O   UNL     1       7.500   5.300  15.407  0.00  0.00    +0.000 OA
BRANCH  23  25
ATOM     25  O   UNL     1       8.104   4.117  17.230  0.00  0.00    +0.000 OA
ATOM     26  H   UNL     1       7.903   3.203  17.510  0.00  0.00    +0.000 HD
ENDBRANCH  23  25
ENDBRANCH  22  23
ENDBRANCH  21  22
ENDBRANCH  20  21
ENDBRANCH   2  20
TORSDOF 6
ENDMDL
MODEL 9
REMARK VINA RESULT:      -7.1      3.824      5.151
REMARK  Name = 
REMARK  6 active torsions:
REMARK  status: ('A' for Active; 'I' for Inactive)
REMARK    1  A    between atoms: N_1  and  C_2
REMARK    2  A    between atoms: C_3  and  S_4
REMARK    3  A    between atoms: S_4  and  C_5
REMARK    4  A    between atoms: C_5  and  C_6
REMARK    5  A    between atoms: C_6  and  C_7
REMARK    6  A    between atoms: C_7  and  O_9
REMARK                            x       y       z     vdW  Elec       q    Type
REMARK                         _______ _______ _______ _____ _____    ______ ____
ROOT
ATOM      1  C   UNL     1       3.040   5.932  19.416  0.00  0.00    +0.000 A 
ATOM      2  C   UNL     1       3.876   5.596  18.323  0.00  0.00    +0.000 A 
ATOM      3  C   UNL     1       4.013   6.481  17.248  0.00  0.00    +0.000 A 
ATOM      4  C   UNL     1       3.362   7.715  17.264  0.00  0.00    +0.000 A 
ATOM      5  C   UNL     1       2.555   8.075  18.351  0.00  0.00    +0.000 A 
ATOM      6  C   UNL     1       2.396   7.193  19.426  0.00  0.00    +0.000 A 
ATOM      7  C   UNL     1       1.480   7.568  20.534  0.00  0.00    +0.000 C 
ATOM      8  O   UNL     1       1.225   6.776  21.439  0.00  0.00    +0.000 OA
ATOM      9  C   UNL     1       0.835   8.891  20.539  0.00  0.00    +0.000 A 
ATOM     10  C   UNL     1       0.013   9.254  21.615  0.00  0.00    +0.000 A 
ATOM     11  C   UNL     1      -0.606  10.502  21.634  0.00  0.00    +0.000 A 
ATOM     12  C   UNL     1      -0.410  11.391  20.578  0.00  0.00    +0.000 A 
ATOM     13  C   UNL     1       0.403  11.031  19.502  0.00  0.00    +0.000 A 
ATOM     14  C   UNL     1       1.028   9.776  19.482  0.00  0.00    +0.000 A 
ATOM     15  C   UNL     1       1.879   9.391  18.340  0.00  0.00    +0.000 C 
ATOM     16  O   UNL     1       2.024  10.153  17.394  0.00  0.00    +0.000 OA
ENDROOT
BRANCH   1  17
ATOM     17  N   UNL     1       3.032   5.094  20.562  0.00  0.00    +0.000 N 
ATOM     18  H   UNL     1       3.681   4.315  20.458  0.00  0.00    +0.000 HD
ATOM     19  H   UNL     1       2.080   4.776  20.787  0.00  0.00    +0.000 HD
ENDBRANCH   1  17
BRANCH   2  20
ATOM     20  S   UNL     1       4.683   3.993  18.231  0.00  0.00    +0.000 S 
BRANCH  20  21
ATOM     21  C   UNL     1       5.193   3.964  16.473  0.00  0.00    +0.000 C 
BRANCH  21  22
ATOM     22  C   UNL     1       6.656   4.350  16.298  0.00  0.00    +0.000 C 
BRANCH  22  23
ATOM     23  C   UNL     1       6.958   4.659  14.856  0.00  0.00    +0.000 C 
ATOM     24  O   UNL     1       7.787   5.466  14.463  0.00  0.00    +0.000 OA
BRANCH  23  25
ATOM     25  O   UNL     1       6.197   3.934  14.003  0.00  0.00    +0.000 OA
ATOM     26  H   UNL     1       6.284   4.209  13.069  0.00  0.00    +0.000 HD
ENDBRANCH  23  25
ENDBRANCH  22  23
ENDBRANCH  21  22
ENDBRANCH  20  21
ENDBRANCH   2  20
TORSDOF 6
ENDMDL
