MODEL 1
REMARK VINA RESULT:      -7.2      0.000      0.000
REMARK  Name = 
REMARK  3 active torsions:
REMARK  status: ('A' for Active; 'I' for Inactive)
REMARK    1  A    between atoms: N_2  and  C_4
REMARK    2  A    between atoms: C_7  and  C_8
REMARK    3  A    between atoms: C_10  and  C_11
REMARK                            x       y       z     vdW  Elec       q    Type
REMARK                         _______ _______ _______ _____ _____    ______ ____
ROOT
ATOM      1  C   UNL     1       0.278  11.277  18.894  0.00  0.00    +0.000 C 
ATOM      2  C   UNL     1       1.236  10.315  18.186  0.00  0.00    +0.000 C 
ATOM      3  C   UNL     1       1.401   9.260  19.246  0.00  0.00    +0.000 C 
ATOM      4  N   UNL     1       0.811   9.512  20.374  0.00  0.00    +0.000 NA
ATOM      5  N   UNL     1       0.208  10.735  20.241  0.00  0.00    +0.000 N 
ATOM      6  C   UNL     1      -0.736  11.211  21.154  0.00  0.00    +0.000 A 
ATOM      7  N   UNL     1      -0.862  10.609  22.355  0.00  0.00    +0.000 NA
ATOM      8  C   UNL     1      -1.733  11.138  23.242  0.00  0.00    +0.000 A 
ATOM      9  C   UNL     1      -2.491  12.250  22.987  0.00  0.00    +0.000 A 
ATOM     10 BR   UNL     1      -3.678  12.972  24.247  0.00  0.00    +0.000 Br
ATOM     11  C   UNL     1      -2.319  12.797  21.744  0.00  0.00    +0.000 A 
ATOM     12  N   UNL     1      -1.472  12.296  20.821  0.00  0.00    +0.000 NA
ENDROOT
BRANCH   1  16
ATOM     13  C   UNL     1       1.814  15.316  18.805  0.00  0.00    +0.000 A 
ATOM     14  C   UNL     1       2.677  14.247  19.077  0.00  0.00    +0.000 A 
ATOM     15  C   UNL     1       2.172  12.946  19.104  0.00  0.00    +0.000 A 
ATOM     16  C   UNL     1       0.809  12.702  18.860  0.00  0.00    +0.000 A 
ATOM     17  C   UNL     1      -0.038  13.787  18.570  0.00  0.00    +0.000 A 
ATOM     18  C   UNL     1       0.457  15.091  18.547  0.00  0.00    +0.000 A 
BRANCH  13  20
ATOM     19  O   UNL     1       3.186  16.969  17.935  0.00  0.00    +0.000 OA
ATOM     20  N   UNL     1       2.335  16.687  18.791  0.00  0.00    +0.000 N 
ATOM     21  O   UNL     1       1.903  17.478  19.640  0.00  0.00    +0.000 OA
ENDBRANCH  13  20
ENDBRANCH   1  16
BRANCH   3  22
ATOM     22  C   UNL     1       2.198   8.036  18.989  0.00  0.00    +0.000 A 
ATOM     23  C   UNL     1       2.195   6.967  19.895  0.00  0.00    +0.000 A 
ATOM     24  C   UNL     1       2.955   5.824  19.634  0.00  0.00    +0.000 A 
ATOM     25  C   UNL     1       3.718   5.743  18.470  0.00  0.00    +0.000 A 
ATOM     26  C   UNL     1       3.720   6.802  17.563  0.00  0.00    +0.000 A 
ATOM     27  C   UNL     1       2.961   7.946  17.820  0.00  0.00    +0.000 A 
ENDBRANCH   3  22
TORSDOF 3
ENDMDL
MODEL 2
REMARK VINA RESULT:      -7.2      3.712      5.224
REMARK  Name = 
REMARK  3 active torsions:
REMARK  status: ('A' for Active; 'I' for Inactive)
REMARK    1  A    between atoms: N_2  and  C_4
REMARK    2  A    between atoms: C_7  and  C_8
REMARK    3  A    between atoms: C_10  and  C_11
REMARK                            x       y       z     vdW  Elec       q    Type
REMARK                         _______ _______ _______ _____ _____    ______ ____
ROOT
ATOM      1  C   UNL     1       0.536  10.336  19.427  0.00  0.00    +0.000 C 
ATOM      2  C   UNL     1       0.757   8.834  19.225  0.00  0.00    +0.000 C 
ATOM      3  C   UNL     1       2.027   8.848  18.418  0.00  0.00    +0.000 C 
ATOM      4  N   UNL     1       2.458  10.026  18.086  0.00  0.00    +0.000 NA
ATOM      5  N   UNL     1       1.560  10.932  18.586  0.00  0.00    +0.000 N 
ATOM      6  C   UNL     1       1.833  12.300  18.652  0.00  0.00    +0.000 A 
ATOM      7  N   UNL     1       2.868  12.807  17.953  0.00  0.00    +0.000 NA
ATOM      8  C   UNL     1       3.060  14.145  17.981  0.00  0.00    +0.000 A 
ATOM      9  C   UNL     1       2.260  15.009  18.681  0.00  0.00    +0.000 A 
ATOM     10 BR   UNL     1       2.541  16.863  18.686  0.00  0.00    +0.000 Br
ATOM     11  C   UNL     1       1.239  14.420  19.377  0.00  0.00    +0.000 A 
ATOM     12  N   UNL     1       1.017  13.089  19.389  0.00  0.00    +0.000 NA
ENDROOT
BRANCH   1  16
ATOM     13  C   UNL     1      -3.461  11.474  18.239  0.00  0.00    +0.000 A 
ATOM     14  C   UNL     1      -2.723  10.586  17.446  0.00  0.00    +0.000 A 
ATOM     15  C   UNL     1      -1.432  10.225  17.837  0.00  0.00    +0.000 A 
ATOM     16  C   UNL     1      -0.871  10.741  19.017  0.00  0.00    +0.000 A 
ATOM     17  C   UNL     1      -1.636  11.617  19.810  0.00  0.00    +0.000 A 
ATOM     18  C   UNL     1      -2.924  11.989  19.424  0.00  0.00    +0.000 A 
BRANCH  13  20
ATOM     19  O   UNL     1      -5.632  12.131  18.716  0.00  0.00    +0.000 OA
ATOM     20  N   UNL     1      -4.811  11.870  17.825  0.00  0.00    +0.000 N 
ATOM     21  O   UNL     1      -5.054  11.912  16.611  0.00  0.00    +0.000 OA
ENDBRANCH  13  20
ENDBRANCH   1  16
BRANCH   3  22
ATOM     22  C   UNL     1       2.705   7.585  18.038  0.00  0.00    +0.000 A 
ATOM     23  C   UNL     1       3.924   7.597  17.347  0.00  0.00    +0.000 A 
ATOM     24  C   UNL     1       4.544   6.395  16.997  0.00  0.00    +0.000 A 
ATOM     25  C   UNL     1       3.953   5.179  17.336  0.00  0.00    +0.000 A 
ATOM     26  C   UNL     1       2.743   5.162  18.029  0.00  0.00    +0.000 A 
ATOM     27  C   UNL     1       2.120   6.361  18.381  0.00  0.00    +0.000 A 
ENDBRANCH   3  22
TORSDOF 3
ENDMDL
MODEL 3
REMARK VINA RESULT:      -7.2      0.225      1.092
REMARK  Name = 
REMARK  3 active torsions:
REMARK  status: ('A' for Active; 'I' for Inactive)
REMARK    1  A    between atoms: N_2  and  C_4
REMARK    2  A    between atoms: C_7  and  C_8
REMARK    3  A    between atoms: C_10  and  C_11
REMARK                            x       y       z     vdW  Elec       q    Type
REMARK                         _______ _______ _______ _____ _____    ______ ____
ROOT
ATOM      1  C   UNL     1       0.338  11.218  18.859  0.00  0.00    +0.000 C 
ATOM      2  C   UNL     1       1.291  10.250  18.152  0.00  0.00    +0.000 C 
ATOM      3  C   UNL     1       1.446   9.192  19.211  0.00  0.00    +0.000 C 
ATOM      4  N   UNL     1       0.855   9.447  20.338  0.00  0.00    +0.000 NA
ATOM      5  N   UNL     1       0.261  10.674  20.206  0.00  0.00    +0.000 N 
ATOM      6  C   UNL     1      -0.682  11.155  21.117  0.00  0.00    +0.000 A 
ATOM      7  N   UNL     1      -0.815  10.552  22.317  0.00  0.00    +0.000 NA
ATOM      8  C   UNL     1      -1.684  11.085  23.203  0.00  0.00    +0.000 A 
ATOM      9  C   UNL     1      -2.434  12.203  22.948  0.00  0.00    +0.000 A 
ATOM     10 BR   UNL     1      -3.619  12.932  24.206  0.00  0.00    +0.000 Br
ATOM     11  C   UNL     1      -2.256  12.751  21.706  0.00  0.00    +0.000 A 
ATOM     12  N   UNL     1      -1.410  12.246  20.784  0.00  0.00    +0.000 NA
ENDROOT
BRANCH   1  16
ATOM     13  C   UNL     1       1.902  15.246  18.780  0.00  0.00    +0.000 A 
ATOM     14  C   UNL     1       2.765  14.167  19.008  0.00  0.00    +0.000 A 
ATOM     15  C   UNL     1       2.251  12.869  19.033  0.00  0.00    +0.000 A 
ATOM     16  C   UNL     1       0.879  12.639  18.829  0.00  0.00    +0.000 A 
ATOM     17  C   UNL     1       0.032  13.735  18.583  0.00  0.00    +0.000 A 
ATOM     18  C   UNL     1       0.535  15.035  18.563  0.00  0.00    +0.000 A 
BRANCH  13  20
ATOM     19  O   UNL     1       2.645  17.156  19.863  0.00  0.00    +0.000 OA
ATOM     20  N   UNL     1       2.434  16.613  18.769  0.00  0.00    +0.000 N 
ATOM     21  O   UNL     1       2.631  17.147  17.670  0.00  0.00    +0.000 OA
ENDBRANCH  13  20
ENDBRANCH   1  16
BRANCH   3  22
ATOM     22  C   UNL     1       2.236   7.963  18.954  0.00  0.00    +0.000 A 
ATOM     23  C   UNL     1       3.016   7.833  17.798  0.00  0.00    +0.000 A 
ATOM     24  C   UNL     1       3.751   6.666  17.575  0.00  0.00    +0.000 A 
ATOM     25  C   UNL     1       3.711   5.627  18.504  0.00  0.00    +0.000 A 
ATOM     26  C   UNL     1       2.940   5.754  19.659  0.00  0.00    +0.000 A 
ATOM     27  C   UNL     1       2.205   6.920  19.886  0.00  0.00    +0.000 A 
ENDBRANCH   3  22
TORSDOF 3
ENDMDL
MODEL 4
REMARK VINA RESULT:      -7.2      3.713      5.128
REMARK  Name = 
REMARK  3 active torsions:
REMARK  status: ('A' for Active; 'I' for Inactive)
REMARK    1  A    between atoms: N_2  and  C_4
REMARK    2  A    between atoms: C_7  and  C_8
REMARK    3  A    between atoms: C_10  and  C_11
REMARK                            x       y       z     vdW  Elec       q    Type
REMARK                         _______ _______ _______ _____ _____    ______ ____
ROOT
ATOM      1  C   UNL     1       0.523  10.331  19.439  0.00  0.00    +0.000 C 
ATOM      2  C   UNL     1       0.742   8.829  19.240  0.00  0.00    +0.000 C 
ATOM      3  C   UNL     1       2.008   8.840  18.427  0.00  0.00    +0.000 C 
ATOM      4  N   UNL     1       2.439  10.017  18.090  0.00  0.00    +0.000 NA
ATOM      5  N   UNL     1       1.544  10.925  18.592  0.00  0.00    +0.000 N 
ATOM      6  C   UNL     1       1.817  12.293  18.654  0.00  0.00    +0.000 A 
ATOM      7  N   UNL     1       2.850  12.798  17.948  0.00  0.00    +0.000 NA
ATOM      8  C   UNL     1       3.042  14.135  17.972  0.00  0.00    +0.000 A 
ATOM      9  C   UNL     1       2.246  15.002  18.674  0.00  0.00    +0.000 A 
ATOM     10 BR   UNL     1       2.528  16.856  18.673  0.00  0.00    +0.000 Br
ATOM     11  C   UNL     1       1.228  14.415  19.376  0.00  0.00    +0.000 A 
ATOM     12  N   UNL     1       1.005  13.084  19.393  0.00  0.00    +0.000 NA
ENDROOT
BRANCH   1  16
ATOM     13  C   UNL     1      -3.479  11.469  18.268  0.00  0.00    +0.000 A 
ATOM     14  C   UNL     1      -2.746  10.576  17.475  0.00  0.00    +0.000 A 
ATOM     15  C   UNL     1      -1.454  10.215  17.861  0.00  0.00    +0.000 A 
ATOM     16  C   UNL     1      -0.886  10.737  19.035  0.00  0.00    +0.000 A 
ATOM     17  C   UNL     1      -1.645  11.617  19.828  0.00  0.00    +0.000 A 
ATOM     18  C   UNL     1      -2.934  11.989  19.447  0.00  0.00    +0.000 A 
BRANCH  13  20
ATOM     19  O   UNL     1      -5.050  11.989  16.645  0.00  0.00    +0.000 OA
ATOM     20  N   UNL     1      -4.830  11.865  17.859  0.00  0.00    +0.000 N 
ATOM     21  O   UNL     1      -5.668  12.061  18.749  0.00  0.00    +0.000 OA
ENDBRANCH  13  20
ENDBRANCH   1  16
BRANCH   3  22
ATOM     22  C   UNL     1       2.684   7.576  18.047  0.00  0.00    +0.000 A 
ATOM     23  C   UNL     1       2.126   6.332  18.370  0.00  0.00    +0.000 A 
ATOM     24  C   UNL     1       2.780   5.153  18.003  0.00  0.00    +0.000 A 
ATOM     25  C   UNL     1       3.990   5.211  17.313  0.00  0.00    +0.000 A 
ATOM     26  C   UNL     1       4.547   6.447  16.985  0.00  0.00    +0.000 A 
ATOM     27  C   UNL     1       3.895   7.627  17.349  0.00  0.00    +0.000 A 
ENDBRANCH   3  22
TORSDOF 3
ENDMDL
MODEL 5
REMARK VINA RESULT:      -7.2      0.213      1.095
REMARK  Name = 
REMARK  3 active torsions:
REMARK  status: ('A' for Active; 'I' for Inactive)
REMARK    1  A    between atoms: N_2  and  C_4
REMARK    2  A    between atoms: C_7  and  C_8
REMARK    3  A    between atoms: C_10  and  C_11
REMARK                            x       y       z     vdW  Elec       q    Type
REMARK                         _______ _______ _______ _____ _____    ______ ____
ROOT
ATOM      1  C   UNL     1       0.367  11.300  18.880  0.00  0.00    +0.000 C 
ATOM      2  C   UNL     1       1.317  10.330  18.171  0.00  0.00    +0.000 C 
ATOM      3  C   UNL     1       1.451   9.260  19.220  0.00  0.00    +0.000 C 
ATOM      4  N   UNL     1       0.852   9.508  20.344  0.00  0.00    +0.000 NA
ATOM      5  N   UNL     1       0.272  10.743  20.220  0.00  0.00    +0.000 N 
ATOM      6  C   UNL     1      -0.674  11.224  21.128  0.00  0.00    +0.000 A 
ATOM      7  N   UNL     1      -0.824  10.610  22.319  0.00  0.00    +0.000 NA
ATOM      8  C   UNL     1      -1.696  11.143  23.203  0.00  0.00    +0.000 A 
ATOM      9  C   UNL     1      -2.432  12.271  22.953  0.00  0.00    +0.000 A 
ATOM     10 BR   UNL     1      -3.621  12.999  24.208  0.00  0.00    +0.000 Br
ATOM     11  C   UNL     1      -2.237  12.830  21.719  0.00  0.00    +0.000 A 
ATOM     12  N   UNL     1      -1.387  12.326  20.799  0.00  0.00    +0.000 NA
ENDROOT
BRANCH   1  16
ATOM     13  C   UNL     1       1.923  15.332  18.843  0.00  0.00    +0.000 A 
ATOM     14  C   UNL     1       0.578  15.101  18.530  0.00  0.00    +0.000 A 
ATOM     15  C   UNL     1       0.084  13.795  18.543  0.00  0.00    +0.000 A 
ATOM     16  C   UNL     1       0.923  12.716  18.870  0.00  0.00    +0.000 A 
ATOM     17  C   UNL     1       2.267  12.971  19.200  0.00  0.00    +0.000 A 
ATOM     18  C   UNL     1       2.771  14.272  19.183  0.00  0.00    +0.000 A 
BRANCH  13  20
ATOM     19  O   UNL     1       2.639  17.267  19.901  0.00  0.00    +0.000 OA
ATOM     20  N   UNL     1       2.452  16.700  18.814  0.00  0.00    +0.000 N 
ATOM     21  O   UNL     1       2.670  17.212  17.708  0.00  0.00    +0.000 OA
ENDBRANCH  13  20
ENDBRANCH   1  16
BRANCH   3  22
ATOM     22  C   UNL     1       2.231   8.026  18.957  0.00  0.00    +0.000 A 
ATOM     23  C   UNL     1       2.190   6.942  19.844  0.00  0.00    +0.000 A 
ATOM     24  C   UNL     1       2.933   5.789  19.578  0.00  0.00    +0.000 A 
ATOM     25  C   UNL     1       3.717   5.713  18.428  0.00  0.00    +0.000 A 
ATOM     26  C   UNL     1       3.757   6.788  17.539  0.00  0.00    +0.000 A 
ATOM     27  C   UNL     1       3.014   7.941  17.801  0.00  0.00    +0.000 A 
ENDBRANCH   3  22
TORSDOF 3
ENDMDL
MODEL 6
REMARK VINA RESULT:      -7.1      0.255      1.342
REMARK  Name = 
REMARK  3 active torsions:
REMARK  status: ('A' for Active; 'I' for Inactive)
REMARK    1  A    between atoms: N_2  and  C_4
REMARK    2  A    between atoms: C_7  and  C_8
REMARK    3  A    between atoms: C_10  and  C_11
REMARK                            x       y       z     vdW  Elec       q    Type
REMARK                         _______ _______ _______ _____ _____    ______ ____
ROOT
ATOM      1  C   UNL     1       0.355  11.339  18.909  0.00  0.00    +0.000 C 
ATOM      2  C   UNL     1       1.298  10.365  18.198  0.00  0.00    +0.000 C 
ATOM      3  C   UNL     1       1.420   9.287  19.240  0.00  0.00    +0.000 C 
ATOM      4  N   UNL     1       0.819   9.534  20.364  0.00  0.00    +0.000 NA
ATOM      5  N   UNL     1       0.250  10.774  20.245  0.00  0.00    +0.000 N 
ATOM      6  C   UNL     1      -0.695  11.258  21.153  0.00  0.00    +0.000 A 
ATOM      7  N   UNL     1      -0.855  10.637  22.339  0.00  0.00    +0.000 NA
ATOM      8  C   UNL     1      -1.725  11.173  23.224  0.00  0.00    +0.000 A 
ATOM      9  C   UNL     1      -2.451  12.309  22.978  0.00  0.00    +0.000 A 
ATOM     10 BR   UNL     1      -3.637  13.039  24.234  0.00  0.00    +0.000 Br
ATOM     11  C   UNL     1      -2.246  12.874  21.748  0.00  0.00    +0.000 A 
ATOM     12  N   UNL     1      -1.398  12.368  20.829  0.00  0.00    +0.000 NA
ENDROOT
BRANCH   1  16
ATOM     13  C   UNL     1       1.947  15.357  18.903  0.00  0.00    +0.000 A 
ATOM     14  C   UNL     1       0.609  15.136  18.550  0.00  0.00    +0.000 A 
ATOM     15  C   UNL     1       0.104  13.834  18.554  0.00  0.00    +0.000 A 
ATOM     16  C   UNL     1       0.923  12.749  18.910  0.00  0.00    +0.000 A 
ATOM     17  C   UNL     1       2.259  12.995  19.279  0.00  0.00    +0.000 A 
ATOM     18  C   UNL     1       2.775  14.291  19.272  0.00  0.00    +0.000 A 
BRANCH  13  20
ATOM     19  O   UNL     1       2.603  17.278  17.784  0.00  0.00    +0.000 OA
ATOM     20  N   UNL     1       2.488  16.720  18.884  0.00  0.00    +0.000 N 
ATOM     21  O   UNL     1       2.806  17.230  19.967  0.00  0.00    +0.000 OA
ENDBRANCH  13  20
ENDBRANCH   1  16
BRANCH   3  22
ATOM     22  C   UNL     1       2.189   8.048  18.972  0.00  0.00    +0.000 A 
ATOM     23  C   UNL     1       2.968   7.915  17.815  0.00  0.00    +0.000 A 
ATOM     24  C   UNL     1       3.684   6.738  17.582  0.00  0.00    +0.000 A 
ATOM     25  C   UNL     1       3.625   5.691  18.501  0.00  0.00    +0.000 A 
ATOM     26  C   UNL     1       2.855   5.820  19.656  0.00  0.00    +0.000 A 
ATOM     27  C   UNL     1       2.139   6.996  19.894  0.00  0.00    +0.000 A 
ENDBRANCH   3  22
TORSDOF 3
ENDMDL
MODEL 7
REMARK VINA RESULT:      -7.1      4.047      7.522
REMARK  Name = 
REMARK  3 active torsions:
REMARK  status: ('A' for Active; 'I' for Inactive)
REMARK    1  A    between atoms: N_2  and  C_4
REMARK    2  A    between atoms: C_7  and  C_8
REMARK    3  A    between atoms: C_10  and  C_11
REMARK                            x       y       z     vdW  Elec       q    Type
REMARK                         _______ _______ _______ _____ _____    ______ ____
ROOT
ATOM      1  C   UNL     1      -0.219  11.342  19.205  0.00  0.00    +0.000 C 
ATOM      2  C   UNL     1      -1.546  11.090  19.928  0.00  0.00    +0.000 C 
ATOM      3  C   UNL     1      -1.535  12.217  20.925  0.00  0.00    +0.000 C 
ATOM      4  N   UNL     1      -0.455  12.938  20.934  0.00  0.00    +0.000 NA
ATOM      5  N   UNL     1       0.386  12.403  19.994  0.00  0.00    +0.000 N 
ATOM      6  C   UNL     1       1.526  13.070  19.539  0.00  0.00    +0.000 A 
ATOM      7  N   UNL     1       1.995  14.130  20.229  0.00  0.00    +0.000 NA
ATOM      8  C   UNL     1       3.140  14.707  19.803  0.00  0.00    +0.000 A 
ATOM      9  C   UNL     1       3.847  14.274  18.712  0.00  0.00    +0.000 A 
ATOM     10 BR   UNL     1       5.444  15.085  18.157  0.00  0.00    +0.000 Br
ATOM     11  C   UNL     1       3.301  13.203  18.055  0.00  0.00    +0.000 A 
ATOM     12  N   UNL     1       2.154  12.603  18.435  0.00  0.00    +0.000 NA
ENDROOT
BRANCH   1  16
ATOM     13  C   UNL     1       2.197   7.761  19.064  0.00  0.00    +0.000 A 
ATOM     14  C   UNL     1       1.948   8.481  17.889  0.00  0.00    +0.000 A 
ATOM     15  C   UNL     1       1.165   9.636  17.944  0.00  0.00    +0.000 A 
ATOM     16  C   UNL     1       0.630  10.081  19.165  0.00  0.00    +0.000 A 
ATOM     17  C   UNL     1       0.907   9.354  20.337  0.00  0.00    +0.000 A 
ATOM     18  C   UNL     1       1.683   8.195  20.292  0.00  0.00    +0.000 A 
BRANCH  13  20
ATOM     19  O   UNL     1       2.885   5.729  19.943  0.00  0.00    +0.000 OA
ATOM     20  N   UNL     1       3.004   6.538  19.011  0.00  0.00    +0.000 N 
ATOM     21  O   UNL     1       3.763   6.389  18.044  0.00  0.00    +0.000 OA
ENDBRANCH  13  20
ENDBRANCH   1  16
BRANCH   3  22
ATOM     22  C   UNL     1      -2.688  12.451  21.827  0.00  0.00    +0.000 A 
ATOM     23  C   UNL     1      -2.585  12.228  23.207  0.00  0.00    +0.000 A 
ATOM     24  C   UNL     1      -3.686  12.454  24.038  0.00  0.00    +0.000 A 
ATOM     25  C   UNL     1      -4.889  12.902  23.497  0.00  0.00    +0.000 A 
ATOM     26  C   UNL     1      -4.995  13.130  22.125  0.00  0.00    +0.000 A 
ATOM     27  C   UNL     1      -3.898  12.907  21.291  0.00  0.00    +0.000 A 
ENDBRANCH   3  22
TORSDOF 3
ENDMDL
MODEL 8
REMARK VINA RESULT:      -7.1      4.025      7.481
REMARK  Name = 
REMARK  3 active torsions:
REMARK  status: ('A' for Active; 'I' for Inactive)
REMARK    1  A    between atoms: N_2  and  C_4
REMARK    2  A    between atoms: C_7  and  C_8
REMARK    3  A    between atoms: C_10  and  C_11
REMARK                            x       y       z     vdW  Elec       q    Type
REMARK                         _______ _______ _______ _____ _____    ______ ____
ROOT
ATOM      1  C   UNL     1      -0.294  11.410  19.243  0.00  0.00    +0.000 C 
ATOM      2  C   UNL     1      -1.619  11.145  19.963  0.00  0.00    +0.000 C 
ATOM      3  C   UNL     1      -1.610  12.257  20.977  0.00  0.00    +0.000 C 
ATOM      4  N   UNL     1      -0.532  12.979  20.996  0.00  0.00    +0.000 NA
ATOM      5  N   UNL     1       0.310  12.460  20.048  0.00  0.00    +0.000 N 
ATOM      6  C   UNL     1       1.448  13.136  19.602  0.00  0.00    +0.000 A 
ATOM      7  N   UNL     1       1.916  14.186  20.308  0.00  0.00    +0.000 NA
ATOM      8  C   UNL     1       3.060  14.772  19.890  0.00  0.00    +0.000 A 
ATOM      9  C   UNL     1       3.767  14.356  18.792  0.00  0.00    +0.000 A 
ATOM     10 BR   UNL     1       5.363  15.178  18.249  0.00  0.00    +0.000 Br
ATOM     11  C   UNL     1       3.223  13.294  18.120  0.00  0.00    +0.000 A 
ATOM     12  N   UNL     1       2.077  12.686  18.492  0.00  0.00    +0.000 NA
ENDROOT
BRANCH   1  16
ATOM     13  C   UNL     1       2.124   7.830  19.104  0.00  0.00    +0.000 A 
ATOM     14  C   UNL     1       1.616   8.281  20.329  0.00  0.00    +0.000 A 
ATOM     15  C   UNL     1       0.836   9.440  20.364  0.00  0.00    +0.000 A 
ATOM     16  C   UNL     1       0.558  10.151  19.185  0.00  0.00    +0.000 A 
ATOM     17  C   UNL     1       1.062   9.671  17.962  0.00  0.00    +0.000 A 
ATOM     18  C   UNL     1       1.847   8.518  17.918  0.00  0.00    +0.000 A 
BRANCH  13  20
ATOM     19  O   UNL     1       3.757   6.510  18.123  0.00  0.00    +0.000 OA
ATOM     20  N   UNL     1       2.958   6.624  19.063  0.00  0.00    +0.000 N 
ATOM     21  O   UNL     1       2.807   5.787  19.963  0.00  0.00    +0.000 OA
ENDBRANCH  13  20
ENDBRANCH   1  16
BRANCH   3  22
ATOM     22  C   UNL     1      -2.764  12.475  21.883  0.00  0.00    +0.000 A 
ATOM     23  C   UNL     1      -2.651  12.262  23.263  0.00  0.00    +0.000 A 
ATOM     24  C   UNL     1      -3.751  12.473  24.098  0.00  0.00    +0.000 A 
ATOM     25  C   UNL     1      -4.965  12.897  23.560  0.00  0.00    +0.000 A 
ATOM     26  C   UNL     1      -5.081  13.116  22.187  0.00  0.00    +0.000 A 
ATOM     27  C   UNL     1      -3.983  12.908  21.350  0.00  0.00    +0.000 A 
ENDBRANCH   3  22
TORSDOF 3
ENDMDL
MODEL 9
REMARK VINA RESULT:      -7.1      4.017      7.532
REMARK  Name = 
REMARK  3 active torsions:
REMARK  status: ('A' for Active; 'I' for Inactive)
REMARK    1  A    between atoms: N_2  and  C_4
REMARK    2  A    between atoms: C_7  and  C_8
REMARK    3  A    between atoms: C_10  and  C_11
REMARK                            x       y       z     vdW  Elec       q    Type
REMARK                         _______ _______ _______ _____ _____    ______ ____
ROOT
ATOM      1  C   UNL     1      -0.283  11.466  19.228  0.00  0.00    +0.000 C 
ATOM      2  C   UNL     1      -1.615  11.205  19.936  0.00  0.00    +0.000 C 
ATOM      3  C   UNL     1      -1.606  12.309  20.958  0.00  0.00    +0.000 C 
ATOM      4  N   UNL     1      -0.524  13.024  20.991  0.00  0.00    +0.000 NA
ATOM      5  N   UNL     1       0.322  12.506  20.045  0.00  0.00    +0.000 N 
ATOM      6  C   UNL     1       1.468  13.178  19.614  0.00  0.00    +0.000 A 
ATOM      7  N   UNL     1       1.938  14.219  20.331  0.00  0.00    +0.000 NA
ATOM      8  C   UNL     1       3.089  14.801  19.926  0.00  0.00    +0.000 A 
ATOM      9  C   UNL     1       3.801  14.388  18.831  0.00  0.00    +0.000 A 
ATOM     10 BR   UNL     1       5.406  15.204  18.306  0.00  0.00    +0.000 Br
ATOM     11  C   UNL     1       3.256  13.335  18.147  0.00  0.00    +0.000 A 
ATOM     12  N   UNL     1       2.103  12.732  18.505  0.00  0.00    +0.000 NA
ENDROOT
BRANCH   1  16
ATOM     13  C   UNL     1       2.113   7.872  19.081  0.00  0.00    +0.000 A 
ATOM     14  C   UNL     1       1.598   8.318  20.305  0.00  0.00    +0.000 A 
ATOM     15  C   UNL     1       0.826   9.481  20.343  0.00  0.00    +0.000 A 
ATOM     16  C   UNL     1       0.561  10.202  19.167  0.00  0.00    +0.000 A 
ATOM     17  C   UNL     1       1.071   9.728  17.944  0.00  0.00    +0.000 A 
ATOM     18  C   UNL     1       1.849   8.570  17.897  0.00  0.00    +0.000 A 
BRANCH  13  20
ATOM     19  O   UNL     1       2.773   5.819  19.933  0.00  0.00    +0.000 OA
ATOM     20  N   UNL     1       2.938   6.660  19.037  0.00  0.00    +0.000 N 
ATOM     21  O   UNL     1       3.757   6.553  18.115  0.00  0.00    +0.000 OA
ENDBRANCH  13  20
ENDBRANCH   1  16
BRANCH   3  22
ATOM     22  C   UNL     1      -2.766  12.529  21.856  0.00  0.00    +0.000 A 
ATOM     23  C   UNL     1      -3.984  13.010  21.360  0.00  0.00    +0.000 A 
ATOM     24  C   UNL     1      -5.064  13.212  22.225  0.00  0.00    +0.000 A 
ATOM     25  C   UNL     1      -4.931  12.932  23.584  0.00  0.00    +0.000 A 
ATOM     26  C   UNL     1      -3.722  12.447  24.082  0.00  0.00    +0.000 A 
ATOM     27  C   UNL     1      -2.641  12.244  23.221  0.00  0.00    +0.000 A 
ENDBRANCH   3  22
TORSDOF 3
ENDMDL
