MODEL 1
REMARK VINA RESULT:      -7.1      0.000      0.000
REMARK  Name = 
REMARK  7 active torsions:
REMARK  status: ('A' for Active; 'I' for Inactive)
REMARK    1  A    between atoms: C_1  and  C_2
REMARK    2  A    between atoms: C_2  and  C_3
REMARK    3  A    between atoms: C_3  and  N_4
REMARK    4  A    between atoms: C_5  and  C_6
REMARK    5  A    between atoms: C_6  and  C_7
REMARK    6  A    between atoms: C_6  and  N_9
REMARK    7  A    between atoms: C_7  and  C_8
REMARK                            x       y       z     vdW  Elec       q    Type
REMARK                         _______ _______ _______ _____ _____    ______ ____
ROOT
ATOM      1  N   UNL     1       2.489   6.005  20.106  0.00  0.00    +0.000 N 
ATOM      2  C   UNL     1       2.980   6.020  18.801  0.00  0.00    +0.000 A 
ATOM      3  N   UNL     1       2.813   7.017  17.985  0.00  0.00    +0.000 NA
ATOM      4  C   UNL     1       2.235   8.190  18.398  0.00  0.00    +0.000 A 
ATOM      5  C   UNL     1       2.301   9.290  17.526  0.00  0.00    +0.000 A 
ATOM      6  C   UNL     1       1.748  10.516  17.898  0.00  0.00    +0.000 A 
ATOM      7  C   UNL     1       1.120  10.619  19.141  0.00  0.00    +0.000 A 
ATOM      8  C   UNL     1       1.061   9.513  20.005  0.00  0.00    +0.000 A 
ATOM      9  C   UNL     1       1.649   8.290  19.641  0.00  0.00    +0.000 A 
ATOM     10  C   UNL     1       1.668   7.075  20.523  0.00  0.00    +0.000 A 
ATOM     11  O   UNL     1       0.970   7.049  21.530  0.00  0.00    +0.000 OA
ENDROOT
BRANCH   1  12
ATOM     12  C   UNL     1       2.454   4.713  20.857  0.00  0.00    +0.000 C 
BRANCH  12  14
ATOM     13  C   UNL     1       1.385   2.435  21.679  0.00  0.00    +0.000 C 
ATOM     14  C   UNL     1       1.307   3.680  20.803  0.00  0.00    +0.000 C 
ENDBRANCH  12  14
ENDBRANCH   1  12
BRANCH   2  15
ATOM     15  C   UNL     1       3.860   4.872  18.211  0.00  0.00    +0.000 C 
BRANCH  15  16
ATOM     16  N   UNL     1       4.999   5.507  17.528  0.00  0.00    +0.000 NA
ATOM     17  C   UNL     1       6.216   5.689  18.328  0.00  0.00    +0.000 C 
ATOM     18  C   UNL     1       7.453   4.835  17.978  0.00  0.00    +0.000 C 
ATOM     19  N   UNL     1       7.683   4.559  16.565  0.00  0.00    +0.000 NA
ATOM     20  C   UNL     1       6.451   4.300  15.821  0.00  0.00    +0.000 C 
ATOM     21  C   UNL     1       5.255   5.222  16.121  0.00  0.00    +0.000 C 
ATOM     22  H   UNL     1       8.295   3.749  16.487  0.00  0.00    +0.000 HD
ENDBRANCH  15  16
BRANCH  15  23
ATOM     23  C   UNL     1       2.933   3.949  17.372  0.00  0.00    +0.000 C 
ATOM     24  C   UNL     1       2.941   2.456  17.700  0.00  0.00    +0.000 C 
ENDBRANCH  15  23
ENDBRANCH   2  15
TORSDOF 5
ENDMDL
MODEL 2
REMARK VINA RESULT:      -6.8      1.723      2.851
REMARK  Name = 
REMARK  7 active torsions:
REMARK  status: ('A' for Active; 'I' for Inactive)
REMARK    1  A    between atoms: C_1  and  C_2
REMARK    2  A    between atoms: C_2  and  C_3
REMARK    3  A    between atoms: C_3  and  N_4
REMARK    4  A    between atoms: C_5  and  C_6
REMARK    5  A    between atoms: C_6  and  C_7
REMARK    6  A    between atoms: C_6  and  N_9
REMARK    7  A    between atoms: C_7  and  C_8
REMARK                            x       y       z     vdW  Elec       q    Type
REMARK                         _______ _______ _______ _____ _____    ______ ____
ROOT
ATOM      1  N   UNL     1       4.357   4.473  18.910  0.00  0.00    +0.000 N 
ATOM      2  C   UNL     1       4.662   4.940  17.632  0.00  0.00    +0.000 A 
ATOM      3  N   UNL     1       4.161   6.029  17.130  0.00  0.00    +0.000 NA
ATOM      4  C   UNL     1       3.378   6.868  17.881  0.00  0.00    +0.000 A 
ATOM      5  C   UNL     1       3.072   8.128  17.339  0.00  0.00    +0.000 A 
ATOM      6  C   UNL     1       2.294   9.034  18.063  0.00  0.00    +0.000 A 
ATOM      7  C   UNL     1       1.822   8.656  19.322  0.00  0.00    +0.000 A 
ATOM      8  C   UNL     1       2.136   7.394  19.853  0.00  0.00    +0.000 A 
ATOM      9  C   UNL     1       2.947   6.499  19.136  0.00  0.00    +0.000 A 
ATOM     10  C   UNL     1       3.364   5.151  19.649  0.00  0.00    +0.000 A 
ATOM     11  O   UNL     1       2.825   4.693  20.650  0.00  0.00    +0.000 OA
ENDROOT
BRANCH   1  12
ATOM     12  C   UNL     1       4.724   3.072  19.280  0.00  0.00    +0.000 C 
BRANCH  12  14
ATOM     13  C   UNL     1       2.503   1.895  18.448  0.00  0.00    +0.000 C 
ATOM     14  C   UNL     1       3.979   1.801  18.816  0.00  0.00    +0.000 C 
ENDBRANCH  12  14
ENDBRANCH   1  12
BRANCH   2  15
ATOM     15  C   UNL     1       5.707   4.248  16.701  0.00  0.00    +0.000 C 
BRANCH  15  16
ATOM     16  N   UNL     1       7.005   4.899  16.947  0.00  0.00    +0.000 NA
ATOM     17  C   UNL     1       7.111   6.306  16.544  0.00  0.00    +0.000 C 
ATOM     18  C   UNL     1       7.216   7.375  17.652  0.00  0.00    +0.000 C 
ATOM     19  N   UNL     1       7.982   7.019  18.840  0.00  0.00    +0.000 NA
ATOM     20  C   UNL     1       7.781   5.632  19.258  0.00  0.00    +0.000 C 
ATOM     21  C   UNL     1       7.769   4.569  18.145  0.00  0.00    +0.000 C 
ATOM     22  H   UNL     1       7.708   7.639  19.601  0.00  0.00    +0.000 HD
ENDBRANCH  15  16
BRANCH  15  23
ATOM     23  C   UNL     1       5.144   4.277  15.253  0.00  0.00    +0.000 C 
ATOM     24  C   UNL     1       6.101   3.917  14.117  0.00  0.00    +0.000 C 
ENDBRANCH  15  23
ENDBRANCH   2  15
TORSDOF 5
ENDMDL
MODEL 3
REMARK VINA RESULT:      -6.5      2.075      4.099
REMARK  Name = 
REMARK  7 active torsions:
REMARK  status: ('A' for Active; 'I' for Inactive)
REMARK    1  A    between atoms: C_1  and  C_2
REMARK    2  A    between atoms: C_2  and  C_3
REMARK    3  A    between atoms: C_3  and  N_4
REMARK    4  A    between atoms: C_5  and  C_6
REMARK    5  A    between atoms: C_6  and  C_7
REMARK    6  A    between atoms: C_6  and  N_9
REMARK    7  A    between atoms: C_7  and  C_8
REMARK                            x       y       z     vdW  Elec       q    Type
REMARK                         _______ _______ _______ _____ _____    ______ ____
ROOT
ATOM      1  N   UNL     1       2.674   7.225  18.345  0.00  0.00    +0.000 N 
ATOM      2  C   UNL     1       2.480   6.620  19.587  0.00  0.00    +0.000 A 
ATOM      3  N   UNL     1       1.835   7.182  20.565  0.00  0.00    +0.000 NA
ATOM      4  C   UNL     1       1.187   8.380  20.398  0.00  0.00    +0.000 A 
ATOM      5  C   UNL     1       0.327   8.801  21.426  0.00  0.00    +0.000 A 
ATOM      6  C   UNL     1      -0.374  10.002  21.307  0.00  0.00    +0.000 A 
ATOM      7  C   UNL     1      -0.192  10.774  20.157  0.00  0.00    +0.000 A 
ATOM      8  C   UNL     1       0.670  10.341  19.136  0.00  0.00    +0.000 A 
ATOM      9  C   UNL     1       1.347   9.116  19.245  0.00  0.00    +0.000 A 
ATOM     10  C   UNL     1       2.251   8.561  18.181  0.00  0.00    +0.000 A 
ATOM     11  O   UNL     1       2.598   9.278  17.250  0.00  0.00    +0.000 OA
ENDROOT
BRANCH   1  12
ATOM     12  C   UNL     1       3.681   6.649  17.403  0.00  0.00    +0.000 C 
BRANCH  12  14
ATOM     13  C   UNL     1       6.203   6.023  17.909  0.00  0.00    +0.000 C 
ATOM     14  C   UNL     1       5.181   7.015  17.367  0.00  0.00    +0.000 C 
ENDBRANCH  12  14
ENDBRANCH   1  12
BRANCH   2  15
ATOM     15  C   UNL     1       2.946   5.163  19.904  0.00  0.00    +0.000 C 
BRANCH  15  16
ATOM     16  N   UNL     1       2.716   4.361  18.691  0.00  0.00    +0.000 NA
ATOM     17  C   UNL     1       3.746   3.368  18.365  0.00  0.00    +0.000 C 
ATOM     18  C   UNL     1       3.388   1.873  18.509  0.00  0.00    +0.000 C 
ATOM     19  N   UNL     1       2.028   1.485  18.156  0.00  0.00    +0.000 NA
ATOM     20  C   UNL     1       1.024   2.462  18.574  0.00  0.00    +0.000 C 
ATOM     21  C   UNL     1       1.363   3.946  18.339  0.00  0.00    +0.000 C 
ATOM     22  H   UNL     1       1.822   0.588  18.594  0.00  0.00    +0.000 HD
ENDBRANCH  15  16
BRANCH  15  23
ATOM     23  C   UNL     1       2.240   4.716  21.215  0.00  0.00    +0.000 C 
ATOM     24  C   UNL     1       2.468   3.278  21.682  0.00  0.00    +0.000 C 
ENDBRANCH  15  23
ENDBRANCH   2  15
TORSDOF 5
ENDMDL
MODEL 4
REMARK VINA RESULT:      -6.4      3.207      7.027
REMARK  Name = 
REMARK  7 active torsions:
REMARK  status: ('A' for Active; 'I' for Inactive)
REMARK    1  A    between atoms: C_1  and  C_2
REMARK    2  A    between atoms: C_2  and  C_3
REMARK    3  A    between atoms: C_3  and  N_4
REMARK    4  A    between atoms: C_5  and  C_6
REMARK    5  A    between atoms: C_6  and  C_7
REMARK    6  A    between atoms: C_6  and  N_9
REMARK    7  A    between atoms: C_7  and  C_8
REMARK                            x       y       z     vdW  Elec       q    Type
REMARK                         _______ _______ _______ _____ _____    ______ ____
ROOT
ATOM      1  N   UNL     1       6.706   5.265  16.193  0.00  0.00    +0.000 N 
ATOM      2  C   UNL     1       5.375   4.856  16.260  0.00  0.00    +0.000 A 
ATOM      3  N   UNL     1       4.731   4.348  15.251  0.00  0.00    +0.000 NA
ATOM      4  C   UNL     1       5.365   4.066  14.068  0.00  0.00    +0.000 A 
ATOM      5  C   UNL     1       4.658   3.311  13.117  0.00  0.00    +0.000 A 
ATOM      6  C   UNL     1       5.256   2.976  11.900  0.00  0.00    +0.000 A 
ATOM      7  C   UNL     1       6.557   3.417  11.649  0.00  0.00    +0.000 A 
ATOM      8  C   UNL     1       7.254   4.171  12.608  0.00  0.00    +0.000 A 
ATOM      9  C   UNL     1       6.661   4.476  13.844  0.00  0.00    +0.000 A 
ATOM     10  C   UNL     1       7.351   5.238  14.938  0.00  0.00    +0.000 A 
ATOM     11  O   UNL     1       8.408   5.812  14.700  0.00  0.00    +0.000 OA
ENDROOT
BRANCH   1  12
ATOM     12  C   UNL     1       7.262   6.115  17.290  0.00  0.00    +0.000 C 
BRANCH  12  14
ATOM     13  C   UNL     1       8.215   8.472  18.031  0.00  0.00    +0.000 C 
ATOM     14  C   UNL     1       7.098   7.647  17.404  0.00  0.00    +0.000 C 
ENDBRANCH  12  14
ENDBRANCH   1  12
BRANCH   2  15
ATOM     15  C   UNL     1       4.542   4.884  17.580  0.00  0.00    +0.000 C 
BRANCH  15  16
ATOM     16  N   UNL     1       3.952   3.546  17.749  0.00  0.00    +0.000 NA
ATOM     17  C   UNL     1       4.319   2.826  18.975  0.00  0.00    +0.000 C 
ATOM     18  C   UNL     1       3.231   2.615  20.049  0.00  0.00    +0.000 C 
ATOM     19  N   UNL     1       1.876   2.365  19.573  0.00  0.00    +0.000 NA
ATOM     20  C   UNL     1       1.521   3.165  18.402  0.00  0.00    +0.000 C 
ATOM     21  C   UNL     1       2.589   3.289  17.300  0.00  0.00    +0.000 C 
ATOM     22  H   UNL     1       1.224   2.571  20.327  0.00  0.00    +0.000 HD
ENDBRANCH  15  16
BRANCH  15  23
ATOM     23  C   UNL     1       3.575   6.099  17.504  0.00  0.00    +0.000 C 
ATOM     24  C   UNL     1       3.001   6.627  18.818  0.00  0.00    +0.000 C 
ENDBRANCH  15  23
ENDBRANCH   2  15
TORSDOF 5
ENDMDL
MODEL 5
REMARK VINA RESULT:      -6.2      1.584      4.869
REMARK  Name = 
REMARK  7 active torsions:
REMARK  status: ('A' for Active; 'I' for Inactive)
REMARK    1  A    between atoms: C_1  and  C_2
REMARK    2  A    between atoms: C_2  and  C_3
REMARK    3  A    between atoms: C_3  and  N_4
REMARK    4  A    between atoms: C_5  and  C_6
REMARK    5  A    between atoms: C_6  and  C_7
REMARK    6  A    between atoms: C_6  and  N_9
REMARK    7  A    between atoms: C_7  and  C_8
REMARK                            x       y       z     vdW  Elec       q    Type
REMARK                         _______ _______ _______ _____ _____    ______ ____
ROOT
ATOM      1  N   UNL     1       3.473   6.426  18.664  0.00  0.00    +0.000 N 
ATOM      2  C   UNL     1       4.598   5.624  18.479  0.00  0.00    +0.000 A 
ATOM      3  N   UNL     1       4.794   4.507  19.113  0.00  0.00    +0.000 NA
ATOM      4  C   UNL     1       3.833   3.974  19.935  0.00  0.00    +0.000 A 
ATOM      5  C   UNL     1       4.029   2.662  20.396  0.00  0.00    +0.000 A 
ATOM      6  C   UNL     1       3.077   2.057  21.220  0.00  0.00    +0.000 A 
ATOM      7  C   UNL     1       1.944   2.788  21.582  0.00  0.00    +0.000 A 
ATOM      8  C   UNL     1       1.759   4.099  21.113  0.00  0.00    +0.000 A 
ATOM      9  C   UNL     1       2.702   4.690  20.257  0.00  0.00    +0.000 A 
ATOM     10  C   UNL     1       2.558   6.068  19.678  0.00  0.00    +0.000 A 
ATOM     11  O   UNL     1       1.692   6.819  20.113  0.00  0.00    +0.000 OA
ENDROOT
BRANCH   1  12
ATOM     12  C   UNL     1       3.480   7.825  18.138  0.00  0.00    +0.000 C 
BRANCH  12  14
ATOM     13  C   UNL     1       1.618   9.704  18.237  0.00  0.00    +0.000 C 
ATOM     14  C   UNL     1       2.274   8.545  17.496  0.00  0.00    +0.000 C 
ENDBRANCH  12  14
ENDBRANCH   1  12
BRANCH   2  15
ATOM     15  C   UNL     1       5.703   5.942  17.421  0.00  0.00    +0.000 C 
BRANCH  15  16
ATOM     16  N   UNL     1       5.922   4.713  16.641  0.00  0.00    +0.000 NA
ATOM     17  C   UNL     1       4.813   4.285  15.780  0.00  0.00    +0.000 C 
ATOM     18  C   UNL     1       4.997   4.388  14.251  0.00  0.00    +0.000 C 
ATOM     19  N   UNL     1       6.326   4.101  13.727  0.00  0.00    +0.000 NA
ATOM     20  C   UNL     1       7.402   4.619  14.572  0.00  0.00    +0.000 C 
ATOM     21  C   UNL     1       7.242   4.426  16.091  0.00  0.00    +0.000 C 
ATOM     22  H   UNL     1       6.405   4.513  12.798  0.00  0.00    +0.000 HD
ENDBRANCH  15  16
BRANCH  15  23
ATOM     23  C   UNL     1       6.919   6.550  18.175  0.00  0.00    +0.000 C 
ATOM     24  C   UNL     1       7.601   7.765  17.548  0.00  0.00    +0.000 C 
ENDBRANCH  15  23
ENDBRANCH   2  15
TORSDOF 5
ENDMDL
MODEL 6
REMARK VINA RESULT:      -6.2      1.419      4.732
REMARK  Name = 
REMARK  7 active torsions:
REMARK  status: ('A' for Active; 'I' for Inactive)
REMARK    1  A    between atoms: C_1  and  C_2
REMARK    2  A    between atoms: C_2  and  C_3
REMARK    3  A    between atoms: C_3  and  N_4
REMARK    4  A    between atoms: C_5  and  C_6
REMARK    5  A    between atoms: C_6  and  C_7
REMARK    6  A    between atoms: C_6  and  N_9
REMARK    7  A    between atoms: C_7  and  C_8
REMARK                            x       y       z     vdW  Elec       q    Type
REMARK                         _______ _______ _______ _____ _____    ______ ____
ROOT
ATOM      1  N   UNL     1       3.041   6.475  18.955  0.00  0.00    +0.000 N 
ATOM      2  C   UNL     1       4.203   5.747  18.697  0.00  0.00    +0.000 A 
ATOM      3  N   UNL     1       4.472   4.607  19.259  0.00  0.00    +0.000 NA
ATOM      4  C   UNL     1       3.561   3.975  20.067  0.00  0.00    +0.000 A 
ATOM      5  C   UNL     1       3.836   2.650  20.444  0.00  0.00    +0.000 A 
ATOM      6  C   UNL     1       2.938   1.948  21.250  0.00  0.00    +0.000 A 
ATOM      7  C   UNL     1       1.777   2.594  21.680  0.00  0.00    +0.000 A 
ATOM      8  C   UNL     1       1.512   3.919  21.295  0.00  0.00    +0.000 A 
ATOM      9  C   UNL     1       2.401   4.609  20.456  0.00  0.00    +0.000 A 
ATOM     10  C   UNL     1       2.172   6.009  19.964  0.00  0.00    +0.000 A 
ATOM     11  O   UNL     1       1.279   6.685  20.462  0.00  0.00    +0.000 OA
ENDROOT
BRANCH   1  12
ATOM     12  C   UNL     1       2.963   7.901  18.513  0.00  0.00    +0.000 C 
BRANCH  12  14
ATOM     13  C   UNL     1       1.060   9.718  18.221  0.00  0.00    +0.000 C 
ATOM     14  C   UNL     1       1.820   8.515  17.675  0.00  0.00    +0.000 C 
ENDBRANCH  12  14
ENDBRANCH   1  12
BRANCH   2  15
ATOM     15  C   UNL     1       5.263   6.185  17.638  0.00  0.00    +0.000 C 
BRANCH  15  16
ATOM     16  N   UNL     1       4.906   5.528  16.370  0.00  0.00    +0.000 NA
ATOM     17  C   UNL     1       5.608   6.004  15.172  0.00  0.00    +0.000 C 
ATOM     18  C   UNL     1       6.628   5.059  14.502  0.00  0.00    +0.000 C 
ATOM     19  N   UNL     1       6.305   3.638  14.500  0.00  0.00    +0.000 NA
ATOM     20  C   UNL     1       5.684   3.186  15.744  0.00  0.00    +0.000 C 
ATOM     21  C   UNL     1       4.604   4.102  16.349  0.00  0.00    +0.000 C 
ATOM     22  H   UNL     1       7.163   3.110  14.345  0.00  0.00    +0.000 HD
ENDBRANCH  15  16
BRANCH  15  23
ATOM     23  C   UNL     1       6.671   5.900  18.232  0.00  0.00    +0.000 C 
ATOM     24  C   UNL     1       7.738   6.981  18.063  0.00  0.00    +0.000 C 
ENDBRANCH  15  23
ENDBRANCH   2  15
TORSDOF 5
ENDMDL
MODEL 7
REMARK VINA RESULT:      -6.1      3.075      6.687
REMARK  Name = 
REMARK  7 active torsions:
REMARK  status: ('A' for Active; 'I' for Inactive)
REMARK    1  A    between atoms: C_1  and  C_2
REMARK    2  A    between atoms: C_2  and  C_3
REMARK    3  A    between atoms: C_3  and  N_4
REMARK    4  A    between atoms: C_5  and  C_6
REMARK    5  A    between atoms: C_6  and  C_7
REMARK    6  A    between atoms: C_6  and  N_9
REMARK    7  A    between atoms: C_7  and  C_8
REMARK                            x       y       z     vdW  Elec       q    Type
REMARK                         _______ _______ _______ _____ _____    ______ ____
ROOT
ATOM      1  N   UNL     1       6.224   5.516  16.704  0.00  0.00    +0.000 N 
ATOM      2  C   UNL     1       4.961   4.952  16.528  0.00  0.00    +0.000 A 
ATOM      3  N   UNL     1       4.557   4.435  15.406  0.00  0.00    +0.000 NA
ATOM      4  C   UNL     1       5.405   4.301  14.336  0.00  0.00    +0.000 A 
ATOM      5  C   UNL     1       4.961   3.528  13.249  0.00  0.00    +0.000 A 
ATOM      6  C   UNL     1       5.785   3.339  12.138  0.00  0.00    +0.000 A 
ATOM      7  C   UNL     1       7.044   3.943  12.127  0.00  0.00    +0.000 A 
ATOM      8  C   UNL     1       7.477   4.712  13.220  0.00  0.00    +0.000 A 
ATOM      9  C   UNL     1       6.659   4.871  14.350  0.00  0.00    +0.000 A 
ATOM     10  C   UNL     1       7.063   5.639  15.575  0.00  0.00    +0.000 A 
ATOM     11  O   UNL     1       8.064   6.345  15.542  0.00  0.00    +0.000 OA
ENDROOT
BRANCH   1  12
ATOM     12  C   UNL     1       6.485   6.356  17.912  0.00  0.00    +0.000 C 
BRANCH  12  14
ATOM     13  C   UNL     1       8.038   5.505  19.881  0.00  0.00    +0.000 C 
ATOM     14  C   UNL     1       7.822   6.422  18.683  0.00  0.00    +0.000 C 
ENDBRANCH  12  14
ENDBRANCH   1  12
BRANCH   2  15
ATOM     15  C   UNL     1       3.928   4.803  17.690  0.00  0.00    +0.000 C 
BRANCH  15  16
ATOM     16  N   UNL     1       3.133   3.595  17.411  0.00  0.00    +0.000 NA
ATOM     17  C   UNL     1       3.725   2.319  17.829  0.00  0.00    +0.000 C 
ATOM     18  C   UNL     1       3.070   1.563  19.005  0.00  0.00    +0.000 C 
ATOM     19  N   UNL     1       1.616   1.626  19.099  0.00  0.00    +0.000 NA
ATOM     20  C   UNL     1       1.073   2.939  18.755  0.00  0.00    +0.000 C 
ATOM     21  C   UNL     1       1.680   3.638  17.525  0.00  0.00    +0.000 C 
ATOM     22  H   UNL     1       1.342   1.391  20.051  0.00  0.00    +0.000 HD
ENDBRANCH  15  16
BRANCH  15  23
ATOM     23  C   UNL     1       3.171   6.154  17.825  0.00  0.00    +0.000 C 
ATOM     24  C   UNL     1       2.820   6.627  19.236  0.00  0.00    +0.000 C 
ENDBRANCH  15  23
ENDBRANCH   2  15
TORSDOF 5
ENDMDL
MODEL 8
REMARK VINA RESULT:      -6.1      2.187      5.762
REMARK  Name = 
REMARK  7 active torsions:
REMARK  status: ('A' for Active; 'I' for Inactive)
REMARK    1  A    between atoms: C_1  and  C_2
REMARK    2  A    between atoms: C_2  and  C_3
REMARK    3  A    between atoms: C_3  and  N_4
REMARK    4  A    between atoms: C_5  and  C_6
REMARK    5  A    between atoms: C_6  and  C_7
REMARK    6  A    between atoms: C_6  and  N_9
REMARK    7  A    between atoms: C_7  and  C_8
REMARK                            x       y       z     vdW  Elec       q    Type
REMARK                         _______ _______ _______ _____ _____    ______ ____
ROOT
ATOM      1  N   UNL     1       2.851   4.703  17.911  0.00  0.00    +0.000 N 
ATOM      2  C   UNL     1       3.104   5.424  19.078  0.00  0.00    +0.000 A 
ATOM      3  N   UNL     1       4.300   5.644  19.538  0.00  0.00    +0.000 NA
ATOM      4  C   UNL     1       5.416   5.278  18.830  0.00  0.00    +0.000 A 
ATOM      5  C   UNL     1       6.658   5.756  19.283  0.00  0.00    +0.000 A 
ATOM      6  C   UNL     1       7.828   5.433  18.594  0.00  0.00    +0.000 A 
ATOM      7  C   UNL     1       7.737   4.620  17.462  0.00  0.00    +0.000 A 
ATOM      8  C   UNL     1       6.491   4.150  17.018  0.00  0.00    +0.000 A 
ATOM      9  C   UNL     1       5.312   4.505  17.694  0.00  0.00    +0.000 A 
ATOM     10  C   UNL     1       3.938   4.081  17.261  0.00  0.00    +0.000 A 
ATOM     11  O   UNL     1       3.816   3.217  16.401  0.00  0.00    +0.000 OA
ENDROOT
BRANCH   1  12
ATOM     12  C   UNL     1       1.459   4.236  17.632  0.00  0.00    +0.000 C 
BRANCH  12  14
ATOM     13  C   UNL     1       1.529   1.821  18.715  0.00  0.00    +0.000 C 
ATOM     14  C   UNL     1       0.743   3.077  18.361  0.00  0.00    +0.000 C 
ENDBRANCH  12  14
ENDBRANCH   1  12
BRANCH   2  15
ATOM     15  C   UNL     1       1.979   6.117  19.910  0.00  0.00    +0.000 C 
BRANCH  15  16
ATOM     16  N   UNL     1       2.225   7.567  19.846  0.00  0.00    +0.000 NA
ATOM     17  C   UNL     1       2.342   8.147  18.503  0.00  0.00    +0.000 C 
ATOM     18  C   UNL     1       1.215   9.079  18.011  0.00  0.00    +0.000 C 
ATOM     19  N   UNL     1       0.603   9.953  19.004  0.00  0.00    +0.000 NA
ATOM     20  C   UNL     1       0.426   9.309  20.305  0.00  0.00    +0.000 C 
ATOM     21  C   UNL     1       1.599   8.455  20.819  0.00  0.00    +0.000 C 
ATOM     22  H   UNL     1      -0.306  10.254  18.656  0.00  0.00    +0.000 HD
ENDBRANCH  15  16
BRANCH  15  23
ATOM     23  C   UNL     1       1.946   5.447  21.312  0.00  0.00    +0.000 C 
ATOM     24  C   UNL     1       2.179   3.938  21.377  0.00  0.00    +0.000 C 
ENDBRANCH  15  23
ENDBRANCH   2  15
TORSDOF 5
ENDMDL
MODEL 9
REMARK VINA RESULT:      -5.9      3.016      5.344
REMARK  Name = 
REMARK  7 active torsions:
REMARK  status: ('A' for Active; 'I' for Inactive)
REMARK    1  A    between atoms: C_1  and  C_2
REMARK    2  A    between atoms: C_2  and  C_3
REMARK    3  A    between atoms: C_3  and  N_4
REMARK    4  A    between atoms: C_5  and  C_6
REMARK    5  A    between atoms: C_6  and  C_7
REMARK    6  A    between atoms: C_6  and  N_9
REMARK    7  A    between atoms: C_7  and  C_8
REMARK                            x       y       z     vdW  Elec       q    Type
REMARK                         _______ _______ _______ _____ _____    ______ ____
ROOT
ATOM      1  N   UNL     1       5.347   4.335  18.079  0.00  0.00    +0.000 N 
ATOM      2  C   UNL     1       4.512   4.440  16.967  0.00  0.00    +0.000 A 
ATOM      3  N   UNL     1       3.286   4.008  16.948  0.00  0.00    +0.000 NA
ATOM      4  C   UNL     1       2.684   3.519  18.080  0.00  0.00    +0.000 A 
ATOM      5  C   UNL     1       1.299   3.291  18.031  0.00  0.00    +0.000 A 
ATOM      6  C   UNL     1       0.625   2.811  19.156  0.00  0.00    +0.000 A 
ATOM      7  C   UNL     1       1.359   2.552  20.316  0.00  0.00    +0.000 A 
ATOM      8  C   UNL     1       2.744   2.785  20.353  0.00  0.00    +0.000 A 
ATOM      9  C   UNL     1       3.411   3.300  19.229  0.00  0.00    +0.000 A 
ATOM     10  C   UNL     1       4.878   3.618  19.200  0.00  0.00    +0.000 A 
ATOM     11  O   UNL     1       5.598   3.230  20.113  0.00  0.00    +0.000 OA
ENDROOT
BRANCH   1  12
ATOM     12  C   UNL     1       6.814   4.568  17.912  0.00  0.00    +0.000 C 
BRANCH  12  14
ATOM     13  C   UNL     1       7.880   6.968  18.247  0.00  0.00    +0.000 C 
ATOM     14  C   UNL     1       7.664   5.546  18.752  0.00  0.00    +0.000 C 
ENDBRANCH  12  14
ENDBRANCH   1  12
BRANCH   2  15
ATOM     15  C   UNL     1       4.935   5.169  15.652  0.00  0.00    +0.000 C 
BRANCH  15  16
ATOM     16  N   UNL     1       6.029   4.385  15.055  0.00  0.00    +0.000 NA
ATOM     17  C   UNL     1       5.631   3.319  14.129  0.00  0.00    +0.000 C 
ATOM     18  C   UNL     1       5.953   3.498  12.630  0.00  0.00    +0.000 C 
ATOM     19  N   UNL     1       7.210   4.159  12.301  0.00  0.00    +0.000 NA
ATOM     20  C   UNL     1       7.527   5.270  13.196  0.00  0.00    +0.000 C 
ATOM     21  C   UNL     1       7.283   5.039  14.699  0.00  0.00    +0.000 C 
ATOM     22  H   UNL     1       7.153   4.507  11.345  0.00  0.00    +0.000 HD
ENDBRANCH  15  16
BRANCH  15  23
ATOM     23  C   UNL     1       5.217   6.657  16.005  0.00  0.00    +0.000 C 
ATOM     24  C   UNL     1       4.319   7.315  17.052  0.00  0.00    +0.000 C 
ENDBRANCH  15  23
ENDBRANCH   2  15
TORSDOF 5
ENDMDL
