MODEL 1
REMARK VINA RESULT:      -7.5      0.000      0.000
REMARK  Name = 
REMARK  7 active torsions:
REMARK  status: ('A' for Active; 'I' for Inactive)
REMARK    1  A    between atoms: C_1  and  C_2
REMARK    2  A    between atoms: C_6  and  C_7
REMARK    3  A    between atoms: C_8  and  C_9
REMARK    4  A    between atoms: N_21  and  C_22
REMARK    5  A    between atoms: C_22  and  C_23
REMARK    6  A    between atoms: C_22  and  C_24
REMARK    7  A    between atoms: C_22  and  C_25
REMARK                            x       y       z     vdW  Elec       q    Type
REMARK                         _______ _______ _______ _____ _____    ______ ____
ROOT
ATOM      1  C   UNL     1       0.333   9.395  20.136  0.00  0.00    +0.000 A 
ATOM      2  C   UNL     1       0.179   9.996  21.444  0.00  0.00    +0.000 A 
ATOM      3  C   UNL     1      -0.733  11.044  21.298  0.00  0.00    +0.000 A 
ATOM      4  N   UNL     1      -1.080  11.137  19.972  0.00  0.00    +0.000 N 
ATOM      5  C   UNL     1      -0.430  10.164  19.271  0.00  0.00    +0.000 A 
ATOM      6 CL   UNL     1      -0.639  10.115  17.568  0.00  0.00    +0.000 Cl
ATOM      7  C   UNL     1      -2.063  12.094  19.472  0.00  0.00    +0.000 C 
ATOM      8  C   UNL     1      -2.444  13.146  20.519  0.00  0.00    +0.000 C 
ATOM      9  N   UNL     1      -2.554  12.547  21.849  0.00  0.00    +0.000 N 
ATOM     10  C   UNL     1      -3.606  12.556  22.738  0.00  0.00    +0.000 C 
ATOM     11  O   UNL     1      -3.502  12.008  23.833  0.00  0.00    +0.000 OA
ATOM     12  N   UNL     1      -4.760  13.176  22.356  0.00  0.00    +0.000 N 
ATOM     13  C   UNL     1      -1.333  11.931  22.332  0.00  0.00    +0.000 C 
ATOM     14  H   UNL     1      -4.680  13.922  21.684  0.00  0.00    +0.000 HD
ENDROOT
BRANCH   1  20
ATOM     15  C   UNL     1       2.250   4.867  20.998  0.00  0.00    +0.000 C 
ATOM     16  C   UNL     1       2.176   6.085  20.127  0.00  0.00    +0.000 A 
ATOM     17  C   UNL     1       3.062   6.267  19.064  0.00  0.00    +0.000 A 
ATOM     18  C   UNL     1       2.996   7.425  18.292  0.00  0.00    +0.000 A 
ATOM     19  C   UNL     1       2.064   8.422  18.597  0.00  0.00    +0.000 A 
ATOM     20  C   UNL     1       1.203   8.291  19.697  0.00  0.00    +0.000 A 
ATOM     21  C   UNL     1       1.247   7.094  20.425  0.00  0.00    +0.000 A 
ENDBRANCH   1  20
BRANCH   2  22
ATOM     22  C   UNL     1       0.783   9.575  22.711  0.00  0.00    +0.000 C 
ATOM     23  N   UNL     1      -0.087   9.235  23.719  0.00  0.00    +0.000 N 
ATOM     24  O   UNL     1       1.984   9.532  22.919  0.00  0.00    +0.000 OA
ATOM     25  H   UNL     1      -1.081   9.315  23.658  0.00  0.00    +0.000 HD
ATOM     26  H   UNL     1       0.321   8.921  24.586  0.00  0.00    +0.000 HD
ENDBRANCH   2  22
BRANCH  12  27
ATOM     27  C   UNL     1      -5.934  13.216  23.259  0.00  0.00    +0.000 C 
ATOM     28  C   UNL     1      -5.697  12.382  24.536  0.00  0.00    +0.000 C 
ATOM     29  C   UNL     1      -6.200  14.670  23.685  0.00  0.00    +0.000 C 
ATOM     30  C   UNL     1      -7.196  12.711  22.532  0.00  0.00    +0.000 C 
ENDBRANCH  12  27
TORSDOF 3
ENDMDL
MODEL 2
REMARK VINA RESULT:      -7.5      1.463      2.018
REMARK  Name = 
REMARK  7 active torsions:
REMARK  status: ('A' for Active; 'I' for Inactive)
REMARK    1  A    between atoms: C_1  and  C_2
REMARK    2  A    between atoms: C_6  and  C_7
REMARK    3  A    between atoms: C_8  and  C_9
REMARK    4  A    between atoms: N_21  and  C_22
REMARK    5  A    between atoms: C_22  and  C_23
REMARK    6  A    between atoms: C_22  and  C_24
REMARK    7  A    between atoms: C_22  and  C_25
REMARK                            x       y       z     vdW  Elec       q    Type
REMARK                         _______ _______ _______ _____ _____    ______ ____
ROOT
ATOM      1  C   UNL     1       0.958   8.921  20.172  0.00  0.00    +0.000 A 
ATOM      2  C   UNL     1       0.601   9.740  21.312  0.00  0.00    +0.000 A 
ATOM      3  C   UNL     1      -0.030  10.879  20.804  0.00  0.00    +0.000 A 
ATOM      4  N   UNL     1      -0.011  10.812  19.432  0.00  0.00    +0.000 N 
ATOM      5  C   UNL     1       0.596   9.651  19.050  0.00  0.00    +0.000 A 
ATOM      6 CL   UNL     1       0.813   9.365  17.372  0.00  0.00    +0.000 Cl
ATOM      7  C   UNL     1      -0.638  11.816  18.578  0.00  0.00    +0.000 C 
ATOM      8  C   UNL     1      -1.060  13.067  19.355  0.00  0.00    +0.000 C 
ATOM      9  N   UNL     1      -1.610  12.712  20.663  0.00  0.00    +0.000 N 
ATOM     10  C   UNL     1      -2.829  13.024  21.223  0.00  0.00    +0.000 C 
ATOM     11  O   UNL     1      -3.108  12.647  22.359  0.00  0.00    +0.000 OA
ATOM     12  N   UNL     1      -3.712  13.745  20.473  0.00  0.00    +0.000 N 
ATOM     13  C   UNL     1      -0.688  12.001  21.527  0.00  0.00    +0.000 C 
ATOM     14  H   UNL     1      -3.326  14.353  19.768  0.00  0.00    +0.000 HD
ENDROOT
BRANCH   1  20
ATOM     15  C   UNL     1       4.288   6.000  17.870  0.00  0.00    +0.000 C 
ATOM     16  C   UNL     1       3.291   6.188  18.974  0.00  0.00    +0.000 A 
ATOM     17  C   UNL     1       2.898   5.118  19.780  0.00  0.00    +0.000 A 
ATOM     18  C   UNL     1       1.942   5.310  20.776  0.00  0.00    +0.000 A 
ATOM     19  C   UNL     1       1.352   6.565  20.951  0.00  0.00    +0.000 A 
ATOM     20  C   UNL     1       1.684   7.642  20.115  0.00  0.00    +0.000 A 
ATOM     21  C   UNL     1       2.689   7.442  19.158  0.00  0.00    +0.000 A 
ENDBRANCH   1  20
BRANCH   2  22
ATOM     22  C   UNL     1       0.778   9.438  22.734  0.00  0.00    +0.000 C 
ATOM     23  N   UNL     1      -0.367   9.196  23.454  0.00  0.00    +0.000 N 
ATOM     24  O   UNL     1       1.857   9.412  23.302  0.00  0.00    +0.000 OA
ATOM     25  H   UNL     1      -1.292   9.272  23.087  0.00  0.00    +0.000 HD
ATOM     26  H   UNL     1      -0.252   8.964  24.429  0.00  0.00    +0.000 HD
ENDBRANCH   2  22
BRANCH  12  27
ATOM     27  C   UNL     1      -5.044  14.107  21.010  0.00  0.00    +0.000 C 
ATOM     28  C   UNL     1      -4.927  14.968  22.285  0.00  0.00    +0.000 C 
ATOM     29  C   UNL     1      -5.813  14.924  19.956  0.00  0.00    +0.000 C 
ATOM     30  C   UNL     1      -5.873  12.842  21.307  0.00  0.00    +0.000 C 
ENDBRANCH  12  27
TORSDOF 3
ENDMDL
MODEL 3
REMARK VINA RESULT:      -7.5      0.717      1.458
REMARK  Name = 
REMARK  7 active torsions:
REMARK  status: ('A' for Active; 'I' for Inactive)
REMARK    1  A    between atoms: C_1  and  C_2
REMARK    2  A    between atoms: C_6  and  C_7
REMARK    3  A    between atoms: C_8  and  C_9
REMARK    4  A    between atoms: N_21  and  C_22
REMARK    5  A    between atoms: C_22  and  C_23
REMARK    6  A    between atoms: C_22  and  C_24
REMARK    7  A    between atoms: C_22  and  C_25
REMARK                            x       y       z     vdW  Elec       q    Type
REMARK                         _______ _______ _______ _____ _____    ______ ____
ROOT
ATOM      1  C   UNL     1       0.509   9.244  20.262  0.00  0.00    +0.000 A 
ATOM      2  C   UNL     1       0.184   9.918  21.502  0.00  0.00    +0.000 A 
ATOM      3  C   UNL     1      -0.648  10.990  21.168  0.00  0.00    +0.000 A 
ATOM      4  N   UNL     1      -0.784  11.027  19.802  0.00  0.00    +0.000 N 
ATOM      5  C   UNL     1      -0.078   9.995  19.255  0.00  0.00    +0.000 A 
ATOM      6 CL   UNL     1      -0.026   9.865  17.544  0.00  0.00    +0.000 Cl
ATOM      7  C   UNL     1      -1.635  11.991  19.112  0.00  0.00    +0.000 C 
ATOM      8  C   UNL     1      -2.125  13.110  20.039  0.00  0.00    +0.000 C 
ATOM      9  N   UNL     1      -2.463  12.586  21.361  0.00  0.00    +0.000 N 
ATOM     10  C   UNL     1      -3.637  12.679  22.075  0.00  0.00    +0.000 C 
ATOM     11  O   UNL     1      -3.727  12.185  23.197  0.00  0.00    +0.000 OA
ATOM     12  N   UNL     1      -4.691  13.320  21.491  0.00  0.00    +0.000 N 
ATOM     13  C   UNL     1      -1.359  11.951  22.055  0.00  0.00    +0.000 C 
ATOM     14  H   UNL     1      -4.476  14.027  20.806  0.00  0.00    +0.000 HD
ENDROOT
BRANCH   1  20
ATOM     15  C   UNL     1       3.871   6.984  17.345  0.00  0.00    +0.000 C 
ATOM     16  C   UNL     1       3.011   6.956  18.573  0.00  0.00    +0.000 A 
ATOM     17  C   UNL     1       2.874   5.791  19.330  0.00  0.00    +0.000 A 
ATOM     18  C   UNL     1       2.039   5.780  20.446  0.00  0.00    +0.000 A 
ATOM     19  C   UNL     1       1.313   6.924  20.793  0.00  0.00    +0.000 A 
ATOM     20  C   UNL     1       1.386   8.088  20.014  0.00  0.00    +0.000 A 
ATOM     21  C   UNL     1       2.275   8.096  18.929  0.00  0.00    +0.000 A 
ENDBRANCH   1  20
BRANCH   2  22
ATOM     22  C   UNL     1       0.568   9.541  22.864  0.00  0.00    +0.000 C 
ATOM     23  N   UNL     1      -0.459   9.229  23.723  0.00  0.00    +0.000 N 
ATOM     24  O   UNL     1       1.717   9.513  23.271  0.00  0.00    +0.000 OA
ATOM     25  H   UNL     1      -1.428   9.300  23.495  0.00  0.00    +0.000 HD
ATOM     26  H   UNL     1      -0.201   8.945  24.656  0.00  0.00    +0.000 HD
ENDBRANCH   2  22
BRANCH  12  27
ATOM     27  C   UNL     1      -5.987  13.450  22.199  0.00  0.00    +0.000 C 
ATOM     28  C   UNL     1      -5.788  13.630  23.718  0.00  0.00    +0.000 C 
ATOM     29  C   UNL     1      -6.734  14.687  21.669  0.00  0.00    +0.000 C 
ATOM     30  C   UNL     1      -6.878  12.222  21.929  0.00  0.00    +0.000 C 
ENDBRANCH  12  27
TORSDOF 3
ENDMDL
MODEL 4
REMARK VINA RESULT:      -7.2      2.882      8.366
REMARK  Name = 
REMARK  7 active torsions:
REMARK  status: ('A' for Active; 'I' for Inactive)
REMARK    1  A    between atoms: C_1  and  C_2
REMARK    2  A    between atoms: C_6  and  C_7
REMARK    3  A    between atoms: C_8  and  C_9
REMARK    4  A    between atoms: N_21  and  C_22
REMARK    5  A    between atoms: C_22  and  C_23
REMARK    6  A    between atoms: C_22  and  C_24
REMARK    7  A    between atoms: C_22  and  C_25
REMARK                            x       y       z     vdW  Elec       q    Type
REMARK                         _______ _______ _______ _____ _____    ______ ____
ROOT
ATOM      1  C   UNL     1      -1.842  12.374  20.767  0.00  0.00    +0.000 A 
ATOM      2  C   UNL     1      -0.740  12.111  19.865  0.00  0.00    +0.000 A 
ATOM      3  C   UNL     1       0.040  11.118  20.464  0.00  0.00    +0.000 A 
ATOM      4  N   UNL     1      -0.500  10.825  21.693  0.00  0.00    +0.000 N 
ATOM      5  C   UNL     1      -1.614  11.588  21.886  0.00  0.00    +0.000 A 
ATOM      6 CL   UNL     1      -2.433  11.461  23.389  0.00  0.00    +0.000 Cl
ATOM      7  C   UNL     1       0.035   9.787  22.569  0.00  0.00    +0.000 C 
ATOM      8  C   UNL     1       1.399   9.269  22.102  0.00  0.00    +0.000 C 
ATOM      9  N   UNL     1       1.445   9.151  20.645  0.00  0.00    +0.000 N 
ATOM     10  C   UNL     1       1.744   8.063  19.855  0.00  0.00    +0.000 C 
ATOM     11  O   UNL     1       1.751   8.164  18.630  0.00  0.00    +0.000 OA
ATOM     12  N   UNL     1       2.014   6.878  20.476  0.00  0.00    +0.000 N 
ATOM     13  C   UNL     1       1.229  10.398  19.936  0.00  0.00    +0.000 C 
ATOM     14  H   UNL     1       2.389   6.924  21.409  0.00  0.00    +0.000 HD
ENDROOT
BRANCH   1  20
ATOM     15  C   UNL     1      -3.507  17.008  21.588  0.00  0.00    +0.000 C 
ATOM     16  C   UNL     1      -3.772  15.617  21.096  0.00  0.00    +0.000 A 
ATOM     17  C   UNL     1      -5.064  15.203  20.766  0.00  0.00    +0.000 A 
ATOM     18  C   UNL     1      -5.290  13.894  20.346  0.00  0.00    +0.000 A 
ATOM     19  C   UNL     1      -4.231  12.982  20.282  0.00  0.00    +0.000 A 
ATOM     20  C   UNL     1      -2.934  13.356  20.667  0.00  0.00    +0.000 A 
ATOM     21  C   UNL     1      -2.718  14.693  21.031  0.00  0.00    +0.000 A 
ENDBRANCH   1  20
BRANCH   2  22
ATOM     22  C   UNL     1      -0.496  12.691  18.542  0.00  0.00    +0.000 C 
ATOM     23  N   UNL     1      -1.388  12.352  17.552  0.00  0.00    +0.000 N 
ATOM     24  O   UNL     1       0.445  13.420  18.274  0.00  0.00    +0.000 OA
ATOM     25  H   UNL     1      -2.138  11.703  17.666  0.00  0.00    +0.000 HD
ATOM     26  H   UNL     1      -1.240  12.766  16.645  0.00  0.00    +0.000 HD
ENDBRANCH   2  22
BRANCH  12  27
ATOM     27  C   UNL     1       2.335   5.665  19.687  0.00  0.00    +0.000 C 
ATOM     28  C   UNL     1       1.918   5.822  18.210  0.00  0.00    +0.000 C 
ATOM     29  C   UNL     1       3.854   5.419  19.727  0.00  0.00    +0.000 C 
ATOM     30  C   UNL     1       1.651   4.425  20.295  0.00  0.00    +0.000 C 
ENDBRANCH  12  27
TORSDOF 3
ENDMDL
MODEL 5
REMARK VINA RESULT:      -7.1      2.890      8.277
REMARK  Name = 
REMARK  7 active torsions:
REMARK  status: ('A' for Active; 'I' for Inactive)
REMARK    1  A    between atoms: C_1  and  C_2
REMARK    2  A    between atoms: C_6  and  C_7
REMARK    3  A    between atoms: C_8  and  C_9
REMARK    4  A    between atoms: N_21  and  C_22
REMARK    5  A    between atoms: C_22  and  C_23
REMARK    6  A    between atoms: C_22  and  C_24
REMARK    7  A    between atoms: C_22  and  C_25
REMARK                            x       y       z     vdW  Elec       q    Type
REMARK                         _______ _______ _______ _____ _____    ______ ____
ROOT
ATOM      1  C   UNL     1      -1.945  12.333  20.853  0.00  0.00    +0.000 A 
ATOM      2  C   UNL     1      -0.857  12.097  19.927  0.00  0.00    +0.000 A 
ATOM      3  C   UNL     1      -0.036  11.129  20.513  0.00  0.00    +0.000 A 
ATOM      4  N   UNL     1      -0.540  10.825  21.754  0.00  0.00    +0.000 N 
ATOM      5  C   UNL     1      -1.671  11.557  21.970  0.00  0.00    +0.000 A 
ATOM      6 CL   UNL     1      -2.453  11.413  23.490  0.00  0.00    +0.000 Cl
ATOM      7  C   UNL     1       0.043   9.806  22.621  0.00  0.00    +0.000 C 
ATOM      8  C   UNL     1       1.411   9.325  22.125  0.00  0.00    +0.000 C 
ATOM      9  N   UNL     1       1.428   9.203  20.669  0.00  0.00    +0.000 N 
ATOM     10  C   UNL     1       1.740   8.121  19.875  0.00  0.00    +0.000 C 
ATOM     11  O   UNL     1       1.717   8.217  18.651  0.00  0.00    +0.000 OA
ATOM     12  N   UNL     1       2.057   6.946  20.494  0.00  0.00    +0.000 N 
ATOM     13  C   UNL     1       1.161  10.440  19.960  0.00  0.00    +0.000 C 
ATOM     14  H   UNL     1       2.451   7.006  21.419  0.00  0.00    +0.000 HD
ENDROOT
BRANCH   1  20
ATOM     15  C   UNL     1      -6.654  13.275  19.488  0.00  0.00    +0.000 C 
ATOM     16  C   UNL     1      -5.365  13.765  20.077  0.00  0.00    +0.000 A 
ATOM     17  C   UNL     1      -5.159  15.123  20.332  0.00  0.00    +0.000 A 
ATOM     18  C   UNL     1      -3.939  15.558  20.845  0.00  0.00    +0.000 A 
ATOM     19  C   UNL     1      -2.907  14.643  21.078  0.00  0.00    +0.000 A 
ATOM     20  C   UNL     1      -3.067  13.283  20.774  0.00  0.00    +0.000 A 
ATOM     21  C   UNL     1      -4.321  12.857  20.313  0.00  0.00    +0.000 A 
ENDBRANCH   1  20
BRANCH   2  22
ATOM     22  C   UNL     1      -0.658  12.678  18.598  0.00  0.00    +0.000 C 
ATOM     23  N   UNL     1      -1.564  12.313  17.630  0.00  0.00    +0.000 N 
ATOM     24  O   UNL     1       0.257  13.430  18.306  0.00  0.00    +0.000 OA
ATOM     25  H   UNL     1      -2.294  11.646  17.763  0.00  0.00    +0.000 HD
ATOM     26  H   UNL     1      -1.448  12.728  16.719  0.00  0.00    +0.000 HD
ENDBRANCH   2  22
BRANCH  12  27
ATOM     27  C   UNL     1       2.395   5.740  19.702  0.00  0.00    +0.000 C 
ATOM     28  C   UNL     1       1.777   5.797  18.289  0.00  0.00    +0.000 C 
ATOM     29  C   UNL     1       3.923   5.644  19.547  0.00  0.00    +0.000 C 
ATOM     30  C   UNL     1       1.924   4.464  20.429  0.00  0.00    +0.000 C 
ENDBRANCH  12  27
TORSDOF 3
ENDMDL
MODEL 6
REMARK VINA RESULT:      -7.1      2.874      8.505
REMARK  Name = 
REMARK  7 active torsions:
REMARK  status: ('A' for Active; 'I' for Inactive)
REMARK    1  A    between atoms: C_1  and  C_2
REMARK    2  A    between atoms: C_6  and  C_7
REMARK    3  A    between atoms: C_8  and  C_9
REMARK    4  A    between atoms: N_21  and  C_22
REMARK    5  A    between atoms: C_22  and  C_23
REMARK    6  A    between atoms: C_22  and  C_24
REMARK    7  A    between atoms: C_22  and  C_25
REMARK                            x       y       z     vdW  Elec       q    Type
REMARK                         _______ _______ _______ _____ _____    ______ ____
ROOT
ATOM      1  C   UNL     1       0.861  11.295  20.809  0.00  0.00    +0.000 A 
ATOM      2  C   UNL     1       0.776   9.915  21.240  0.00  0.00    +0.000 A 
ATOM      3  C   UNL     1       1.167   9.131  20.151  0.00  0.00    +0.000 A 
ATOM      4  N   UNL     1       1.417   9.962  19.085  0.00  0.00    +0.000 N 
ATOM      5  C   UNL     1       1.217  11.255  19.469  0.00  0.00    +0.000 A 
ATOM      6 CL   UNL     1       1.393  12.488  18.289  0.00  0.00    +0.000 Cl
ATOM      7  C   UNL     1       1.903   9.478  17.797  0.00  0.00    +0.000 C 
ATOM      8  C   UNL     1       1.833   7.951  17.678  0.00  0.00    +0.000 C 
ATOM      9  N   UNL     1       2.208   7.309  18.937  0.00  0.00    +0.000 N 
ATOM     10  C   UNL     1       3.179   6.366  19.193  0.00  0.00    +0.000 C 
ATOM     11  O   UNL     1       3.335   5.924  20.329  0.00  0.00    +0.000 OA
ATOM     12  N   UNL     1       3.963   5.957  18.153  0.00  0.00    +0.000 N 
ATOM     13  C   UNL     1       1.364   7.659  20.063  0.00  0.00    +0.000 C 
ATOM     14  H   UNL     1       3.566   6.014  17.229  0.00  0.00    +0.000 HD
ENDROOT
BRANCH   1  20
ATOM     15  C   UNL     1      -2.374  13.840  23.634  0.00  0.00    +0.000 C 
ATOM     16  C   UNL     1      -1.076  13.803  22.885  0.00  0.00    +0.000 A 
ATOM     17  C   UNL     1      -0.326  14.963  22.685  0.00  0.00    +0.000 A 
ATOM     18  C   UNL     1       0.859  14.909  21.954  0.00  0.00    +0.000 A 
ATOM     19  C   UNL     1       1.286  13.702  21.393  0.00  0.00    +0.000 A 
ATOM     20  C   UNL     1       0.520  12.534  21.528  0.00  0.00    +0.000 A 
ATOM     21  C   UNL     1      -0.639  12.597  22.314  0.00  0.00    +0.000 A 
ENDBRANCH   1  20
BRANCH   2  22
ATOM     22  C   UNL     1       0.428   9.401  22.567  0.00  0.00    +0.000 C 
ATOM     23  N   UNL     1      -0.774   8.742  22.670  0.00  0.00    +0.000 N 
ATOM     24  O   UNL     1       1.119   9.543  23.561  0.00  0.00    +0.000 OA
ATOM     25  H   UNL     1      -1.433   8.649  21.926  0.00  0.00    +0.000 HD
ATOM     26  H   UNL     1      -1.010   8.365  23.575  0.00  0.00    +0.000 HD
ENDBRANCH   2  22
BRANCH  12  27
ATOM     27  C   UNL     1       5.032   4.952  18.359  0.00  0.00    +0.000 C 
ATOM     28  C   UNL     1       4.488   3.675  19.033  0.00  0.00    +0.000 C 
ATOM     29  C   UNL     1       5.625   4.554  16.996  0.00  0.00    +0.000 C 
ATOM     30  C   UNL     1       6.177   5.543  19.205  0.00  0.00    +0.000 C 
ENDBRANCH  12  27
TORSDOF 3
ENDMDL
MODEL 7
REMARK VINA RESULT:      -7.1      0.628      1.047
REMARK  Name = 
REMARK  7 active torsions:
REMARK  status: ('A' for Active; 'I' for Inactive)
REMARK    1  A    between atoms: C_1  and  C_2
REMARK    2  A    between atoms: C_6  and  C_7
REMARK    3  A    between atoms: C_8  and  C_9
REMARK    4  A    between atoms: N_21  and  C_22
REMARK    5  A    between atoms: C_22  and  C_23
REMARK    6  A    between atoms: C_22  and  C_24
REMARK    7  A    between atoms: C_22  and  C_25
REMARK                            x       y       z     vdW  Elec       q    Type
REMARK                         _______ _______ _______ _____ _____    ______ ____
ROOT
ATOM      1  C   UNL     1       0.392   9.275  20.159  0.00  0.00    +0.000 A 
ATOM      2  C   UNL     1       0.270   9.930  21.444  0.00  0.00    +0.000 A 
ATOM      3  C   UNL     1      -0.652  10.967  21.279  0.00  0.00    +0.000 A 
ATOM      4  N   UNL     1      -1.034  11.003  19.959  0.00  0.00    +0.000 N 
ATOM      5  C   UNL     1      -0.397  10.004  19.282  0.00  0.00    +0.000 A 
ATOM      6 CL   UNL     1      -0.650   9.883  17.590  0.00  0.00    +0.000 Cl
ATOM      7  C   UNL     1      -2.035  11.933  19.446  0.00  0.00    +0.000 C 
ATOM      8  C   UNL     1      -2.394  13.027  20.457  0.00  0.00    +0.000 C 
ATOM      9  N   UNL     1      -2.466  12.484  21.813  0.00  0.00    +0.000 N 
ATOM     10  C   UNL     1      -3.495  12.526  22.729  0.00  0.00    +0.000 C 
ATOM     11  O   UNL     1      -3.360  12.024  23.842  0.00  0.00    +0.000 OA
ATOM     12  N   UNL     1      -4.661  13.124  22.351  0.00  0.00    +0.000 N 
ATOM     13  C   UNL     1      -1.229  11.894  22.289  0.00  0.00    +0.000 C 
ATOM     14  H   UNL     1      -4.603  13.842  21.647  0.00  0.00    +0.000 HD
ENDROOT
BRANCH   1  20
ATOM     15  C   UNL     1       2.168   4.694  21.042  0.00  0.00    +0.000 C 
ATOM     16  C   UNL     1       2.160   5.925  20.186  0.00  0.00    +0.000 A 
ATOM     17  C   UNL     1       3.097   6.100  19.166  0.00  0.00    +0.000 A 
ATOM     18  C   UNL     1       3.092   7.269  18.409  0.00  0.00    +0.000 A 
ATOM     19  C   UNL     1       2.169   8.283  18.685  0.00  0.00    +0.000 A 
ATOM     20  C   UNL     1       1.257   8.158  19.744  0.00  0.00    +0.000 A 
ATOM     21  C   UNL     1       1.241   6.950  20.457  0.00  0.00    +0.000 A 
ENDBRANCH   1  20
BRANCH   2  22
ATOM     22  C   UNL     1       0.909   9.565  22.711  0.00  0.00    +0.000 C 
ATOM     23  N   UNL     1       2.233   9.204  22.644  0.00  0.00    +0.000 N 
ATOM     24  O   UNL     1       0.337   9.542  23.788  0.00  0.00    +0.000 OA
ATOM     25  H   UNL     1       2.755   9.121  21.797  0.00  0.00    +0.000 HD
ATOM     26  H   UNL     1       2.686   8.974  23.515  0.00  0.00    +0.000 HD
ENDBRANCH   2  22
BRANCH  12  27
ATOM     27  C   UNL     1      -5.812  13.197  23.282  0.00  0.00    +0.000 C 
ATOM     28  C   UNL     1      -7.109  12.680  22.624  0.00  0.00    +0.000 C 
ATOM     29  C   UNL     1      -5.525  12.320  24.515  0.00  0.00    +0.000 C 
ATOM     30  C   UNL     1      -6.017  14.641  23.781  0.00  0.00    +0.000 C 
ENDBRANCH  12  27
TORSDOF 3
ENDMDL
MODEL 8
REMARK VINA RESULT:      -7.1      2.808      3.763
REMARK  Name = 
REMARK  7 active torsions:
REMARK  status: ('A' for Active; 'I' for Inactive)
REMARK    1  A    between atoms: C_1  and  C_2
REMARK    2  A    between atoms: C_6  and  C_7
REMARK    3  A    between atoms: C_8  and  C_9
REMARK    4  A    between atoms: N_21  and  C_22
REMARK    5  A    between atoms: C_22  and  C_23
REMARK    6  A    between atoms: C_22  and  C_24
REMARK    7  A    between atoms: C_22  and  C_25
REMARK                            x       y       z     vdW  Elec       q    Type
REMARK                         _______ _______ _______ _____ _____    ______ ____
ROOT
ATOM      1  C   UNL     1      -0.006  10.265  20.065  0.00  0.00    +0.000 A 
ATOM      2  C   UNL     1      -1.033  11.139  19.538  0.00  0.00    +0.000 A 
ATOM      3  C   UNL     1      -1.635  11.758  20.636  0.00  0.00    +0.000 A 
ATOM      4  N   UNL     1      -1.068  11.256  21.783  0.00  0.00    +0.000 N 
ATOM      5  C   UNL     1      -0.107  10.348  21.446  0.00  0.00    +0.000 A 
ATOM      6 CL   UNL     1       0.703   9.518  22.710  0.00  0.00    +0.000 Cl
ATOM      7  C   UNL     1      -1.424  11.726  23.118  0.00  0.00    +0.000 C 
ATOM      8  C   UNL     1      -2.672  12.616  23.114  0.00  0.00    +0.000 C 
ATOM      9  N   UNL     1      -2.677  13.506  21.953  0.00  0.00    +0.000 N 
ATOM     10  C   UNL     1      -2.772  14.879  21.892  0.00  0.00    +0.000 C 
ATOM     11  O   UNL     1      -2.781  15.456  20.808  0.00  0.00    +0.000 OA
ATOM     12  N   UNL     1      -2.839  15.567  23.069  0.00  0.00    +0.000 N 
ATOM     13  C   UNL     1      -2.674  12.823  20.674  0.00  0.00    +0.000 C 
ATOM     14  H   UNL     1      -3.227  15.084  23.862  0.00  0.00    +0.000 HD
ENDROOT
BRANCH   1  20
ATOM     15  C   UNL     1       2.607   6.011  20.097  0.00  0.00    +0.000 C 
ATOM     16  C   UNL     1       2.212   7.270  19.386  0.00  0.00    +0.000 A 
ATOM     17  C   UNL     1       2.849   7.662  18.207  0.00  0.00    +0.000 A 
ATOM     18  C   UNL     1       2.490   8.855  17.584  0.00  0.00    +0.000 A 
ATOM     19  C   UNL     1       1.513   9.678  18.151  0.00  0.00    +0.000 A 
ATOM     20  C   UNL     1       0.900   9.338  19.367  0.00  0.00    +0.000 A 
ATOM     21  C   UNL     1       1.235   8.106  19.947  0.00  0.00    +0.000 A 
ENDBRANCH   1  20
BRANCH   2  22
ATOM     22  C   UNL     1      -1.358  11.409  18.135  0.00  0.00    +0.000 C 
ATOM     23  N   UNL     1      -1.045  12.663  17.666  0.00  0.00    +0.000 N 
ATOM     24  O   UNL     1      -1.897  10.610  17.388  0.00  0.00    +0.000 OA
ATOM     25  H   UNL     1      -0.674  13.400  18.228  0.00  0.00    +0.000 HD
ATOM     26  H   UNL     1      -1.244  12.849  16.695  0.00  0.00    +0.000 HD
ENDBRANCH   2  22
BRANCH  12  27
ATOM     27  C   UNL     1      -2.933  17.046  23.077  0.00  0.00    +0.000 C 
ATOM     28  C   UNL     1      -4.197  17.539  22.342  0.00  0.00    +0.000 C 
ATOM     29  C   UNL     1      -3.009  17.543  24.532  0.00  0.00    +0.000 C 
ATOM     30  C   UNL     1      -1.678  17.674  22.440  0.00  0.00    +0.000 C 
ENDBRANCH  12  27
TORSDOF 3
ENDMDL
MODEL 9
REMARK VINA RESULT:      -7.0      4.211      5.661
REMARK  Name = 
REMARK  7 active torsions:
REMARK  status: ('A' for Active; 'I' for Inactive)
REMARK    1  A    between atoms: C_1  and  C_2
REMARK    2  A    between atoms: C_6  and  C_7
REMARK    3  A    between atoms: C_8  and  C_9
REMARK    4  A    between atoms: N_21  and  C_22
REMARK    5  A    between atoms: C_22  and  C_23
REMARK    6  A    between atoms: C_22  and  C_24
REMARK    7  A    between atoms: C_22  and  C_25
REMARK                            x       y       z     vdW  Elec       q    Type
REMARK                         _______ _______ _______ _____ _____    ______ ____
ROOT
ATOM      1  C   UNL     1       0.472  14.177  20.232  0.00  0.00    +0.000 A 
ATOM      2  C   UNL     1      -0.481  13.112  19.996  0.00  0.00    +0.000 A 
ATOM      3  C   UNL     1      -1.320  13.070  21.113  0.00  0.00    +0.000 A 
ATOM      4  N   UNL     1      -0.881  14.004  22.021  0.00  0.00    +0.000 N 
ATOM      5  C   UNL     1       0.202  14.654  21.506  0.00  0.00    +0.000 A 
ATOM      6 CL   UNL     1       0.986  15.824  22.486  0.00  0.00    +0.000 Cl
ATOM      7  C   UNL     1      -1.564  14.267  23.283  0.00  0.00    +0.000 C 
ATOM      8  C   UNL     1      -2.634  13.217  23.603  0.00  0.00    +0.000 C 
ATOM      9  N   UNL     1      -3.361  12.825  22.397  0.00  0.00    +0.000 N 
ATOM     10  C   UNL     1      -4.713  12.844  22.134  0.00  0.00    +0.000 C 
ATOM     11  O   UNL     1      -5.145  12.451  21.053  0.00  0.00    +0.000 OA
ATOM     12  N   UNL     1      -5.545  13.327  23.102  0.00  0.00    +0.000 N 
ATOM     13  C   UNL     1      -2.531  12.243  21.359  0.00  0.00    +0.000 C 
ATOM     14  H   UNL     1      -5.232  13.251  24.057  0.00  0.00    +0.000 HD
ENDROOT
BRANCH   1  20
ATOM     15  C   UNL     1       2.366  17.475  16.998  0.00  0.00    +0.000 C 
ATOM     16  C   UNL     1       2.537  16.221  17.802  0.00  0.00    +0.000 A 
ATOM     17  C   UNL     1       3.643  15.390  17.614  0.00  0.00    +0.000 A 
ATOM     18  C   UNL     1       3.761  14.211  18.347  0.00  0.00    +0.000 A 
ATOM     19  C   UNL     1       2.761  13.841  19.251  0.00  0.00    +0.000 A 
ATOM     20  C   UNL     1       1.611  14.628  19.415  0.00  0.00    +0.000 A 
ATOM     21  C   UNL     1       1.538  15.838  18.710  0.00  0.00    +0.000 A 
ENDBRANCH   1  20
BRANCH   2  22
ATOM     22  C   UNL     1      -0.622  12.272  18.804  0.00  0.00    +0.000 C 
ATOM     23  N   UNL     1      -0.977  12.916  17.642  0.00  0.00    +0.000 N 
ATOM     24  O   UNL     1      -0.468  11.063  18.793  0.00  0.00    +0.000 OA
ATOM     25  H   UNL     1      -1.197  13.888  17.579  0.00  0.00    +0.000 HD
ATOM     26  H   UNL     1      -1.052  12.348  16.812  0.00  0.00    +0.000 HD
ENDBRANCH   2  22
BRANCH  12  27
ATOM     27  C   UNL     1      -7.010  13.386  22.884  0.00  0.00    +0.000 C 
ATOM     28  C   UNL     1      -7.597  11.988  22.596  0.00  0.00    +0.000 C 
ATOM     29  C   UNL     1      -7.692  13.935  24.149  0.00  0.00    +0.000 C 
ATOM     30  C   UNL     1      -7.348  14.345  21.725  0.00  0.00    +0.000 C 
ENDBRANCH  12  27
TORSDOF 3
ENDMDL
