MODEL 1
REMARK VINA RESULT:      -8.3      0.000      0.000
REMARK  Name = 
REMARK  6 active torsions:
REMARK  status: ('A' for Active; 'I' for Inactive)
REMARK    1  A    between atoms: C_1  and  C_2
REMARK    2  A    between atoms: N_4  and  C_5
REMARK    3  A    between atoms: C_8  and  C_9
REMARK    4  A    between atoms: N_12  and  C_13
REMARK    5  A    between atoms: C_16  and  N_17
REMARK    6  A    between atoms: C_27  and  C_28
REMARK                            x       y       z     vdW  Elec       q    Type
REMARK                         _______ _______ _______ _____ _____    ______ ____
ROOT
ATOM      1  C   UNL     1      -1.377  10.891  19.566  0.00  0.00    +0.000 A 
ATOM      2  N   UNL     1      -0.305  10.060  19.572  0.00  0.00    +0.000 NA
ATOM      3  C   UNL     1       0.550  10.082  20.605  0.00  0.00    +0.000 A 
ATOM      4  N   UNL     1       1.709   9.314  20.574  0.00  0.00    +0.000 N 
ATOM      5  N   UNL     1       0.386  10.874  21.666  0.00  0.00    +0.000 NA
ATOM      6  C   UNL     1      -0.697  11.670  21.658  0.00  0.00    +0.000 A 
ATOM      7  C   UNL     1      -1.611  11.751  20.624  0.00  0.00    +0.000 A 
ATOM      8  H   UNL     1       2.254   9.488  21.406  0.00  0.00    +0.000 HD
ENDROOT
BRANCH   1  12
ATOM      9  C   UNL     1      -3.519  10.456  15.828  0.00  0.00    +0.000 A 
ATOM     10  C   UNL     1      -2.645  11.523  16.029  0.00  0.00    +0.000 A 
ATOM     11  C   UNL     1      -2.008  11.717  17.262  0.00  0.00    +0.000 A 
ATOM     12  C   UNL     1      -2.163  10.803  18.312  0.00  0.00    +0.000 A 
ATOM     13  C   UNL     1      -3.116   9.779  18.124  0.00  0.00    +0.000 A 
ATOM     14  C   UNL     1      -3.800   9.619  16.907  0.00  0.00    +0.000 A 
BRANCH   9  18
ATOM     15  C   UNL     1      -4.430   9.782  12.236  0.00  0.00    +0.000 C 
ATOM     16  C   UNL     1      -3.495   9.877  13.411  0.00  0.00    +0.000 C 
ATOM     17  O   UNL     1      -2.293   9.676  13.267  0.00  0.00    +0.000 OA
ATOM     18  N   UNL     1      -4.146  10.204  14.592  0.00  0.00    +0.000 N 
ATOM     19  H   UNL     1      -5.154  10.128  14.600  0.00  0.00    +0.000 HD
ENDBRANCH   9  18
ENDBRANCH   1  12
BRANCH   4  20
ATOM     20  C   UNL     1       1.901   8.051  20.000  0.00  0.00    +0.000 A 
ATOM     21  C   UNL     1       1.689   6.910  20.776  0.00  0.00    +0.000 A 
ATOM     22  C   UNL     1       1.888   5.627  20.244  0.00  0.00    +0.000 A 
ATOM     23  C   UNL     1       2.290   5.436  18.918  0.00  0.00    +0.000 A 
ATOM     24  C   UNL     1       2.490   6.590  18.148  0.00  0.00    +0.000 A 
ATOM     25  C   UNL     1       2.305   7.874  18.677  0.00  0.00    +0.000 A 
BRANCH  23  26
ATOM     26  N   UNL     1       2.462   4.185  18.362  0.00  0.00    +0.000 N 
ATOM     27  C   UNL     1       1.394   3.178  18.308  0.00  0.00    +0.000 C 
ATOM     28  C   UNL     1       1.740   1.973  19.192  0.00  0.00    +0.000 C 
ATOM     29  O   UNL     1       3.024   1.422  18.851  0.00  0.00    +0.000 OA
ATOM     30  C   UNL     1       4.049   2.416  19.025  0.00  0.00    +0.000 C 
ATOM     31  C   UNL     1       3.815   3.648  18.133  0.00  0.00    +0.000 C 
ENDBRANCH  23  26
ENDBRANCH   4  20
BRANCH   7  32
ATOM     32  C   UNL     1      -2.714  12.739  20.782  0.00  0.00    +0.000 C 
ATOM     33  F   UNL     1      -3.942  12.357  20.355  0.00  0.00    +0.000 F 
ATOM     34  F   UNL     1      -2.869  13.113  22.084  0.00  0.00    +0.000 F 
ATOM     35  F   UNL     1      -2.458  13.898  20.106  0.00  0.00    +0.000 F 
ENDBRANCH   7  32
TORSDOF 5
ENDMDL
MODEL 2
REMARK VINA RESULT:      -8.2      0.536      1.200
REMARK  Name = 
REMARK  6 active torsions:
REMARK  status: ('A' for Active; 'I' for Inactive)
REMARK    1  A    between atoms: C_1  and  C_2
REMARK    2  A    between atoms: N_4  and  C_5
REMARK    3  A    between atoms: C_8  and  C_9
REMARK    4  A    between atoms: N_12  and  C_13
REMARK    5  A    between atoms: C_16  and  N_17
REMARK    6  A    between atoms: C_27  and  C_28
REMARK                            x       y       z     vdW  Elec       q    Type
REMARK                         _______ _______ _______ _____ _____    ______ ____
ROOT
ATOM      1  C   UNL     1      -1.150  10.789  19.610  0.00  0.00    +0.000 A 
ATOM      2  N   UNL     1      -0.155   9.867  19.620  0.00  0.00    +0.000 NA
ATOM      3  C   UNL     1       0.733   9.856  20.625  0.00  0.00    +0.000 A 
ATOM      4  N   UNL     1       1.819   8.987  20.593  0.00  0.00    +0.000 N 
ATOM      5  N   UNL     1       0.677  10.703  21.653  0.00  0.00    +0.000 NA
ATOM      6  C   UNL     1      -0.332  11.592  21.643  0.00  0.00    +0.000 A 
ATOM      7  C   UNL     1      -1.271  11.710  20.635  0.00  0.00    +0.000 A 
ATOM      8  H   UNL     1       2.406   9.147  21.399  0.00  0.00    +0.000 HD
ENDROOT
BRANCH   1  12
ATOM      9  C   UNL     1      -3.423  10.420  15.943  0.00  0.00    +0.000 A 
ATOM     10  C   UNL     1      -2.610  11.529  16.169  0.00  0.00    +0.000 A 
ATOM     11  C   UNL     1      -1.933  11.697  17.385  0.00  0.00    +0.000 A 
ATOM     12  C   UNL     1      -1.983  10.719  18.386  0.00  0.00    +0.000 A 
ATOM     13  C   UNL     1      -2.877   9.647  18.178  0.00  0.00    +0.000 A 
ATOM     14  C   UNL     1      -3.603   9.509  16.983  0.00  0.00    +0.000 A 
BRANCH   9  18
ATOM     15  C   UNL     1      -4.441   9.816  12.368  0.00  0.00    +0.000 C 
ATOM     16  C   UNL     1      -3.472   9.880  13.518  0.00  0.00    +0.000 C 
ATOM     17  O   UNL     1      -2.278   9.668  13.337  0.00  0.00    +0.000 OA
ATOM     18  N   UNL     1      -4.087  10.196  14.721  0.00  0.00    +0.000 N 
ATOM     19  H   UNL     1      -5.095  10.132  14.756  0.00  0.00    +0.000 HD
ENDBRANCH   9  18
ENDBRANCH   1  12
BRANCH   4  20
ATOM     20  C   UNL     1       1.880   7.689  20.071  0.00  0.00    +0.000 A 
ATOM     21  C   UNL     1       2.339   7.499  18.767  0.00  0.00    +0.000 A 
ATOM     22  C   UNL     1       2.400   6.216  18.202  0.00  0.00    +0.000 A 
ATOM     23  C   UNL     1       2.019   5.078  18.921  0.00  0.00    +0.000 A 
ATOM     24  C   UNL     1       1.570   5.283  20.233  0.00  0.00    +0.000 A 
ATOM     25  C   UNL     1       1.496   6.562  20.798  0.00  0.00    +0.000 A 
BRANCH  23  26
ATOM     26  N   UNL     1       2.099   3.803  18.399  0.00  0.00    +0.000 N 
ATOM     27  C   UNL     1       1.808   2.596  19.184  0.00  0.00    +0.000 C 
ATOM     28  C   UNL     1       3.076   1.754  19.373  0.00  0.00    +0.000 C 
ATOM     29  O   UNL     1       3.696   1.447  18.112  0.00  0.00    +0.000 OA
ATOM     30  C   UNL     1       4.061   2.660  17.432  0.00  0.00    +0.000 C 
ATOM     31  C   UNL     1       2.838   3.551  17.150  0.00  0.00    +0.000 C 
ENDBRANCH  23  26
ENDBRANCH   4  20
BRANCH   7  32
ATOM     32  C   UNL     1      -2.277  12.799  20.782  0.00  0.00    +0.000 C 
ATOM     33  F   UNL     1      -2.094  13.906  20.022  0.00  0.00    +0.000 F 
ATOM     34  F   UNL     1      -3.536  12.357  20.505  0.00  0.00    +0.000 F 
ATOM     35  F   UNL     1      -2.335  13.266  22.064  0.00  0.00    +0.000 F 
ENDBRANCH   7  32
TORSDOF 5
ENDMDL
MODEL 3
REMARK VINA RESULT:      -7.7      5.039      6.709
REMARK  Name = 
REMARK  6 active torsions:
REMARK  status: ('A' for Active; 'I' for Inactive)
REMARK    1  A    between atoms: C_1  and  C_2
REMARK    2  A    between atoms: N_4  and  C_5
REMARK    3  A    between atoms: C_8  and  C_9
REMARK    4  A    between atoms: N_12  and  C_13
REMARK    5  A    between atoms: C_16  and  N_17
REMARK    6  A    between atoms: C_27  and  C_28
REMARK                            x       y       z     vdW  Elec       q    Type
REMARK                         _______ _______ _______ _____ _____    ______ ____
ROOT
ATOM      1  C   UNL     1       1.524  13.462  19.411  0.00  0.00    +0.000 A 
ATOM      2  N   UNL     1       1.477  12.114  19.561  0.00  0.00    +0.000 NA
ATOM      3  C   UNL     1       0.294  11.502  19.713  0.00  0.00    +0.000 A 
ATOM      4  N   UNL     1       0.238  10.137  19.974  0.00  0.00    +0.000 N 
ATOM      5  N   UNL     1      -0.869  12.155  19.699  0.00  0.00    +0.000 NA
ATOM      6  C   UNL     1      -0.807  13.486  19.520  0.00  0.00    +0.000 A 
ATOM      7  C   UNL     1       0.363  14.213  19.397  0.00  0.00    +0.000 A 
ATOM      8  H   UNL     1      -0.723   9.855  20.107  0.00  0.00    +0.000 HD
ENDROOT
BRANCH   1  12
ATOM      9  C   UNL     1       5.482  15.211  19.250  0.00  0.00    +0.000 A 
ATOM     10  C   UNL     1       4.856  14.755  18.091  0.00  0.00    +0.000 A 
ATOM     11  C   UNL     1       3.611  14.116  18.143  0.00  0.00    +0.000 A 
ATOM     12  C   UNL     1       2.910  13.983  19.348  0.00  0.00    +0.000 A 
ATOM     13  C   UNL     1       3.592  14.370  20.521  0.00  0.00    +0.000 A 
ATOM     14  C   UNL     1       4.868  14.958  20.476  0.00  0.00    +0.000 A 
BRANCH   9  18
ATOM     15  C   UNL     1       8.304  17.704  19.162  0.00  0.00    +0.000 C 
ATOM     16  C   UNL     1       6.872  17.271  19.322  0.00  0.00    +0.000 C 
ATOM     17  O   UNL     1       5.988  18.101  19.504  0.00  0.00    +0.000 OA
ATOM     18  N   UNL     1       6.714  15.894  19.236  0.00  0.00    +0.000 N 
ATOM     19  H   UNL     1       7.549  15.328  19.300  0.00  0.00    +0.000 HD
ENDBRANCH   9  18
ENDBRANCH   1  12
BRANCH   4  20
ATOM     20  C   UNL     1       1.086   9.125  19.506  0.00  0.00    +0.000 A 
ATOM     21  C   UNL     1       1.447   8.087  20.365  0.00  0.00    +0.000 A 
ATOM     22  C   UNL     1       2.308   7.064  19.940  0.00  0.00    +0.000 A 
ATOM     23  C   UNL     1       2.827   7.033  18.641  0.00  0.00    +0.000 A 
ATOM     24  C   UNL     1       2.448   8.077  17.787  0.00  0.00    +0.000 A 
ATOM     25  C   UNL     1       1.599   9.107  18.209  0.00  0.00    +0.000 A 
BRANCH  23  26
ATOM     26  N   UNL     1       3.650   6.022  18.189  0.00  0.00    +0.000 N 
ATOM     27  C   UNL     1       3.305   4.598  18.298  0.00  0.00    +0.000 C 
ATOM     28  C   UNL     1       4.261   3.882  19.261  0.00  0.00    +0.000 C 
ATOM     29  O   UNL     1       5.635   4.081  18.884  0.00  0.00    +0.000 OA
ATOM     30  C   UNL     1       5.952   5.484  18.899  0.00  0.00    +0.000 C 
ATOM     31  C   UNL     1       5.075   6.282  17.918  0.00  0.00    +0.000 C 
ENDBRANCH  23  26
ENDBRANCH   4  20
BRANCH   7  32
ATOM     32  C   UNL     1       0.221  15.690  19.264  0.00  0.00    +0.000 C 
ATOM     33  F   UNL     1      -1.037  16.172  19.124  0.00  0.00    +0.000 F 
ATOM     34  F   UNL     1       0.756  16.342  20.336  0.00  0.00    +0.000 F 
ATOM     35  F   UNL     1       0.898  16.169  18.180  0.00  0.00    +0.000 F 
ENDBRANCH   7  32
TORSDOF 5
ENDMDL
MODEL 4
REMARK VINA RESULT:      -7.7      4.741      6.410
REMARK  Name = 
REMARK  6 active torsions:
REMARK  status: ('A' for Active; 'I' for Inactive)
REMARK    1  A    between atoms: C_1  and  C_2
REMARK    2  A    between atoms: N_4  and  C_5
REMARK    3  A    between atoms: C_8  and  C_9
REMARK    4  A    between atoms: N_12  and  C_13
REMARK    5  A    between atoms: C_16  and  N_17
REMARK    6  A    between atoms: C_27  and  C_28
REMARK                            x       y       z     vdW  Elec       q    Type
REMARK                         _______ _______ _______ _____ _____    ______ ____
ROOT
ATOM      1  C   UNL     1       1.033  13.631  19.434  0.00  0.00    +0.000 A 
ATOM      2  N   UNL     1       1.115  12.286  19.592  0.00  0.00    +0.000 NA
ATOM      3  C   UNL     1       0.007  11.577  19.853  0.00  0.00    +0.000 A 
ATOM      4  N   UNL     1       0.093  10.215  20.122  0.00  0.00    +0.000 N 
ATOM      5  N   UNL     1      -1.204  12.128  19.942  0.00  0.00    +0.000 NA
ATOM      6  C   UNL     1      -1.273  13.458  19.754  0.00  0.00    +0.000 A 
ATOM      7  C   UNL     1      -0.186  14.280  19.522  0.00  0.00    +0.000 A 
ATOM      8  H   UNL     1      -0.825   9.854  20.342  0.00  0.00    +0.000 HD
ENDROOT
BRANCH   1  12
ATOM      9  C   UNL     1       4.986  15.275  18.790  0.00  0.00    +0.000 A 
ATOM     10  C   UNL     1       4.564  14.914  20.068  0.00  0.00    +0.000 A 
ATOM     11  C   UNL     1       3.260  14.456  20.299  0.00  0.00    +0.000 A 
ATOM     12  C   UNL     1       2.358  14.267  19.244  0.00  0.00    +0.000 A 
ATOM     13  C   UNL     1       2.770  14.718  17.972  0.00  0.00    +0.000 A 
ATOM     14  C   UNL     1       4.058  15.233  17.750  0.00  0.00    +0.000 A 
BRANCH   9  18
ATOM     15  C   UNL     1       8.619  15.627  17.860  0.00  0.00    +0.000 C 
ATOM     16  C   UNL     1       7.288  14.928  17.918  0.00  0.00    +0.000 C 
ATOM     17  O   UNL     1       7.162  13.792  17.471  0.00  0.00    +0.000 OA
ATOM     18  N   UNL     1       6.300  15.701  18.512  0.00  0.00    +0.000 N 
ATOM     19  H   UNL     1       6.495  16.685  18.634  0.00  0.00    +0.000 HD
ENDBRANCH   9  18
ENDBRANCH   1  12
BRANCH   4  20
ATOM     20  C   UNL     1       0.979   9.274  19.582  0.00  0.00    +0.000 A 
ATOM     21  C   UNL     1       1.416   8.214  20.378  0.00  0.00    +0.000 A 
ATOM     22  C   UNL     1       2.317   7.261  19.880  0.00  0.00    +0.000 A 
ATOM     23  C   UNL     1       2.801   7.322  18.569  0.00  0.00    +0.000 A 
ATOM     24  C   UNL     1       2.346   8.386  17.779  0.00  0.00    +0.000 A 
ATOM     25  C   UNL     1       1.456   9.348  18.274  0.00  0.00    +0.000 A 
BRANCH  23  26
ATOM     26  N   UNL     1       3.663   6.380  18.046  0.00  0.00    +0.000 N 
ATOM     27  C   UNL     1       4.056   5.164  18.770  0.00  0.00    +0.000 C 
ATOM     28  C   UNL     1       5.550   5.198  19.115  0.00  0.00    +0.000 C 
ATOM     29  O   UNL     1       6.356   5.418  17.943  0.00  0.00    +0.000 OA
ATOM     30  C   UNL     1       6.007   6.672  17.333  0.00  0.00    +0.000 C 
ATOM     31  C   UNL     1       4.530   6.712  16.902  0.00  0.00    +0.000 C 
ENDBRANCH  23  26
ENDBRANCH   4  20
BRANCH   7  32
ATOM     32  C   UNL     1      -0.465  15.738  19.399  0.00  0.00    +0.000 C 
ATOM     33  F   UNL     1       0.355  16.576  20.079  0.00  0.00    +0.000 F 
ATOM     34  F   UNL     1      -0.425  16.147  18.099  0.00  0.00    +0.000 F 
ATOM     35  F   UNL     1      -1.720  16.053  19.834  0.00  0.00    +0.000 F 
ENDBRANCH   7  32
TORSDOF 5
ENDMDL
MODEL 5
REMARK VINA RESULT:      -7.7      4.986      6.611
REMARK  Name = 
REMARK  6 active torsions:
REMARK  status: ('A' for Active; 'I' for Inactive)
REMARK    1  A    between atoms: C_1  and  C_2
REMARK    2  A    between atoms: N_4  and  C_5
REMARK    3  A    between atoms: C_8  and  C_9
REMARK    4  A    between atoms: N_12  and  C_13
REMARK    5  A    between atoms: C_16  and  N_17
REMARK    6  A    between atoms: C_27  and  C_28
REMARK                            x       y       z     vdW  Elec       q    Type
REMARK                         _______ _______ _______ _____ _____    ______ ____
ROOT
ATOM      1  C   UNL     1       1.088  13.618  19.471  0.00  0.00    +0.000 A 
ATOM      2  N   UNL     1       1.152  12.269  19.610  0.00  0.00    +0.000 NA
ATOM      3  C   UNL     1       0.032  11.569  19.840  0.00  0.00    +0.000 A 
ATOM      4  N   UNL     1       0.097  10.203  20.090  0.00  0.00    +0.000 N 
ATOM      5  N   UNL     1      -1.175  12.133  19.916  0.00  0.00    +0.000 NA
ATOM      6  C   UNL     1      -1.224  13.467  19.747  0.00  0.00    +0.000 A 
ATOM      7  C   UNL     1      -0.124  14.280  19.548  0.00  0.00    +0.000 A 
ATOM      8  H   UNL     1      -0.829   9.849  20.288  0.00  0.00    +0.000 HD
ENDROOT
BRANCH   1  12
ATOM      9  C   UNL     1       5.078  15.218  18.951  0.00  0.00    +0.000 A 
ATOM     10  C   UNL     1       4.572  14.965  20.225  0.00  0.00    +0.000 A 
ATOM     11  C   UNL     1       3.255  14.523  20.407  0.00  0.00    +0.000 A 
ATOM     12  C   UNL     1       2.424  14.241  19.316  0.00  0.00    +0.000 A 
ATOM     13  C   UNL     1       2.919  14.584  18.039  0.00  0.00    +0.000 A 
ATOM     14  C   UNL     1       4.220  15.084  17.860  0.00  0.00    +0.000 A 
BRANCH   9  18
ATOM     15  C   UNL     1       8.315  17.056  18.375  0.00  0.00    +0.000 C 
ATOM     16  C   UNL     1       6.870  16.931  18.779  0.00  0.00    +0.000 C 
ATOM     17  O   UNL     1       6.229  17.924  19.108  0.00  0.00    +0.000 OA
ATOM     18  N   UNL     1       6.407  15.624  18.724  0.00  0.00    +0.000 N 
ATOM     19  H   UNL     1       7.100  14.892  18.644  0.00  0.00    +0.000 HD
ENDBRANCH   9  18
ENDBRANCH   1  12
BRANCH   4  20
ATOM     20  C   UNL     1       0.982   9.260  19.552  0.00  0.00    +0.000 A 
ATOM     21  C   UNL     1       1.416   8.200  20.349  0.00  0.00    +0.000 A 
ATOM     22  C   UNL     1       2.316   7.245  19.853  0.00  0.00    +0.000 A 
ATOM     23  C   UNL     1       2.801   7.304  18.542  0.00  0.00    +0.000 A 
ATOM     24  C   UNL     1       2.349   8.368  17.751  0.00  0.00    +0.000 A 
ATOM     25  C   UNL     1       1.460   9.332  18.244  0.00  0.00    +0.000 A 
BRANCH  23  26
ATOM     26  N   UNL     1       3.662   6.359  18.021  0.00  0.00    +0.000 N 
ATOM     27  C   UNL     1       4.016   5.121  18.727  0.00  0.00    +0.000 C 
ATOM     28  C   UNL     1       5.500   5.122  19.112  0.00  0.00    +0.000 C 
ATOM     29  O   UNL     1       6.341   5.355  17.968  0.00  0.00    +0.000 OA
ATOM     30  C   UNL     1       6.030   6.629  17.378  0.00  0.00    +0.000 C 
ATOM     31  C   UNL     1       4.566   6.704  16.909  0.00  0.00    +0.000 C 
ENDBRANCH  23  26
ENDBRANCH   4  20
BRANCH   7  32
ATOM     32  C   UNL     1      -0.384  15.742  19.442  0.00  0.00    +0.000 C 
ATOM     33  F   UNL     1      -1.661  16.151  19.639  0.00  0.00    +0.000 F 
ATOM     34  F   UNL     1       0.378  16.452  20.323  0.00  0.00    +0.000 F 
ATOM     35  F   UNL     1      -0.051  16.228  18.210  0.00  0.00    +0.000 F 
ENDBRANCH   7  32
TORSDOF 5
ENDMDL
MODEL 6
REMARK VINA RESULT:      -7.6      4.721      6.428
REMARK  Name = 
REMARK  6 active torsions:
REMARK  status: ('A' for Active; 'I' for Inactive)
REMARK    1  A    between atoms: C_1  and  C_2
REMARK    2  A    between atoms: N_4  and  C_5
REMARK    3  A    between atoms: C_8  and  C_9
REMARK    4  A    between atoms: N_12  and  C_13
REMARK    5  A    between atoms: C_16  and  N_17
REMARK    6  A    between atoms: C_27  and  C_28
REMARK                            x       y       z     vdW  Elec       q    Type
REMARK                         _______ _______ _______ _____ _____    ______ ____
ROOT
ATOM      1  C   UNL     1       1.053  13.565  19.442  0.00  0.00    +0.000 A 
ATOM      2  N   UNL     1       1.132  12.222  19.619  0.00  0.00    +0.000 NA
ATOM      3  C   UNL     1       0.022  11.517  19.882  0.00  0.00    +0.000 A 
ATOM      4  N   UNL     1       0.104  10.160  20.171  0.00  0.00    +0.000 N 
ATOM      5  N   UNL     1      -1.189  12.071  19.955  0.00  0.00    +0.000 NA
ATOM      6  C   UNL     1      -1.255  13.398  19.748  0.00  0.00    +0.000 A 
ATOM      7  C   UNL     1      -0.165  14.216  19.513  0.00  0.00    +0.000 A 
ATOM      8  H   UNL     1      -0.816   9.803  20.389  0.00  0.00    +0.000 HD
ENDROOT
BRANCH   1  12
ATOM      9  C   UNL     1       5.013  15.196  18.802  0.00  0.00    +0.000 A 
ATOM     10  C   UNL     1       4.582  14.849  20.082  0.00  0.00    +0.000 A 
ATOM     11  C   UNL     1       3.276  14.396  20.310  0.00  0.00    +0.000 A 
ATOM     12  C   UNL     1       2.380  14.197  19.253  0.00  0.00    +0.000 A 
ATOM     13  C   UNL     1       2.800  14.633  17.978  0.00  0.00    +0.000 A 
ATOM     14  C   UNL     1       4.091  15.144  17.758  0.00  0.00    +0.000 A 
BRANCH   9  18
ATOM     15  C   UNL     1       8.647  15.535  17.872  0.00  0.00    +0.000 C 
ATOM     16  C   UNL     1       7.311  14.843  17.925  0.00  0.00    +0.000 C 
ATOM     17  O   UNL     1       7.178  13.712  17.468  0.00  0.00    +0.000 OA
ATOM     18  N   UNL     1       6.328  15.616  18.526  0.00  0.00    +0.000 N 
ATOM     19  H   UNL     1       6.529  16.598  18.658  0.00  0.00    +0.000 HD
ENDBRANCH   9  18
ENDBRANCH   1  12
BRANCH   4  20
ATOM     20  C   UNL     1       0.993   9.210  19.651  0.00  0.00    +0.000 A 
ATOM     21  C   UNL     1       1.403   9.318  18.321  0.00  0.00    +0.000 A 
ATOM     22  C   UNL     1       2.279   8.378  17.758  0.00  0.00    +0.000 A 
ATOM     23  C   UNL     1       2.788   7.309  18.502  0.00  0.00    +0.000 A 
ATOM     24  C   UNL     1       2.375   7.219  19.839  0.00  0.00    +0.000 A 
ATOM     25  C   UNL     1       1.491   8.147  20.404  0.00  0.00    +0.000 A 
BRANCH  23  26
ATOM     26  N   UNL     1       3.674   6.389  17.980  0.00  0.00    +0.000 N 
ATOM     27  C   UNL     1       4.063   5.161  18.686  0.00  0.00    +0.000 C 
ATOM     28  C   UNL     1       5.547   5.203  19.070  0.00  0.00    +0.000 C 
ATOM     29  O   UNL     1       6.381   5.461  17.926  0.00  0.00    +0.000 OA
ATOM     30  C   UNL     1       6.033   6.726  17.337  0.00  0.00    +0.000 C 
ATOM     31  C   UNL     1       4.568   6.759  16.868  0.00  0.00    +0.000 C 
ENDBRANCH  23  26
ENDBRANCH   4  20
BRANCH   7  32
ATOM     32  C   UNL     1      -0.441  15.673  19.367  0.00  0.00    +0.000 C 
ATOM     33  F   UNL     1      -0.330  16.193  18.121  0.00  0.00    +0.000 F 
ATOM     34  F   UNL     1      -1.696  15.989  19.795  0.00  0.00    +0.000 F 
ATOM     35  F   UNL     1       0.399  16.428  20.133  0.00  0.00    +0.000 F 
ENDBRANCH   7  32
TORSDOF 5
ENDMDL
MODEL 7
REMARK VINA RESULT:      -7.6      5.177      6.967
REMARK  Name = 
REMARK  6 active torsions:
REMARK  status: ('A' for Active; 'I' for Inactive)
REMARK    1  A    between atoms: C_1  and  C_2
REMARK    2  A    between atoms: N_4  and  C_5
REMARK    3  A    between atoms: C_8  and  C_9
REMARK    4  A    between atoms: N_12  and  C_13
REMARK    5  A    between atoms: C_16  and  N_17
REMARK    6  A    between atoms: C_27  and  C_28
REMARK                            x       y       z     vdW  Elec       q    Type
REMARK                         _______ _______ _______ _____ _____    ______ ____
ROOT
ATOM      1  C   UNL     1       1.527  13.589  19.352  0.00  0.00    +0.000 A 
ATOM      2  N   UNL     1       1.468  12.240  19.487  0.00  0.00    +0.000 NA
ATOM      3  C   UNL     1       0.276  11.629  19.561  0.00  0.00    +0.000 A 
ATOM      4  N   UNL     1       0.202  10.262  19.806  0.00  0.00    +0.000 N 
ATOM      5  N   UNL     1      -0.882  12.285  19.480  0.00  0.00    +0.000 NA
ATOM      6  C   UNL     1      -0.807  13.618  19.317  0.00  0.00    +0.000 A 
ATOM      7  C   UNL     1       0.370  14.343  19.273  0.00  0.00    +0.000 A 
ATOM      8  H   UNL     1      -0.766   9.982  19.876  0.00  0.00    +0.000 HD
ENDROOT
BRANCH   1  12
ATOM      9  C   UNL     1       5.490  15.329  19.470  0.00  0.00    +0.000 A 
ATOM     10  C   UNL     1       4.906  14.967  18.257  0.00  0.00    +0.000 A 
ATOM     11  C   UNL     1       3.658  14.331  18.214  0.00  0.00    +0.000 A 
ATOM     12  C   UNL     1       2.915  14.107  19.380  0.00  0.00    +0.000 A 
ATOM     13  C   UNL     1       3.555  14.399  20.603  0.00  0.00    +0.000 A 
ATOM     14  C   UNL     1       4.833  14.983  20.649  0.00  0.00    +0.000 A 
BRANCH   9  18
ATOM     15  C   UNL     1       8.325  17.805  19.588  0.00  0.00    +0.000 C 
ATOM     16  C   UNL     1       6.882  17.382  19.628  0.00  0.00    +0.000 C 
ATOM     17  O   UNL     1       5.990  18.220  19.716  0.00  0.00    +0.000 OA
ATOM     18  N   UNL     1       6.723  16.005  19.552  0.00  0.00    +0.000 N 
ATOM     19  H   UNL     1       7.546  15.436  19.700  0.00  0.00    +0.000 HD
ENDBRANCH   9  18
ENDBRANCH   1  12
BRANCH   4  20
ATOM     20  C   UNL     1       1.076   9.253  19.382  0.00  0.00    +0.000 A 
ATOM     21  C   UNL     1       1.547   9.266  18.069  0.00  0.00    +0.000 A 
ATOM     22  C   UNL     1       2.410   8.264  17.601  0.00  0.00    +0.000 A 
ATOM     23  C   UNL     1       2.845   7.223  18.429  0.00  0.00    +0.000 A 
ATOM     24  C   UNL     1       2.371   7.228  19.747  0.00  0.00    +0.000 A 
ATOM     25  C   UNL     1       1.500   8.219  20.217  0.00  0.00    +0.000 A 
BRANCH  23  26
ATOM     26  N   UNL     1       3.717   6.243  18.001  0.00  0.00    +0.000 N 
ATOM     27  C   UNL     1       4.089   5.086  18.826  0.00  0.00    +0.000 C 
ATOM     28  C   UNL     1       5.574   5.145  19.205  0.00  0.00    +0.000 C 
ATOM     29  O   UNL     1       6.409   5.275  18.042  0.00  0.00    +0.000 OA
ATOM     30  C   UNL     1       6.080   6.479  17.329  0.00  0.00    +0.000 C 
ATOM     31  C   UNL     1       4.615   6.488  16.858  0.00  0.00    +0.000 C 
ENDBRANCH  23  26
ENDBRANCH   4  20
BRANCH   7  32
ATOM     32  C   UNL     1       0.239  15.821  19.145  0.00  0.00    +0.000 C 
ATOM     33  F   UNL     1      -1.011  16.310  18.958  0.00  0.00    +0.000 F 
ATOM     34  F   UNL     1       0.735  16.464  20.240  0.00  0.00    +0.000 F 
ATOM     35  F   UNL     1       0.960  16.304  18.090  0.00  0.00    +0.000 F 
ENDBRANCH   7  32
TORSDOF 5
ENDMDL
MODEL 8
REMARK VINA RESULT:      -7.6      5.352      7.105
REMARK  Name = 
REMARK  6 active torsions:
REMARK  status: ('A' for Active; 'I' for Inactive)
REMARK    1  A    between atoms: C_1  and  C_2
REMARK    2  A    between atoms: N_4  and  C_5
REMARK    3  A    between atoms: C_8  and  C_9
REMARK    4  A    between atoms: N_12  and  C_13
REMARK    5  A    between atoms: C_16  and  N_17
REMARK    6  A    between atoms: C_27  and  C_28
REMARK                            x       y       z     vdW  Elec       q    Type
REMARK                         _______ _______ _______ _____ _____    ______ ____
ROOT
ATOM      1  C   UNL     1       1.896  13.875  19.192  0.00  0.00    +0.000 A 
ATOM      2  N   UNL     1       1.690  12.550  19.397  0.00  0.00    +0.000 NA
ATOM      3  C   UNL     1       0.440  12.081  19.525  0.00  0.00    +0.000 A 
ATOM      4  N   UNL     1       0.220  10.745  19.842  0.00  0.00    +0.000 N 
ATOM      5  N   UNL     1      -0.640  12.859  19.432  0.00  0.00    +0.000 NA
ATOM      6  C   UNL     1      -0.420  14.165  19.199  0.00  0.00    +0.000 A 
ATOM      7  C   UNL     1       0.829  14.749  19.095  0.00  0.00    +0.000 A 
ATOM      8  H   UNL     1      -0.772  10.580  19.945  0.00  0.00    +0.000 HD
ENDROOT
BRANCH   1  12
ATOM      9  C   UNL     1       6.030  15.161  19.130  0.00  0.00    +0.000 A 
ATOM     10  C   UNL     1       5.397  14.738  17.962  0.00  0.00    +0.000 A 
ATOM     11  C   UNL     1       4.086  14.245  17.985  0.00  0.00    +0.000 A 
ATOM     12  C   UNL     1       3.334  14.234  19.166  0.00  0.00    +0.000 A 
ATOM     13  C   UNL     1       4.014  14.582  20.352  0.00  0.00    +0.000 A 
ATOM     14  C   UNL     1       5.350  15.020  20.339  0.00  0.00    +0.000 A 
BRANCH   9  18
ATOM     15  C   UNL     1       9.123  17.307  19.018  0.00  0.00    +0.000 C 
ATOM     16  C   UNL     1       7.643  17.052  19.112  0.00  0.00    +0.000 C 
ATOM     17  O   UNL     1       6.851  17.989  19.153  0.00  0.00    +0.000 OA
ATOM     18  N   UNL     1       7.331  15.700  19.142  0.00  0.00    +0.000 N 
ATOM     19  H   UNL     1       8.090  15.055  19.318  0.00  0.00    +0.000 HD
ENDBRANCH   9  18
ENDBRANCH   1  12
BRANCH   4  20
ATOM     20  C   UNL     1       0.965   9.624  19.456  0.00  0.00    +0.000 A 
ATOM     21  C   UNL     1       1.366   9.498  18.125  0.00  0.00    +0.000 A 
ATOM     22  C   UNL     1       2.099   8.382  17.694  0.00  0.00    +0.000 A 
ATOM     23  C   UNL     1       2.469   7.361  18.576  0.00  0.00    +0.000 A 
ATOM     24  C   UNL     1       2.067   7.506  19.910  0.00  0.00    +0.000 A 
ATOM     25  C   UNL     1       1.325   8.611  20.345  0.00  0.00    +0.000 A 
BRANCH  23  26
ATOM     26  N   UNL     1       3.216   6.269  18.183  0.00  0.00    +0.000 N 
ATOM     27  C   UNL     1       2.696   4.895  18.200  0.00  0.00    +0.000 C 
ATOM     28  C   UNL     1       3.441   4.047  19.237  0.00  0.00    +0.000 C 
ATOM     29  O   UNL     1       4.864   4.088  19.028  0.00  0.00    +0.000 OA
ATOM     30  C   UNL     1       5.339   5.441  19.130  0.00  0.00    +0.000 C 
ATOM     31  C   UNL     1       4.683   6.362  18.086  0.00  0.00    +0.000 C 
ENDBRANCH  23  26
ENDBRANCH   4  20
BRANCH   7  32
ATOM     32  C   UNL     1       0.861  16.225  18.893  0.00  0.00    +0.000 C 
ATOM     33  F   UNL     1       1.657  16.687  17.898  0.00  0.00    +0.000 F 
ATOM     34  F   UNL     1      -0.383  16.723  18.641  0.00  0.00    +0.000 F 
ATOM     35  F   UNL     1       1.290  16.881  20.011  0.00  0.00    +0.000 F 
ENDBRANCH   7  32
TORSDOF 5
ENDMDL
MODEL 9
REMARK VINA RESULT:      -7.6      5.351      7.182
REMARK  Name = 
REMARK  6 active torsions:
REMARK  status: ('A' for Active; 'I' for Inactive)
REMARK    1  A    between atoms: C_1  and  C_2
REMARK    2  A    between atoms: N_4  and  C_5
REMARK    3  A    between atoms: C_8  and  C_9
REMARK    4  A    between atoms: N_12  and  C_13
REMARK    5  A    between atoms: C_16  and  N_17
REMARK    6  A    between atoms: C_27  and  C_28
REMARK                            x       y       z     vdW  Elec       q    Type
REMARK                         _______ _______ _______ _____ _____    ______ ____
ROOT
ATOM      1  C   UNL     1       1.887  13.934  19.116  0.00  0.00    +0.000 A 
ATOM      2  N   UNL     1       1.635  12.625  19.364  0.00  0.00    +0.000 NA
ATOM      3  C   UNL     1       0.370  12.179  19.367  0.00  0.00    +0.000 A 
ATOM      4  N   UNL     1       0.090  10.864  19.724  0.00  0.00    +0.000 N 
ATOM      5  N   UNL     1      -0.677  12.963  19.108  0.00  0.00    +0.000 NA
ATOM      6  C   UNL     1      -0.408  14.252  18.836  0.00  0.00    +0.000 A 
ATOM      7  C   UNL     1       0.855  14.815  18.850  0.00  0.00    +0.000 A 
ATOM      8  H   UNL     1      -0.909  10.716  19.718  0.00  0.00    +0.000 HD
ENDROOT
BRANCH   1  12
ATOM      9  C   UNL     1       6.021  15.166  19.496  0.00  0.00    +0.000 A 
ATOM     10  C   UNL     1       5.502  14.783  18.261  0.00  0.00    +0.000 A 
ATOM     11  C   UNL     1       4.189  14.307  18.141  0.00  0.00    +0.000 A 
ATOM     12  C   UNL     1       3.325  14.275  19.242  0.00  0.00    +0.000 A 
ATOM     13  C   UNL     1       3.889  14.582  20.499  0.00  0.00    +0.000 A 
ATOM     14  C   UNL     1       5.223  15.003  20.628  0.00  0.00    +0.000 A 
BRANCH   9  18
ATOM     15  C   UNL     1       9.220  17.152  19.419  0.00  0.00    +0.000 C 
ATOM     16  C   UNL     1       7.747  16.931  19.209  0.00  0.00    +0.000 C 
ATOM     17  O   UNL     1       7.055  17.803  18.691  0.00  0.00    +0.000 OA
ATOM     18  N   UNL     1       7.321  15.687  19.651  0.00  0.00    +0.000 N 
ATOM     19  H   UNL     1       7.952  15.167  20.245  0.00  0.00    +0.000 HD
ENDBRANCH   9  18
ENDBRANCH   1  12
BRANCH   4  20
ATOM     20  C   UNL     1       0.855   9.715  19.485  0.00  0.00    +0.000 A 
ATOM     21  C   UNL     1       1.108   8.833  20.537  0.00  0.00    +0.000 A 
ATOM     22  C   UNL     1       1.883   7.680  20.343  0.00  0.00    +0.000 A 
ATOM     23  C   UNL     1       2.421   7.359  19.092  0.00  0.00    +0.000 A 
ATOM     24  C   UNL     1       2.152   8.248  18.043  0.00  0.00    +0.000 A 
ATOM     25  C   UNL     1       1.388   9.407  18.233  0.00  0.00    +0.000 A 
BRANCH  23  26
ATOM     26  N   UNL     1       3.161   6.216  18.868  0.00  0.00    +0.000 N 
ATOM     27  C   UNL     1       4.461   6.223  18.185  0.00  0.00    +0.000 C 
ATOM     28  C   UNL     1       4.372   5.487  16.843  0.00  0.00    +0.000 C 
ATOM     29  O   UNL     1       3.851   4.156  17.005  0.00  0.00    +0.000 OA
ATOM     30  C   UNL     1       2.532   4.209  17.577  0.00  0.00    +0.000 C 
ATOM     31  C   UNL     1       2.530   4.887  18.958  0.00  0.00    +0.000 C 
ENDBRANCH  23  26
ENDBRANCH   4  20
BRANCH   7  32
ATOM     32  C   UNL     1       0.937  16.277  18.578  0.00  0.00    +0.000 C 
ATOM     33  F   UNL     1       1.851  16.677  17.661  0.00  0.00    +0.000 F 
ATOM     34  F   UNL     1      -0.260  16.777  18.158  0.00  0.00    +0.000 F 
ATOM     35  F   UNL     1       1.245  16.986  19.704  0.00  0.00    +0.000 F 
ENDBRANCH   7  32
TORSDOF 5
ENDMDL
