MODEL 1
REMARK VINA RESULT:      -7.2      0.000      0.000
REMARK  Name = 
REMARK  9 active torsions:
REMARK  status: ('A' for Active; 'I' for Inactive)
REMARK    1  A    between atoms: C_1  and  C_2
REMARK    2  A    between atoms: N_4  and  C_5
REMARK    3  A    between atoms: C_8  and  C_9
REMARK    4  A    between atoms: C_9  and  O_10
REMARK    5  A    between atoms: O_10  and  C_11
REMARK    6  A    between atoms: C_11  and  O_12
REMARK    7  A    between atoms: C_11  and  C_13
REMARK    8  A    between atoms: C_13  and  N_14
REMARK    9  A    between atoms: C_21  and  N_22
REMARK                            x       y       z     vdW  Elec       q    Type
REMARK                         _______ _______ _______ _____ _____    ______ ____
ROOT
ATOM      1  C   UNL     1       1.295   8.417  20.134  0.00  0.00    +0.000 A 
ATOM      2  C   UNL     1       1.751   7.126  20.429  0.00  0.00    +0.000 A 
ATOM      3  C   UNL     1       2.611   6.435  19.580  0.00  0.00    +0.000 A 
ATOM      4  C   UNL     1       3.032   7.003  18.381  0.00  0.00    +0.000 A 
ATOM      5  C   UNL     1       2.587   8.293  18.050  0.00  0.00    +0.000 A 
ATOM      6  C   UNL     1       1.718   8.997  18.916  0.00  0.00    +0.000 A 
ENDROOT
BRANCH   1  10
ATOM      7  C   UNL     1      -0.494   9.981  23.085  0.00  0.00    +0.000 C 
ATOM      8  C   UNL     1       0.697   9.467  22.328  0.00  0.00    +0.000 C 
ATOM      9  O   UNL     1       1.804   9.455  22.858  0.00  0.00    +0.000 OA
ATOM     10  N   UNL     1       0.400   9.065  21.035  0.00  0.00    +0.000 N 
ATOM     11  H   UNL     1      -0.489   9.381  20.646  0.00  0.00    +0.000 HD
ENDBRANCH   1  10
BRANCH   6  12
ATOM     12  N   UNL     1       1.305  10.360  18.511  0.00  0.00    +0.000 N 
ATOM     13  O   UNL     1       0.091  10.621  18.514  0.00  0.00    +0.000 OA
ATOM     14  O   UNL     1       2.190  11.157  18.174  0.00  0.00    +0.000 OA
ENDBRANCH   6  12
BRANCH   4  15
ATOM     15  C   UNL     1       3.917   6.206  17.460  0.00  0.00    +0.000 C 
BRANCH  15  16
ATOM     16  O   UNL     1       4.950   5.609  18.226  0.00  0.00    +0.000 OA
BRANCH  16  17
ATOM     17  C   UNL     1       5.012   4.203  18.020  0.00  0.00    +0.000 C 
BRANCH  17  18
ATOM     18  O   UNL     1       6.237   3.829  17.403  0.00  0.00    +0.000 OA
ATOM     19  H   UNL     1       6.887   3.860  18.133  0.00  0.00    +0.000 HD
ENDBRANCH  17  18
BRANCH  17  20
ATOM     20  C   UNL     1       4.864   3.437  19.365  0.00  0.00    +0.000 C 
BRANCH  20  21
ATOM     21  N   UNL     1       3.535   2.789  19.581  0.00  0.00    +0.000 NA
ATOM     22  C   UNL     1       2.928   3.237  20.852  0.00  0.00    +0.000 C 
ATOM     23  C   UNL     1       1.539   2.641  21.076  0.00  0.00    +0.000 C 
ATOM     24  C   UNL     1       0.609   2.965  19.919  0.00  0.00    +0.000 C 
ATOM     25  C   UNL     1       1.249   2.533  18.607  0.00  0.00    +0.000 C 
ATOM     26  C   UNL     1       2.649   3.130  18.449  0.00  0.00    +0.000 C 
ENDBRANCH  20  21
ENDBRANCH  17  20
ENDBRANCH  16  17
ENDBRANCH  15  16
ENDBRANCH   4  15
TORSDOF 8
ENDMDL
MODEL 2
REMARK VINA RESULT:      -6.9      2.274      3.821
REMARK  Name = 
REMARK  9 active torsions:
REMARK  status: ('A' for Active; 'I' for Inactive)
REMARK    1  A    between atoms: C_1  and  C_2
REMARK    2  A    between atoms: N_4  and  C_5
REMARK    3  A    between atoms: C_8  and  C_9
REMARK    4  A    between atoms: C_9  and  O_10
REMARK    5  A    between atoms: O_10  and  C_11
REMARK    6  A    between atoms: C_11  and  O_12
REMARK    7  A    between atoms: C_11  and  C_13
REMARK    8  A    between atoms: C_13  and  N_14
REMARK    9  A    between atoms: C_21  and  N_22
REMARK                            x       y       z     vdW  Elec       q    Type
REMARK                         _______ _______ _______ _____ _____    ______ ____
ROOT
ATOM      1  C   UNL     1       1.860   6.559  20.253  0.00  0.00    +0.000 A 
ATOM      2  C   UNL     1       1.476   5.397  20.935  0.00  0.00    +0.000 A 
ATOM      3  C   UNL     1       1.378   4.164  20.297  0.00  0.00    +0.000 A 
ATOM      4  C   UNL     1       1.638   4.048  18.934  0.00  0.00    +0.000 A 
ATOM      5  C   UNL     1       2.015   5.195  18.218  0.00  0.00    +0.000 A 
ATOM      6  C   UNL     1       2.121   6.446  18.868  0.00  0.00    +0.000 A 
ENDROOT
BRANCH   1  10
ATOM      7  C   UNL     1       1.216   9.867  21.983  0.00  0.00    +0.000 C 
ATOM      8  C   UNL     1       0.839   8.530  21.412  0.00  0.00    +0.000 C 
ATOM      9  O   UNL     1      -0.337   8.176  21.400  0.00  0.00    +0.000 OA
ATOM     10  N   UNL     1       1.923   7.796  20.958  0.00  0.00    +0.000 N 
ATOM     11  H   UNL     1       2.847   8.093  21.274  0.00  0.00    +0.000 HD
ENDBRANCH   1  10
BRANCH   6  12
ATOM     12  N   UNL     1       2.544   7.608  18.052  0.00  0.00    +0.000 N 
ATOM     13  O   UNL     1       3.674   7.573  17.540  0.00  0.00    +0.000 OA
ATOM     14  O   UNL     1       1.755   8.555  17.942  0.00  0.00    +0.000 OA
ENDBRANCH   6  12
BRANCH   4  15
ATOM     15  C   UNL     1       1.468   2.711  18.264  0.00  0.00    +0.000 C 
BRANCH  15  16
ATOM     16  O   UNL     1       2.408   2.610  17.206  0.00  0.00    +0.000 OA
BRANCH  16  17
ATOM     17  C   UNL     1       3.745   2.580  17.693  0.00  0.00    +0.000 C 
BRANCH  17  18
ATOM     18  O   UNL     1       4.205   1.244  17.843  0.00  0.00    +0.000 OA
ATOM     19  H   UNL     1       3.783   0.942  18.672  0.00  0.00    +0.000 HD
ENDBRANCH  17  18
BRANCH  17  20
ATOM     20  C   UNL     1       4.702   3.345  16.736  0.00  0.00    +0.000 C 
BRANCH  20  21
ATOM     21  N   UNL     1       5.324   4.575  17.313  0.00  0.00    +0.000 NA
ATOM     22  C   UNL     1       5.677   4.374  18.734  0.00  0.00    +0.000 C 
ATOM     23  C   UNL     1       6.374   5.592  19.339  0.00  0.00    +0.000 C 
ATOM     24  C   UNL     1       7.616   5.965  18.547  0.00  0.00    +0.000 C 
ATOM     25  C   UNL     1       7.258   6.139  17.079  0.00  0.00    +0.000 C 
ATOM     26  C   UNL     1       6.535   4.906  16.532  0.00  0.00    +0.000 C 
ENDBRANCH  20  21
ENDBRANCH  17  20
ENDBRANCH  16  17
ENDBRANCH  15  16
ENDBRANCH   4  15
TORSDOF 8
ENDMDL
MODEL 3
REMARK VINA RESULT:      -6.9      3.046      5.208
REMARK  Name = 
REMARK  9 active torsions:
REMARK  status: ('A' for Active; 'I' for Inactive)
REMARK    1  A    between atoms: C_1  and  C_2
REMARK    2  A    between atoms: N_4  and  C_5
REMARK    3  A    between atoms: C_8  and  C_9
REMARK    4  A    between atoms: C_9  and  O_10
REMARK    5  A    between atoms: O_10  and  C_11
REMARK    6  A    between atoms: C_11  and  O_12
REMARK    7  A    between atoms: C_11  and  C_13
REMARK    8  A    between atoms: C_13  and  N_14
REMARK    9  A    between atoms: C_21  and  N_22
REMARK                            x       y       z     vdW  Elec       q    Type
REMARK                         _______ _______ _______ _____ _____    ______ ____
ROOT
ATOM      1  C   UNL     1       2.577   5.789  19.732  0.00  0.00    +0.000 A 
ATOM      2  C   UNL     1       3.246   6.334  18.628  0.00  0.00    +0.000 A 
ATOM      3  C   UNL     1       3.797   5.535  17.630  0.00  0.00    +0.000 A 
ATOM      4  C   UNL     1       3.722   4.148  17.710  0.00  0.00    +0.000 A 
ATOM      5  C   UNL     1       3.066   3.568  18.808  0.00  0.00    +0.000 A 
ATOM      6  C   UNL     1       2.501   4.380  19.818  0.00  0.00    +0.000 A 
ENDROOT
BRANCH   1  10
ATOM      7  C   UNL     1       1.270   8.680  21.803  0.00  0.00    +0.000 C 
ATOM      8  C   UNL     1       1.628   7.964  20.531  0.00  0.00    +0.000 C 
ATOM      9  O   UNL     1       1.511   8.535  19.451  0.00  0.00    +0.000 OA
ATOM     10  N   UNL     1       2.051   6.660  20.730  0.00  0.00    +0.000 N 
ATOM     11  H   UNL     1       1.842   6.240  21.636  0.00  0.00    +0.000 HD
ENDBRANCH   1  10
BRANCH   6  12
ATOM     12  N   UNL     1       1.808   3.699  20.936  0.00  0.00    +0.000 N 
ATOM     13  O   UNL     1       0.721   3.149  20.693  0.00  0.00    +0.000 OA
ATOM     14  O   UNL     1       2.341   3.731  22.053  0.00  0.00    +0.000 OA
ENDBRANCH   6  12
BRANCH   4  15
ATOM     15  C   UNL     1       4.377   3.312  16.642  0.00  0.00    +0.000 C 
BRANCH  15  16
ATOM     16  O   UNL     1       4.697   4.149  15.543  0.00  0.00    +0.000 OA
BRANCH  16  17
ATOM     17  C   UNL     1       6.044   3.972  15.121  0.00  0.00    +0.000 C 
BRANCH  17  18
ATOM     18  O   UNL     1       6.104   3.362  13.839  0.00  0.00    +0.000 OA
ATOM     19  H   UNL     1       5.753   2.461  13.991  0.00  0.00    +0.000 HD
ENDBRANCH  17  18
BRANCH  17  20
ATOM     20  C   UNL     1       6.796   5.331  15.075  0.00  0.00    +0.000 C 
BRANCH  20  21
ATOM     21  N   UNL     1       7.583   5.662  16.301  0.00  0.00    +0.000 NA
ATOM     22  C   UNL     1       7.104   6.918  16.916  0.00  0.00    +0.000 C 
ATOM     23  C   UNL     1       7.848   7.254  18.208  0.00  0.00    +0.000 C 
ATOM     24  C   UNL     1       7.747   6.118  19.212  0.00  0.00    +0.000 C 
ATOM     25  C   UNL     1       8.209   4.819  18.568  0.00  0.00    +0.000 C 
ATOM     26  C   UNL     1       7.457   4.547  17.263  0.00  0.00    +0.000 C 
ENDBRANCH  20  21
ENDBRANCH  17  20
ENDBRANCH  16  17
ENDBRANCH  15  16
ENDBRANCH   4  15
TORSDOF 8
ENDMDL
MODEL 4
REMARK VINA RESULT:      -6.9      0.976      1.351
REMARK  Name = 
REMARK  9 active torsions:
REMARK  status: ('A' for Active; 'I' for Inactive)
REMARK    1  A    between atoms: C_1  and  C_2
REMARK    2  A    between atoms: N_4  and  C_5
REMARK    3  A    between atoms: C_8  and  C_9
REMARK    4  A    between atoms: C_9  and  O_10
REMARK    5  A    between atoms: O_10  and  C_11
REMARK    6  A    between atoms: C_11  and  O_12
REMARK    7  A    between atoms: C_11  and  C_13
REMARK    8  A    between atoms: C_13  and  N_14
REMARK    9  A    between atoms: C_21  and  N_22
REMARK                            x       y       z     vdW  Elec       q    Type
REMARK                         _______ _______ _______ _____ _____    ______ ____
ROOT
ATOM      1  C   UNL     1       0.840   9.155  20.159  0.00  0.00    +0.000 A 
ATOM      2  C   UNL     1       1.370   7.889  20.439  0.00  0.00    +0.000 A 
ATOM      3  C   UNL     1       2.264   7.256  19.579  0.00  0.00    +0.000 A 
ATOM      4  C   UNL     1       2.646   7.859  18.385  0.00  0.00    +0.000 A 
ATOM      5  C   UNL     1       2.127   9.125  18.068  0.00  0.00    +0.000 A 
ATOM      6  C   UNL     1       1.224   9.770  18.945  0.00  0.00    +0.000 A 
ENDROOT
BRANCH   1  10
ATOM      7  C   UNL     1      -1.124  10.391  23.154  0.00  0.00    +0.000 C 
ATOM      8  C   UNL     1       0.092   9.873  22.438  0.00  0.00    +0.000 C 
ATOM      9  O   UNL     1       1.118   9.631  23.066  0.00  0.00    +0.000 OA
ATOM     10  N   UNL     1      -0.086   9.742  21.070  0.00  0.00    +0.000 N 
ATOM     11  H   UNL     1      -0.883  10.228  20.659  0.00  0.00    +0.000 HD
ENDBRANCH   1  10
BRANCH   6  12
ATOM     12  N   UNL     1       0.732  11.111  18.555  0.00  0.00    +0.000 N 
ATOM     13  O   UNL     1      -0.486  11.244  18.353  0.00  0.00    +0.000 OA
ATOM     14  O   UNL     1       1.564  12.020  18.435  0.00  0.00    +0.000 OA
ENDBRANCH   6  12
BRANCH   4  15
ATOM     15  C   UNL     1       3.571   7.123  17.451  0.00  0.00    +0.000 C 
BRANCH  15  16
ATOM     16  O   UNL     1       4.167   6.047  18.157  0.00  0.00    +0.000 OA
BRANCH  16  17
ATOM     17  C   UNL     1       4.377   4.919  17.317  0.00  0.00    +0.000 C 
BRANCH  17  18
ATOM     18  O   UNL     1       5.752   4.773  16.989  0.00  0.00    +0.000 OA
ATOM     19  H   UNL     1       6.053   4.038  17.559  0.00  0.00    +0.000 HD
ENDBRANCH  17  18
BRANCH  17  20
ATOM     20  C   UNL     1       3.874   3.616  18.000  0.00  0.00    +0.000 C 
BRANCH  20  21
ATOM     21  N   UNL     1       3.033   3.823  19.218  0.00  0.00    +0.000 NA
ATOM     22  C   UNL     1       1.596   3.698  18.896  0.00  0.00    +0.000 C 
ATOM     23  C   UNL     1       0.708   3.841  20.131  0.00  0.00    +0.000 C 
ATOM     24  C   UNL     1       1.086   2.831  21.201  0.00  0.00    +0.000 C 
ATOM     25  C   UNL     1       2.573   2.937  21.508  0.00  0.00    +0.000 C 
ATOM     26  C   UNL     1       3.414   2.820  20.234  0.00  0.00    +0.000 C 
ENDBRANCH  20  21
ENDBRANCH  17  20
ENDBRANCH  16  17
ENDBRANCH  15  16
ENDBRANCH   4  15
TORSDOF 8
ENDMDL
MODEL 5
REMARK VINA RESULT:      -6.8      3.611      5.919
REMARK  Name = 
REMARK  9 active torsions:
REMARK  status: ('A' for Active; 'I' for Inactive)
REMARK    1  A    between atoms: C_1  and  C_2
REMARK    2  A    between atoms: N_4  and  C_5
REMARK    3  A    between atoms: C_8  and  C_9
REMARK    4  A    between atoms: C_9  and  O_10
REMARK    5  A    between atoms: O_10  and  C_11
REMARK    6  A    between atoms: C_11  and  O_12
REMARK    7  A    between atoms: C_11  and  C_13
REMARK    8  A    between atoms: C_13  and  N_14
REMARK    9  A    between atoms: C_21  and  N_22
REMARK                            x       y       z     vdW  Elec       q    Type
REMARK                         _______ _______ _______ _____ _____    ______ ____
ROOT
ATOM      1  C   UNL     1       5.719   5.341  17.634  0.00  0.00    +0.000 A 
ATOM      2  C   UNL     1       5.493   4.810  18.911  0.00  0.00    +0.000 A 
ATOM      3  C   UNL     1       4.810   3.612  19.102  0.00  0.00    +0.000 A 
ATOM      4  C   UNL     1       4.299   2.906  18.016  0.00  0.00    +0.000 A 
ATOM      5  C   UNL     1       4.500   3.415  16.723  0.00  0.00    +0.000 A 
ATOM      6  C   UNL     1       5.200   4.628  16.529  0.00  0.00    +0.000 A 
ENDROOT
BRANCH   1  10
ATOM      7  C   UNL     1       7.980   8.365  17.944  0.00  0.00    +0.000 C 
ATOM      8  C   UNL     1       7.577   6.935  18.164  0.00  0.00    +0.000 C 
ATOM      9  O   UNL     1       8.275   6.198  18.854  0.00  0.00    +0.000 OA
ATOM     10  N   UNL     1       6.409   6.582  17.506  0.00  0.00    +0.000 N 
ATOM     11  H   UNL     1       6.091   7.205  16.764  0.00  0.00    +0.000 HD
ENDBRANCH   1  10
BRANCH   6  12
ATOM     12  N   UNL     1       5.390   5.094  15.136  0.00  0.00    +0.000 N 
ATOM     13  O   UNL     1       5.525   4.232  14.252  0.00  0.00    +0.000 OA
ATOM     14  O   UNL     1       5.423   6.314  14.933  0.00  0.00    +0.000 OA
ENDBRANCH   6  12
BRANCH   4  15
ATOM     15  C   UNL     1       3.517   1.643  18.261  0.00  0.00    +0.000 C 
BRANCH  15  16
ATOM     16  O   UNL     1       2.575   1.886  19.294  0.00  0.00    +0.000 OA
BRANCH  16  17
ATOM     17  C   UNL     1       1.450   2.615  18.819  0.00  0.00    +0.000 C 
BRANCH  17  18
ATOM     18  O   UNL     1       0.390   1.742  18.453  0.00  0.00    +0.000 OA
ATOM     19  H   UNL     1       0.350   1.818  17.479  0.00  0.00    +0.000 HD
ENDBRANCH  17  18
BRANCH  17  20
ATOM     20  C   UNL     1       0.939   3.613  19.897  0.00  0.00    +0.000 C 
BRANCH  20  21
ATOM     21  N   UNL     1       1.097   5.058  19.548  0.00  0.00    +0.000 NA
ATOM     22  C   UNL     1       1.880   5.768  20.581  0.00  0.00    +0.000 C 
ATOM     23  C   UNL     1       2.114   7.236  20.226  0.00  0.00    +0.000 C 
ATOM     24  C   UNL     1       2.798   7.373  18.876  0.00  0.00    +0.000 C 
ATOM     25  C   UNL     1       2.010   6.613  17.820  0.00  0.00    +0.000 C 
ATOM     26  C   UNL     1       1.775   5.160  18.239  0.00  0.00    +0.000 C 
ENDBRANCH  20  21
ENDBRANCH  17  20
ENDBRANCH  16  17
ENDBRANCH  15  16
ENDBRANCH   4  15
TORSDOF 8
ENDMDL
MODEL 6
REMARK VINA RESULT:      -6.8      3.427      5.910
REMARK  Name = 
REMARK  9 active torsions:
REMARK  status: ('A' for Active; 'I' for Inactive)
REMARK    1  A    between atoms: C_1  and  C_2
REMARK    2  A    between atoms: N_4  and  C_5
REMARK    3  A    between atoms: C_8  and  C_9
REMARK    4  A    between atoms: C_9  and  O_10
REMARK    5  A    between atoms: O_10  and  C_11
REMARK    6  A    between atoms: C_11  and  O_12
REMARK    7  A    between atoms: C_11  and  C_13
REMARK    8  A    between atoms: C_13  and  N_14
REMARK    9  A    between atoms: C_21  and  N_22
REMARK                            x       y       z     vdW  Elec       q    Type
REMARK                         _______ _______ _______ _____ _____    ______ ____
ROOT
ATOM      1  C   UNL     1       5.633   5.637  17.954  0.00  0.00    +0.000 A 
ATOM      2  C   UNL     1       5.447   4.917  19.141  0.00  0.00    +0.000 A 
ATOM      3  C   UNL     1       4.809   3.680  19.163  0.00  0.00    +0.000 A 
ATOM      4  C   UNL     1       4.305   3.122  17.992  0.00  0.00    +0.000 A 
ATOM      5  C   UNL     1       4.466   3.820  16.785  0.00  0.00    +0.000 A 
ATOM      6  C   UNL     1       5.120   5.074  16.762  0.00  0.00    +0.000 A 
ENDROOT
BRANCH   1  10
ATOM      7  C   UNL     1       7.968   8.611  17.708  0.00  0.00    +0.000 C 
ATOM      8  C   UNL     1       7.450   7.248  17.342  0.00  0.00    +0.000 C 
ATOM      9  O   UNL     1       8.047   6.565  16.516  0.00  0.00    +0.000 OA
ATOM     10  N   UNL     1       6.278   6.907  17.999  0.00  0.00    +0.000 N 
ATOM     11  H   UNL     1       5.759   7.665  18.442  0.00  0.00    +0.000 HD
ENDBRANCH   1  10
BRANCH   6  12
ATOM     12  N   UNL     1       5.271   5.744  15.450  0.00  0.00    +0.000 N 
ATOM     13  O   UNL     1       5.769   5.088  14.520  0.00  0.00    +0.000 OA
ATOM     14  O   UNL     1       4.910   6.924  15.358  0.00  0.00    +0.000 OA
ENDBRANCH   6  12
BRANCH   4  15
ATOM     15  C   UNL     1       3.570   1.809  18.059  0.00  0.00    +0.000 C 
BRANCH  15  16
ATOM     16  O   UNL     1       2.575   1.897  19.067  0.00  0.00    +0.000 OA
BRANCH  16  17
ATOM     17  C   UNL     1       1.475   2.698  18.651  0.00  0.00    +0.000 C 
BRANCH  17  18
ATOM     18  O   UNL     1       0.331   1.899  18.384  0.00  0.00    +0.000 OA
ATOM     19  H   UNL     1       0.696   1.001  18.257  0.00  0.00    +0.000 HD
ENDBRANCH  17  18
BRANCH  17  20
ATOM     20  C   UNL     1       1.119   3.756  19.732  0.00  0.00    +0.000 C 
BRANCH  20  21
ATOM     21  N   UNL     1       1.865   5.046  19.627  0.00  0.00    +0.000 NA
ATOM     22  C   UNL     1       1.739   5.623  18.272  0.00  0.00    +0.000 C 
ATOM     23  C   UNL     1       2.439   6.975  18.148  0.00  0.00    +0.000 C 
ATOM     24  C   UNL     1       1.918   7.962  19.178  0.00  0.00    +0.000 C 
ATOM     25  C   UNL     1       2.017   7.355  20.570  0.00  0.00    +0.000 C 
ATOM     26  C   UNL     1       1.329   5.989  20.631  0.00  0.00    +0.000 C 
ENDBRANCH  20  21
ENDBRANCH  17  20
ENDBRANCH  16  17
ENDBRANCH  15  16
ENDBRANCH   4  15
TORSDOF 8
ENDMDL
MODEL 7
REMARK VINA RESULT:      -6.8      3.429      7.287
REMARK  Name = 
REMARK  9 active torsions:
REMARK  status: ('A' for Active; 'I' for Inactive)
REMARK    1  A    between atoms: C_1  and  C_2
REMARK    2  A    between atoms: N_4  and  C_5
REMARK    3  A    between atoms: C_8  and  C_9
REMARK    4  A    between atoms: C_9  and  O_10
REMARK    5  A    between atoms: O_10  and  C_11
REMARK    6  A    between atoms: C_11  and  O_12
REMARK    7  A    between atoms: C_11  and  C_13
REMARK    8  A    between atoms: C_13  and  N_14
REMARK    9  A    between atoms: C_21  and  N_22
REMARK                            x       y       z     vdW  Elec       q    Type
REMARK                         _______ _______ _______ _____ _____    ______ ____
ROOT
ATOM      1  C   UNL     1       2.241   6.394  20.097  0.00  0.00    +0.000 A 
ATOM      2  C   UNL     1       1.565   7.395  20.806  0.00  0.00    +0.000 A 
ATOM      3  C   UNL     1       1.274   8.634  20.240  0.00  0.00    +0.000 A 
ATOM      4  C   UNL     1       1.673   8.930  18.941  0.00  0.00    +0.000 A 
ATOM      5  C   UNL     1       2.360   7.953  18.204  0.00  0.00    +0.000 A 
ATOM      6  C   UNL     1       2.650   6.693  18.777  0.00  0.00    +0.000 A 
ENDROOT
BRANCH   1  10
ATOM      7  C   UNL     1       2.197   2.949  21.673  0.00  0.00    +0.000 C 
ATOM      8  C   UNL     1       1.684   4.054  20.795  0.00  0.00    +0.000 C 
ATOM      9  O   UNL     1       0.621   3.919  20.195  0.00  0.00    +0.000 OA
ATOM     10  N   UNL     1       2.526   5.154  20.738  0.00  0.00    +0.000 N 
ATOM     11  H   UNL     1       3.484   5.019  21.063  0.00  0.00    +0.000 HD
ENDBRANCH   1  10
BRANCH   6  12
ATOM     12  N   UNL     1       3.361   5.704  17.933  0.00  0.00    +0.000 N 
ATOM     13  O   UNL     1       4.521   5.973  17.582  0.00  0.00    +0.000 OA
ATOM     14  O   UNL     1       2.753   4.676  17.610  0.00  0.00    +0.000 OA
ENDBRANCH   6  12
BRANCH   4  15
ATOM     15  C   UNL     1       1.391  10.299  18.378  0.00  0.00    +0.000 C 
BRANCH  15  16
ATOM     16  O   UNL     1       1.076  11.174  19.449  0.00  0.00    +0.000 OA
BRANCH  16  17
ATOM     17  C   UNL     1      -0.064  11.972  19.158  0.00  0.00    +0.000 C 
BRANCH  17  18
ATOM     18  O   UNL     1       0.126  12.721  17.964  0.00  0.00    +0.000 OA
ATOM     19  H   UNL     1       1.096  12.831  17.908  0.00  0.00    +0.000 HD
ENDBRANCH  17  18
BRANCH  17  20
ATOM     20  C   UNL     1      -1.337  11.092  19.011  0.00  0.00    +0.000 C 
BRANCH  20  21
ATOM     21  N   UNL     1      -2.066  11.242  17.716  0.00  0.00    +0.000 NA
ATOM     22  C   UNL     1      -1.913  10.034  16.879  0.00  0.00    +0.000 C 
ATOM     23  C   UNL     1      -2.699  10.129  15.572  0.00  0.00    +0.000 C 
ATOM     24  C   UNL     1      -4.172  10.391  15.833  0.00  0.00    +0.000 C 
ATOM     25  C   UNL     1      -4.327  11.616  16.723  0.00  0.00    +0.000 C 
ATOM     26  C   UNL     1      -3.496  11.484  18.001  0.00  0.00    +0.000 C 
ENDBRANCH  20  21
ENDBRANCH  17  20
ENDBRANCH  16  17
ENDBRANCH  15  16
ENDBRANCH   4  15
TORSDOF 8
ENDMDL
MODEL 8
REMARK VINA RESULT:      -6.7      4.118      7.644
REMARK  Name = 
REMARK  9 active torsions:
REMARK  status: ('A' for Active; 'I' for Inactive)
REMARK    1  A    between atoms: C_1  and  C_2
REMARK    2  A    between atoms: N_4  and  C_5
REMARK    3  A    between atoms: C_8  and  C_9
REMARK    4  A    between atoms: C_9  and  O_10
REMARK    5  A    between atoms: O_10  and  C_11
REMARK    6  A    between atoms: C_11  and  O_12
REMARK    7  A    between atoms: C_11  and  C_13
REMARK    8  A    between atoms: C_13  and  N_14
REMARK    9  A    between atoms: C_21  and  N_22
REMARK                            x       y       z     vdW  Elec       q    Type
REMARK                         _______ _______ _______ _____ _____    ______ ____
ROOT
ATOM      1  C   UNL     1       6.254   3.857  14.075  0.00  0.00    +0.000 A 
ATOM      2  C   UNL     1       5.361   3.565  15.114  0.00  0.00    +0.000 A 
ATOM      3  C   UNL     1       5.185   4.420  16.199  0.00  0.00    +0.000 A 
ATOM      4  C   UNL     1       5.921   5.597  16.300  0.00  0.00    +0.000 A 
ATOM      5  C   UNL     1       6.832   5.916  15.281  0.00  0.00    +0.000 A 
ATOM      6  C   UNL     1       7.005   5.051  14.176  0.00  0.00    +0.000 A 
ENDROOT
BRANCH   1  10
ATOM      7  C   UNL     1       5.852   1.565  11.085  0.00  0.00    +0.000 C 
ATOM      8  C   UNL     1       5.486   2.711  11.985  0.00  0.00    +0.000 C 
ATOM      9  O   UNL     1       4.468   3.362  11.768  0.00  0.00    +0.000 OA
ATOM     10  N   UNL     1       6.403   2.932  13.001  0.00  0.00    +0.000 N 
ATOM     11  H   UNL     1       7.320   2.497  12.898  0.00  0.00    +0.000 HD
ENDBRANCH   1  10
BRANCH   6  12
ATOM     12  N   UNL     1       7.969   5.461  13.129  0.00  0.00    +0.000 N 
ATOM     13  O   UNL     1       8.990   6.069  13.490  0.00  0.00    +0.000 OA
ATOM     14  O   UNL     1       7.695   5.193  11.952  0.00  0.00    +0.000 OA
ENDBRANCH   6  12
BRANCH   4  15
ATOM     15  C   UNL     1       5.748   6.471  17.514  0.00  0.00    +0.000 C 
BRANCH  15  16
ATOM     16  O   UNL     1       4.609   6.027  18.235  0.00  0.00    +0.000 OA
BRANCH  16  17
ATOM     17  C   UNL     1       3.685   7.084  18.461  0.00  0.00    +0.000 C 
BRANCH  17  18
ATOM     18  O   UNL     1       3.355   7.746  17.247  0.00  0.00    +0.000 OA
ATOM     19  H   UNL     1       3.618   7.108  16.553  0.00  0.00    +0.000 HD
ENDBRANCH  17  18
BRANCH  17  20
ATOM     20  C   UNL     1       2.382   6.552  19.122  0.00  0.00    +0.000 C 
BRANCH  20  21
ATOM     21  N   UNL     1       2.325   5.070  19.306  0.00  0.00    +0.000 NA
ATOM     22  C   UNL     1       1.483   4.713  20.467  0.00  0.00    +0.000 C 
ATOM     23  C   UNL     1       1.351   3.201  20.647  0.00  0.00    +0.000 C 
ATOM     24  C   UNL     1       0.805   2.543  19.392  0.00  0.00    +0.000 C 
ATOM     25  C   UNL     1       1.653   2.938  18.191  0.00  0.00    +0.000 C 
ATOM     26  C   UNL     1       1.779   4.458  18.076  0.00  0.00    +0.000 C 
ENDBRANCH  20  21
ENDBRANCH  17  20
ENDBRANCH  16  17
ENDBRANCH  15  16
ENDBRANCH   4  15
TORSDOF 8
ENDMDL
MODEL 9
REMARK VINA RESULT:      -6.6      3.608      5.891
REMARK  Name = 
REMARK  9 active torsions:
REMARK  status: ('A' for Active; 'I' for Inactive)
REMARK    1  A    between atoms: C_1  and  C_2
REMARK    2  A    between atoms: N_4  and  C_5
REMARK    3  A    between atoms: C_8  and  C_9
REMARK    4  A    between atoms: C_9  and  O_10
REMARK    5  A    between atoms: O_10  and  C_11
REMARK    6  A    between atoms: C_11  and  O_12
REMARK    7  A    between atoms: C_11  and  C_13
REMARK    8  A    between atoms: C_13  and  N_14
REMARK    9  A    between atoms: C_21  and  N_22
REMARK                            x       y       z     vdW  Elec       q    Type
REMARK                         _______ _______ _______ _____ _____    ______ ____
ROOT
ATOM      1  C   UNL     1       5.833   5.577  17.665  0.00  0.00    +0.000 A 
ATOM      2  C   UNL     1       5.687   5.052  18.955  0.00  0.00    +0.000 A 
ATOM      3  C   UNL     1       5.048   3.838  19.191  0.00  0.00    +0.000 A 
ATOM      4  C   UNL     1       4.503   3.108  18.139  0.00  0.00    +0.000 A 
ATOM      5  C   UNL     1       4.623   3.609  16.833  0.00  0.00    +0.000 A 
ATOM      6  C   UNL     1       5.278   4.839  16.594  0.00  0.00    +0.000 A 
ENDROOT
BRANCH   1  10
ATOM      7  C   UNL     1       8.001   8.678  17.854  0.00  0.00    +0.000 C 
ATOM      8  C   UNL     1       7.647   7.242  18.119  0.00  0.00    +0.000 C 
ATOM      9  O   UNL     1       8.380   6.547  18.817  0.00  0.00    +0.000 OA
ATOM     10  N   UNL     1       6.481   6.834  17.491  0.00  0.00    +0.000 N 
ATOM     11  H   UNL     1       6.130   7.427  16.738  0.00  0.00    +0.000 HD
ENDBRANCH   1  10
BRANCH   6  12
ATOM     12  N   UNL     1       5.384   5.296  15.189  0.00  0.00    +0.000 N 
ATOM     13  O   UNL     1       5.274   6.513  14.967  0.00  0.00    +0.000 OA
ATOM     14  O   UNL     1       5.557   4.439  14.313  0.00  0.00    +0.000 OA
ENDBRANCH   6  12
BRANCH   4  15
ATOM     15  C   UNL     1       3.769   1.826  18.434  0.00  0.00    +0.000 C 
BRANCH  15  16
ATOM     16  O   UNL     1       2.444   1.938  17.940  0.00  0.00    +0.000 OA
BRANCH  16  17
ATOM     17  C   UNL     1       1.502   2.107  18.993  0.00  0.00    +0.000 C 
BRANCH  17  18
ATOM     18  O   UNL     1       2.125   1.974  20.264  0.00  0.00    +0.000 OA
ATOM     19  H   UNL     1       2.830   1.314  20.111  0.00  0.00    +0.000 HD
ENDBRANCH  17  18
BRANCH  17  20
ATOM     20  C   UNL     1       0.815   3.499  18.905  0.00  0.00    +0.000 C 
BRANCH  20  21
ATOM     21  N   UNL     1       1.709   4.666  19.172  0.00  0.00    +0.000 NA
ATOM     22  C   UNL     1       1.734   5.589  18.017  0.00  0.00    +0.000 C 
ATOM     23  C   UNL     1       2.591   6.826  18.281  0.00  0.00    +0.000 C 
ATOM     24  C   UNL     1       2.122   7.566  19.522  0.00  0.00    +0.000 C 
ATOM     25  C   UNL     1       2.065   6.608  20.702  0.00  0.00    +0.000 C 
ATOM     26  C   UNL     1       1.223   5.372  20.375  0.00  0.00    +0.000 C 
ENDBRANCH  20  21
ENDBRANCH  17  20
ENDBRANCH  16  17
ENDBRANCH  15  16
ENDBRANCH   4  15
TORSDOF 8
ENDMDL
