MODEL 1
REMARK VINA RESULT:      -5.7      0.000      0.000
REMARK  Name = 
REMARK  5 active torsions:
REMARK  status: ('A' for Active; 'I' for Inactive)
REMARK    1  A    between atoms: C_2  and  C_3
REMARK    2  A    between atoms: C_3  and  C_4
REMARK    3  A    between atoms: C_4  and  C_5
REMARK    4  A    between atoms: C_10  and  C_11
REMARK    5  A    between atoms: C_11  and  O_13
REMARK                            x       y       z     vdW  Elec       q    Type
REMARK                         _______ _______ _______ _____ _____    ______ ____
ROOT
ATOM      1  C   UNL     1       5.097   5.736  16.907  0.00  0.00    +0.000 C 
ATOM      2  C   UNL     1       5.178   5.958  15.383  0.00  0.00    +0.000 C 
ATOM      3  C   UNL     1       6.140   4.996  14.695  0.00  0.00    +0.000 C 
ATOM      4  N   UNL     1       7.477   5.108  15.270  0.00  0.00    +0.000 NA
ATOM      5  C   UNL     1       7.445   4.705  16.677  0.00  0.00    +0.000 C 
ATOM      6  C   UNL     1       6.511   5.578  17.530  0.00  0.00    +0.000 C 
ATOM      7  H   UNL     1       7.807   6.069  15.183  0.00  0.00    +0.000 HD
ENDROOT
BRANCH   6   8
ATOM      8  C   UNL     1       6.421   4.906  18.893  0.00  0.00    +0.000 C 
ATOM      9  O   UNL     1       6.841   5.402  19.928  0.00  0.00    +0.000 OA
BRANCH   8  10
ATOM     10  O   UNL     1       5.815   3.705  18.874  0.00  0.00    +0.000 OA
ATOM     11  H   UNL     1       6.339   2.966  19.238  0.00  0.00    +0.000 HD
ENDBRANCH   8  10
ENDBRANCH   6   8
BRANCH   1  12
ATOM     12  C   UNL     1       4.313   6.891  17.585  0.00  0.00    +0.000 C 
BRANCH  12  13
ATOM     13  C   UNL     1       2.869   6.508  17.939  0.00  0.00    +0.000 C 
BRANCH  13  15
ATOM     14  C   UNL     1       1.649   4.327  17.720  0.00  0.00    +0.000 C 
ATOM     15  C   UNL     1       2.699   5.032  18.160  0.00  0.00    +0.000 C 
ENDBRANCH  13  15
ENDBRANCH  12  13
ENDBRANCH   1  12
TORSDOF 5
ENDMDL
MODEL 2
REMARK VINA RESULT:      -5.5      2.492      4.332
REMARK  Name = 
REMARK  5 active torsions:
REMARK  status: ('A' for Active; 'I' for Inactive)
REMARK    1  A    between atoms: C_2  and  C_3
REMARK    2  A    between atoms: C_3  and  C_4
REMARK    3  A    between atoms: C_4  and  C_5
REMARK    4  A    between atoms: C_10  and  C_11
REMARK    5  A    between atoms: C_11  and  O_13
REMARK                            x       y       z     vdW  Elec       q    Type
REMARK                         _______ _______ _______ _____ _____    ______ ____
ROOT
ATOM      1  C   UNL     1       5.837   3.945  16.153  0.00  0.00    +0.000 C 
ATOM      2  C   UNL     1       7.150   4.717  16.397  0.00  0.00    +0.000 C 
ATOM      3  C   UNL     1       7.587   4.693  17.857  0.00  0.00    +0.000 C 
ATOM      4  N   UNL     1       6.540   5.241  18.715  0.00  0.00    +0.000 NA
ATOM      5  C   UNL     1       5.348   4.395  18.641  0.00  0.00    +0.000 C 
ATOM      6  C   UNL     1       4.767   4.302  17.221  0.00  0.00    +0.000 C 
ATOM      7  H   UNL     1       6.320   6.192  18.421  0.00  0.00    +0.000 HD
ENDROOT
BRANCH   6   8
ATOM      8  C   UNL     1       3.685   3.232  17.269  0.00  0.00    +0.000 C 
ATOM      9  O   UNL     1       2.529   3.414  16.918  0.00  0.00    +0.000 OA
BRANCH   8  10
ATOM     10  O   UNL     1       4.112   2.039  17.722  0.00  0.00    +0.000 OA
ATOM     11  H   UNL     1       4.054   1.914  18.689  0.00  0.00    +0.000 HD
ENDBRANCH   8  10
ENDBRANCH   6   8
BRANCH   1  12
ATOM     12  C   UNL     1       5.307   4.213  14.719  0.00  0.00    +0.000 C 
BRANCH  12  13
ATOM     13  C   UNL     1       6.410   4.157  13.653  0.00  0.00    +0.000 C 
BRANCH  13  15
ATOM     14  C   UNL     1       4.775   3.389  11.913  0.00  0.00    +0.000 C 
ATOM     15  C   UNL     1       6.005   3.366  12.442  0.00  0.00    +0.000 C 
ENDBRANCH  13  15
ENDBRANCH  12  13
ENDBRANCH   1  12
TORSDOF 5
ENDMDL
MODEL 3
REMARK VINA RESULT:      -5.5      0.887      1.478
REMARK  Name = 
REMARK  5 active torsions:
REMARK  status: ('A' for Active; 'I' for Inactive)
REMARK    1  A    between atoms: C_2  and  C_3
REMARK    2  A    between atoms: C_3  and  C_4
REMARK    3  A    between atoms: C_4  and  C_5
REMARK    4  A    between atoms: C_10  and  C_11
REMARK    5  A    between atoms: C_11  and  O_13
REMARK                            x       y       z     vdW  Elec       q    Type
REMARK                         _______ _______ _______ _____ _____    ______ ____
ROOT
ATOM      1  C   UNL     1       5.155   5.706  16.830  0.00  0.00    +0.000 C 
ATOM      2  C   UNL     1       5.293   5.846  15.300  0.00  0.00    +0.000 C 
ATOM      3  C   UNL     1       6.212   4.793  14.690  0.00  0.00    +0.000 C 
ATOM      4  N   UNL     1       7.537   4.851  15.301  0.00  0.00    +0.000 NA
ATOM      5  C   UNL     1       7.439   4.523  16.724  0.00  0.00    +0.000 C 
ATOM      6  C   UNL     1       6.538   5.493  17.503  0.00  0.00    +0.000 C 
ATOM      7  H   UNL     1       7.929   5.785  15.178  0.00  0.00    +0.000 HD
ENDROOT
BRANCH   6   8
ATOM      8  C   UNL     1       6.367   4.898  18.894  0.00  0.00    +0.000 C 
ATOM      9  O   UNL     1       6.803   5.410  19.914  0.00  0.00    +0.000 OA
BRANCH   8  10
ATOM     10  O   UNL     1       5.670   3.747  18.917  0.00  0.00    +0.000 OA
ATOM     11  H   UNL     1       5.325   3.484  19.792  0.00  0.00    +0.000 HD
ENDBRANCH   8  10
ENDBRANCH   6   8
BRANCH   1  12
ATOM     12  C   UNL     1       4.426   6.940  17.426  0.00  0.00    +0.000 C 
BRANCH  12  13
ATOM     13  C   UNL     1       3.097   6.580  18.105  0.00  0.00    +0.000 C 
BRANCH  13  15
ATOM     14  C   UNL     1       1.978   8.802  17.787  0.00  0.00    +0.000 C 
ATOM     15  C   UNL     1       2.346   7.790  18.583  0.00  0.00    +0.000 C 
ENDBRANCH  13  15
ENDBRANCH  12  13
ENDBRANCH   1  12
TORSDOF 5
ENDMDL
MODEL 4
REMARK VINA RESULT:      -5.5      1.222      1.526
REMARK  Name = 
REMARK  5 active torsions:
REMARK  status: ('A' for Active; 'I' for Inactive)
REMARK    1  A    between atoms: C_2  and  C_3
REMARK    2  A    between atoms: C_3  and  C_4
REMARK    3  A    between atoms: C_4  and  C_5
REMARK    4  A    between atoms: C_10  and  C_11
REMARK    5  A    between atoms: C_11  and  O_13
REMARK                            x       y       z     vdW  Elec       q    Type
REMARK                         _______ _______ _______ _____ _____    ______ ____
ROOT
ATOM      1  C   UNL     1       4.949   4.241  16.795  0.00  0.00    +0.000 C 
ATOM      2  C   UNL     1       5.119   4.368  15.267  0.00  0.00    +0.000 C 
ATOM      3  C   UNL     1       6.576   4.291  14.825  0.00  0.00    +0.000 C 
ATOM      4  N   UNL     1       7.368   5.325  15.485  0.00  0.00    +0.000 NA
ATOM      5  C   UNL     1       7.375   5.095  16.930  0.00  0.00    +0.000 C 
ATOM      6  C   UNL     1       5.969   5.135  17.551  0.00  0.00    +0.000 C 
ATOM      7  H   UNL     1       6.975   6.243  15.274  0.00  0.00    +0.000 HD
ENDROOT
BRANCH   6   8
ATOM      8  C   UNL     1       6.122   4.667  18.992  0.00  0.00    +0.000 C 
ATOM      9  O   UNL     1       6.624   5.341  19.879  0.00  0.00    +0.000 OA
BRANCH   8  10
ATOM     10  O   UNL     1       5.637   3.433  19.223  0.00  0.00    +0.000 OA
ATOM     11  H   UNL     1       5.217   2.998  18.456  0.00  0.00    +0.000 HD
ENDBRANCH   8  10
ENDBRANCH   6   8
BRANCH   1  12
ATOM     12  C   UNL     1       3.493   4.579  17.211  0.00  0.00    +0.000 C 
BRANCH  12  13
ATOM     13  C   UNL     1       2.581   3.343  17.258  0.00  0.00    +0.000 C 
BRANCH  13  15
ATOM     14  C   UNL     1       1.638   4.216  19.412  0.00  0.00    +0.000 C 
ATOM     15  C   UNL     1       1.528   3.442  18.325  0.00  0.00    +0.000 C 
ENDBRANCH  13  15
ENDBRANCH  12  13
ENDBRANCH   1  12
TORSDOF 5
ENDMDL
MODEL 5
REMARK VINA RESULT:      -5.5      2.425      3.330
REMARK  Name = 
REMARK  5 active torsions:
REMARK  status: ('A' for Active; 'I' for Inactive)
REMARK    1  A    between atoms: C_2  and  C_3
REMARK    2  A    between atoms: C_3  and  C_4
REMARK    3  A    between atoms: C_4  and  C_5
REMARK    4  A    between atoms: C_10  and  C_11
REMARK    5  A    between atoms: C_11  and  O_13
REMARK                            x       y       z     vdW  Elec       q    Type
REMARK                         _______ _______ _______ _____ _____    ______ ____
ROOT
ATOM      1  C   UNL     1       3.514   4.981  18.385  0.00  0.00    +0.000 C 
ATOM      2  C   UNL     1       4.264   6.281  18.031  0.00  0.00    +0.000 C 
ATOM      3  C   UNL     1       4.763   6.305  16.591  0.00  0.00    +0.000 C 
ATOM      4  N   UNL     1       5.633   5.161  16.331  0.00  0.00    +0.000 NA
ATOM      5  C   UNL     1       4.872   3.920  16.471  0.00  0.00    +0.000 C 
ATOM      6  C   UNL     1       4.285   3.731  17.879  0.00  0.00    +0.000 C 
ATOM      7  H   UNL     1       6.417   5.173  16.983  0.00  0.00    +0.000 HD
ENDROOT
BRANCH   6   8
ATOM      8  C   UNL     1       3.356   2.528  17.800  0.00  0.00    +0.000 C 
ATOM      9  O   UNL     1       2.219   2.571  17.356  0.00  0.00    +0.000 OA
BRANCH   8  10
ATOM     10  O   UNL     1       3.901   1.383  18.253  0.00  0.00    +0.000 OA
ATOM     11  H   UNL     1       3.271   0.743  18.637  0.00  0.00    +0.000 HD
ENDBRANCH   8  10
ENDBRANCH   6   8
BRANCH   1  12
ATOM     12  C   UNL     1       3.256   4.898  19.913  0.00  0.00    +0.000 C 
BRANCH  12  13
ATOM     13  C   UNL     1       1.792   5.171  20.288  0.00  0.00    +0.000 C 
BRANCH  13  15
ATOM     14  C   UNL     1       1.378   2.825  21.071  0.00  0.00    +0.000 C 
ATOM     15  C   UNL     1       0.979   3.913  20.399  0.00  0.00    +0.000 C 
ENDBRANCH  13  15
ENDBRANCH  12  13
ENDBRANCH   1  12
TORSDOF 5
ENDMDL
MODEL 6
REMARK VINA RESULT:      -5.4      2.466      4.202
REMARK  Name = 
REMARK  5 active torsions:
REMARK  status: ('A' for Active; 'I' for Inactive)
REMARK    1  A    between atoms: C_2  and  C_3
REMARK    2  A    between atoms: C_3  and  C_4
REMARK    3  A    between atoms: C_4  and  C_5
REMARK    4  A    between atoms: C_10  and  C_11
REMARK    5  A    between atoms: C_11  and  O_13
REMARK                            x       y       z     vdW  Elec       q    Type
REMARK                         _______ _______ _______ _____ _____    ______ ____
ROOT
ATOM      1  C   UNL     1       5.932   5.162  16.583  0.00  0.00    +0.000 C 
ATOM      2  C   UNL     1       5.002   3.951  16.804  0.00  0.00    +0.000 C 
ATOM      3  C   UNL     1       4.411   3.908  18.208  0.00  0.00    +0.000 C 
ATOM      4  N   UNL     1       5.472   3.889  19.211  0.00  0.00    +0.000 NA
ATOM      5  C   UNL     1       6.242   5.132  19.139  0.00  0.00    +0.000 C 
ATOM      6  C   UNL     1       6.913   5.343  17.773  0.00  0.00    +0.000 C 
ATOM      7  H   UNL     1       6.079   3.086  19.052  0.00  0.00    +0.000 HD
ENDROOT
BRANCH   6   8
ATOM      8  C   UNL     1       7.480   6.756  17.786  0.00  0.00    +0.000 C 
ATOM      9  O   UNL     1       7.185   7.618  16.971  0.00  0.00    +0.000 OA
BRANCH   8  10
ATOM     10  O   UNL     1       8.338   6.994  18.796  0.00  0.00    +0.000 OA
ATOM     11  H   UNL     1       7.939   7.017  19.687  0.00  0.00    +0.000 HD
ENDBRANCH   8  10
ENDBRANCH   6   8
BRANCH   1  12
ATOM     12  C   UNL     1       6.699   5.021  15.241  0.00  0.00    +0.000 C 
BRANCH  12  13
ATOM     13  C   UNL     1       6.271   3.787  14.433  0.00  0.00    +0.000 C 
BRANCH  13  15
ATOM     14  C   UNL     1       5.997   3.095  12.039  0.00  0.00    +0.000 C 
ATOM     15  C   UNL     1       6.335   4.016  12.950  0.00  0.00    +0.000 C 
ENDBRANCH  13  15
ENDBRANCH  12  13
ENDBRANCH   1  12
TORSDOF 5
ENDMDL
MODEL 7
REMARK VINA RESULT:      -5.4      2.509      3.315
REMARK  Name = 
REMARK  5 active torsions:
REMARK  status: ('A' for Active; 'I' for Inactive)
REMARK    1  A    between atoms: C_2  and  C_3
REMARK    2  A    between atoms: C_3  and  C_4
REMARK    3  A    between atoms: C_4  and  C_5
REMARK    4  A    between atoms: C_10  and  C_11
REMARK    5  A    between atoms: C_11  and  O_13
REMARK                            x       y       z     vdW  Elec       q    Type
REMARK                         _______ _______ _______ _____ _____    ______ ____
ROOT
ATOM      1  C   UNL     1       4.846   4.633  17.273  0.00  0.00    +0.000 C 
ATOM      2  C   UNL     1       5.001   4.698  18.807  0.00  0.00    +0.000 C 
ATOM      3  C   UNL     1       6.306   5.353  19.242  0.00  0.00    +0.000 C 
ATOM      4  N   UNL     1       7.451   4.648  18.672  0.00  0.00    +0.000 NA
ATOM      5  C   UNL     1       7.418   4.752  17.212  0.00  0.00    +0.000 C 
ATOM      6  C   UNL     1       6.152   4.136  16.596  0.00  0.00    +0.000 C 
ATOM      7  H   UNL     1       7.427   3.670  18.959  0.00  0.00    +0.000 HD
ENDROOT
BRANCH   6   8
ATOM      8  C   UNL     1       6.164   4.514  15.121  0.00  0.00    +0.000 C 
ATOM      9  O   UNL     1       6.084   5.661  14.709  0.00  0.00    +0.000 OA
BRANCH   8  10
ATOM     10  O   UNL     1       6.290   3.465  14.286  0.00  0.00    +0.000 OA
ATOM     11  H   UNL     1       6.526   2.618  14.711  0.00  0.00    +0.000 HD
ENDBRANCH   8  10
ENDBRANCH   6   8
BRANCH   1  12
ATOM     12  C   UNL     1       3.639   3.738  16.885  0.00  0.00    +0.000 C 
BRANCH  12  13
ATOM     13  C   UNL     1       2.379   4.041  17.710  0.00  0.00    +0.000 C 
BRANCH  13  15
ATOM     14  C   UNL     1       0.822   2.812  19.244  0.00  0.00    +0.000 C 
ATOM     15  C   UNL     1       1.745   2.802  18.274  0.00  0.00    +0.000 C 
ENDBRANCH  13  15
ENDBRANCH  12  13
ENDBRANCH   1  12
TORSDOF 5
ENDMDL
MODEL 8
REMARK VINA RESULT:      -5.4      2.548      3.603
REMARK  Name = 
REMARK  5 active torsions:
REMARK  status: ('A' for Active; 'I' for Inactive)
REMARK    1  A    between atoms: C_2  and  C_3
REMARK    2  A    between atoms: C_3  and  C_4
REMARK    3  A    between atoms: C_4  and  C_5
REMARK    4  A    between atoms: C_10  and  C_11
REMARK    5  A    between atoms: C_11  and  O_13
REMARK                            x       y       z     vdW  Elec       q    Type
REMARK                         _______ _______ _______ _____ _____    ______ ____
ROOT
ATOM      1  C   UNL     1       2.986   4.470  17.929  0.00  0.00    +0.000 C 
ATOM      2  C   UNL     1       3.789   3.808  16.791  0.00  0.00    +0.000 C 
ATOM      3  C   UNL     1       5.195   4.380  16.647  0.00  0.00    +0.000 C 
ATOM      4  N   UNL     1       5.142   5.821  16.423  0.00  0.00    +0.000 NA
ATOM      5  C   UNL     1       4.559   6.482  17.591  0.00  0.00    +0.000 C 
ATOM      6  C   UNL     1       3.124   6.017  17.889  0.00  0.00    +0.000 C 
ATOM      7  H   UNL     1       4.587   6.018  15.590  0.00  0.00    +0.000 HD
ENDROOT
BRANCH   6   8
ATOM      8  C   UNL     1       2.747   6.620  19.235  0.00  0.00    +0.000 C 
ATOM      9  O   UNL     1       2.077   7.634  19.365  0.00  0.00    +0.000 OA
BRANCH   8  10
ATOM     10  O   UNL     1       3.205   5.928  20.295  0.00  0.00    +0.000 OA
ATOM     11  H   UNL     1       2.641   5.962  21.091  0.00  0.00    +0.000 HD
ENDBRANCH   8  10
ENDBRANCH   6   8
BRANCH   1  12
ATOM     12  C   UNL     1       1.497   4.040  17.868  0.00  0.00    +0.000 C 
BRANCH  12  13
ATOM     13  C   UNL     1       1.170   2.879  18.819  0.00  0.00    +0.000 C 
BRANCH  13  15
ATOM     14  C   UNL     1       1.482   2.926  21.306  0.00  0.00    +0.000 C 
ATOM     15  C   UNL     1       0.840   3.345  20.208  0.00  0.00    +0.000 C 
ENDBRANCH  13  15
ENDBRANCH  12  13
ENDBRANCH   1  12
TORSDOF 5
ENDMDL
MODEL 9
REMARK VINA RESULT:      -5.4      2.316      3.277
REMARK  Name = 
REMARK  5 active torsions:
REMARK  status: ('A' for Active; 'I' for Inactive)
REMARK    1  A    between atoms: C_2  and  C_3
REMARK    2  A    between atoms: C_3  and  C_4
REMARK    3  A    between atoms: C_4  and  C_5
REMARK    4  A    between atoms: C_10  and  C_11
REMARK    5  A    between atoms: C_11  and  O_13
REMARK                            x       y       z     vdW  Elec       q    Type
REMARK                         _______ _______ _______ _____ _____    ______ ____
ROOT
ATOM      1  C   UNL     1       4.760   5.239  17.637  0.00  0.00    +0.000 C 
ATOM      2  C   UNL     1       5.252   5.098  19.093  0.00  0.00    +0.000 C 
ATOM      3  C   UNL     1       6.747   5.352  19.239  0.00  0.00    +0.000 C 
ATOM      4  N   UNL     1       7.509   4.447  18.384  0.00  0.00    +0.000 NA
ATOM      5  C   UNL     1       7.193   4.712  16.980  0.00  0.00    +0.000 C 
ATOM      6  C   UNL     1       5.706   4.504  16.649  0.00  0.00    +0.000 C 
ATOM      7  H   UNL     1       7.283   3.481  18.622  0.00  0.00    +0.000 HD
ENDROOT
BRANCH   6   8
ATOM      8  C   UNL     1       5.504   5.023  15.233  0.00  0.00    +0.000 C 
ATOM      9  O   UNL     1       5.402   4.304  14.250  0.00  0.00    +0.000 OA
BRANCH   8  10
ATOM     10  O   UNL     1       5.429   6.364  15.145  0.00  0.00    +0.000 OA
ATOM     11  H   UNL     1       5.873   6.856  15.862  0.00  0.00    +0.000 HD
ENDBRANCH   8  10
ENDBRANCH   6   8
BRANCH   1  12
ATOM     12  C   UNL     1       3.302   4.725  17.503  0.00  0.00    +0.000 C 
BRANCH  12  13
ATOM     13  C   UNL     1       2.426   5.085  18.712  0.00  0.00    +0.000 C 
BRANCH  13  15
ATOM     14  C   UNL     1       1.021   3.719  20.276  0.00  0.00    +0.000 C 
ATOM     15  C   UNL     1       1.416   4.020  19.033  0.00  0.00    +0.000 C 
ENDBRANCH  13  15
ENDBRANCH  12  13
ENDBRANCH   1  12
TORSDOF 5
ENDMDL
