MODEL 1
REMARK VINA RESULT:      -7.8      0.000      0.000
REMARK  Name = 
REMARK  4 active torsions:
REMARK  status: ('A' for Active; 'I' for Inactive)
REMARK    1  A    between atoms: C_2  and  C_3
REMARK    2  A    between atoms: C_3  and  C_4
REMARK    3  A    between atoms: C_4  and  C_5
REMARK    4  A    between atoms: C_15  and  C_17
REMARK                            x       y       z     vdW  Elec       q    Type
REMARK                         _______ _______ _______ _____ _____    ______ ____
ROOT
ATOM      1  O   UNL     1       2.290   9.361  17.387  0.00  0.00    +0.000 OA
ATOM      2  C   UNL     1       1.924   8.905  18.465  0.00  0.00    +0.000 C 
ATOM      3  N   UNL     1       1.080   9.590  19.338  0.00  0.00    +0.000 N 
ATOM      4  C   UNL     1       0.573   9.083  20.627  0.00  0.00    +0.000 C 
ATOM      5  C   UNL     1       0.899  10.069  21.756  0.00  0.00    +0.000 C 
ATOM      6  N   UNL     1       0.374  11.400  21.447  0.00  0.00    +0.000 N 
ATOM      7  C   UNL     1      -0.615  11.934  22.267  0.00  0.00    +0.000 C 
ATOM      8  O   UNL     1      -0.986  11.322  23.271  0.00  0.00    +0.000 OA
ATOM      9  C   UNL     1       0.832  11.933  20.148  0.00  0.00    +0.000 C 
ATOM     10  C   UNL     1       0.592  10.930  18.995  0.00  0.00    +0.000 C 
ENDROOT
BRANCH   7  11
ATOM     11  C   UNL     1      -1.233  13.300  21.923  0.00  0.00    +0.000 C 
ATOM     12  C   UNL     1      -1.383  14.130  23.220  0.00  0.00    +0.000 C 
ATOM     13  C   UNL     1      -2.262  15.355  23.005  0.00  0.00    +0.000 C 
ATOM     14  C   UNL     1      -3.669  14.927  22.602  0.00  0.00    +0.000 C 
ATOM     15  C   UNL     1      -3.670  13.919  21.486  0.00  0.00    +0.000 A 
ATOM     16  C   UNL     1      -4.842  13.715  20.747  0.00  0.00    +0.000 A 
ATOM     17  C   UNL     1      -4.870  12.782  19.719  0.00  0.00    +0.000 A 
ATOM     18  C   UNL     1      -3.708  12.078  19.462  0.00  0.00    +0.000 A 
ATOM     19  N   UNL     1      -2.568  12.246  20.158  0.00  0.00    +0.000 NA
ATOM     20  C   UNL     1      -2.553  13.135  21.185  0.00  0.00    +0.000 A 
ENDBRANCH   7  11
BRANCH   2  21
ATOM     21  C   UNL     1       2.382   7.537  18.960  0.00  0.00    +0.000 C 
BRANCH  21  22
ATOM     22  C   UNL     1       2.021   6.350  18.068  0.00  0.00    +0.000 C 
BRANCH  22  23
ATOM     23  C   UNL     1       2.672   5.027  18.553  0.00  0.00    +0.000 C 
ATOM     24  C   UNL     1       2.599   4.910  20.084  0.00  0.00    +0.000 C 
ATOM     25  C   UNL     1       1.286   4.307  20.573  0.00  0.00    +0.000 C 
ATOM     26  C   UNL     1       1.124   2.906  20.004  0.00  0.00    +0.000 C 
ATOM     27  C   UNL     1       1.043   2.965  18.486  0.00  0.00    +0.000 C 
ATOM     28  C   UNL     1       2.205   3.728  17.848  0.00  0.00    +0.000 C 
ENDBRANCH  22  23
ENDBRANCH  21  22
ENDBRANCH   2  21
TORSDOF 4
ENDMDL
MODEL 2
REMARK VINA RESULT:      -7.6      1.680      2.456
REMARK  Name = 
REMARK  4 active torsions:
REMARK  status: ('A' for Active; 'I' for Inactive)
REMARK    1  A    between atoms: C_2  and  C_3
REMARK    2  A    between atoms: C_3  and  C_4
REMARK    3  A    between atoms: C_4  and  C_5
REMARK    4  A    between atoms: C_15  and  C_17
REMARK                            x       y       z     vdW  Elec       q    Type
REMARK                         _______ _______ _______ _____ _____    ______ ____
ROOT
ATOM      1  O   UNL     1       3.842   7.369  17.025  0.00  0.00    +0.000 OA
ATOM      2  C   UNL     1       3.285   7.043  18.068  0.00  0.00    +0.000 C 
ATOM      3  N   UNL     1       2.246   7.775  18.642  0.00  0.00    +0.000 N 
ATOM      4  C   UNL     1       1.510   7.416  19.870  0.00  0.00    +0.000 C 
ATOM      5  C   UNL     1       1.546   8.576  20.873  0.00  0.00    +0.000 C 
ATOM      6  N   UNL     1       1.030   9.803  20.263  0.00  0.00    +0.000 N 
ATOM      7  C   UNL     1      -0.133  10.366  20.781  0.00  0.00    +0.000 C 
ATOM      8  O   UNL     1      -0.671   9.875  21.776  0.00  0.00    +0.000 OA
ATOM      9  C   UNL     1       1.717  10.181  19.013  0.00  0.00    +0.000 C 
ATOM     10  C   UNL     1       1.771   9.008  18.006  0.00  0.00    +0.000 C 
ENDROOT
BRANCH   7  11
ATOM     11  C   UNL     1      -0.736  11.614  20.114  0.00  0.00    +0.000 C 
ATOM     12  C   UNL     1      -1.103  12.645  21.208  0.00  0.00    +0.000 C 
ATOM     13  C   UNL     1      -1.979  13.762  20.654  0.00  0.00    +0.000 C 
ATOM     14  C   UNL     1      -3.295  13.192  20.140  0.00  0.00    +0.000 C 
ATOM     15  C   UNL     1      -3.098  12.008  19.234  0.00  0.00    +0.000 A 
ATOM     16  C   UNL     1      -4.140  11.612  18.385  0.00  0.00    +0.000 A 
ATOM     17  C   UNL     1      -3.985  10.517  17.547  0.00  0.00    +0.000 A 
ATOM     18  C   UNL     1      -2.776   9.846  17.588  0.00  0.00    +0.000 A 
ATOM     19  N   UNL     1      -1.758  10.197  18.396  0.00  0.00    +0.000 NA
ATOM     20  C   UNL     1      -1.925  11.249  19.239  0.00  0.00    +0.000 A 
ENDBRANCH   7  11
BRANCH   2  21
ATOM     21  C   UNL     1       3.700   5.802  18.850  0.00  0.00    +0.000 C 
BRANCH  21  22
ATOM     22  C   UNL     1       4.047   4.571  18.013  0.00  0.00    +0.000 C 
BRANCH  22  23
ATOM     23  C   UNL     1       2.977   3.454  18.132  0.00  0.00    +0.000 C 
ATOM     24  C   UNL     1       3.449   2.343  19.085  0.00  0.00    +0.000 C 
ATOM     25  C   UNL     1       3.134   2.640  20.547  0.00  0.00    +0.000 C 
ATOM     26  C   UNL     1       1.631   2.781  20.728  0.00  0.00    +0.000 C 
ATOM     27  C   UNL     1       1.117   3.963  19.919  0.00  0.00    +0.000 C 
ATOM     28  C   UNL     1       1.531   3.913  18.447  0.00  0.00    +0.000 C 
ENDBRANCH  22  23
ENDBRANCH  21  22
ENDBRANCH   2  21
TORSDOF 4
ENDMDL
MODEL 3
REMARK VINA RESULT:      -7.6      0.957      1.363
REMARK  Name = 
REMARK  4 active torsions:
REMARK  status: ('A' for Active; 'I' for Inactive)
REMARK    1  A    between atoms: C_2  and  C_3
REMARK    2  A    between atoms: C_3  and  C_4
REMARK    3  A    between atoms: C_4  and  C_5
REMARK    4  A    between atoms: C_15  and  C_17
REMARK                            x       y       z     vdW  Elec       q    Type
REMARK                         _______ _______ _______ _____ _____    ______ ____
ROOT
ATOM      1  O   UNL     1       2.674   8.459  17.689  0.00  0.00    +0.000 OA
ATOM      2  C   UNL     1       2.213   8.057  18.753  0.00  0.00    +0.000 C 
ATOM      3  N   UNL     1       1.356   8.815  19.549  0.00  0.00    +0.000 N 
ATOM      4  C   UNL     1       0.738   8.377  20.816  0.00  0.00    +0.000 C 
ATOM      5  C   UNL     1       1.047   9.377  21.937  0.00  0.00    +0.000 C 
ATOM      6  N   UNL     1       0.621  10.726  21.558  0.00  0.00    +0.000 N 
ATOM      7  C   UNL     1      -0.386  11.339  22.297  0.00  0.00    +0.000 C 
ATOM      8  O   UNL     1      -0.856  10.780  23.290  0.00  0.00    +0.000 OA
ATOM      9  C   UNL     1       1.192  11.192  20.279  0.00  0.00    +0.000 C 
ATOM     10  C   UNL     1       0.969  10.169  19.139  0.00  0.00    +0.000 C 
ENDROOT
BRANCH   7  11
ATOM     11  C   UNL     1      -0.901  12.726  21.876  0.00  0.00    +0.000 C 
ATOM     12  C   UNL     1      -1.140  13.583  23.142  0.00  0.00    +0.000 C 
ATOM     13  C   UNL     1      -1.934  14.844  22.824  0.00  0.00    +0.000 C 
ATOM     14  C   UNL     1      -3.312  14.475  22.287  0.00  0.00    +0.000 C 
ATOM     15  C   UNL     1      -3.249  13.451  21.189  0.00  0.00    +0.000 A 
ATOM     16  C   UNL     1      -4.350  13.288  20.337  0.00  0.00    +0.000 A 
ATOM     17  C   UNL     1      -4.319  12.342  19.323  0.00  0.00    +0.000 A 
ATOM     18  C   UNL     1      -3.173  11.580  19.193  0.00  0.00    +0.000 A 
ATOM     19  N   UNL     1      -2.101  11.707  19.998  0.00  0.00    +0.000 NA
ATOM     20  C   UNL     1      -2.147  12.610  21.011  0.00  0.00    +0.000 A 
ENDBRANCH   7  11
BRANCH   2  21
ATOM     21  C   UNL     1       2.558   6.682  19.314  0.00  0.00    +0.000 C 
BRANCH  21  22
ATOM     22  C   UNL     1       2.391   5.508  18.350  0.00  0.00    +0.000 C 
BRANCH  22  23
ATOM     23  C   UNL     1       1.577   4.343  18.974  0.00  0.00    +0.000 C 
ATOM     24  C   UNL     1       2.252   2.990  18.689  0.00  0.00    +0.000 C 
ATOM     25  C   UNL     1       3.325   2.634  19.712  0.00  0.00    +0.000 C 
ATOM     26  C   UNL     1       2.703   2.546  21.097  0.00  0.00    +0.000 C 
ATOM     27  C   UNL     1       2.141   3.900  21.503  0.00  0.00    +0.000 C 
ATOM     28  C   UNL     1       1.187   4.494  20.465  0.00  0.00    +0.000 C 
ENDBRANCH  22  23
ENDBRANCH  21  22
ENDBRANCH   2  21
TORSDOF 4
ENDMDL
MODEL 4
REMARK VINA RESULT:      -7.5      1.070      1.548
REMARK  Name = 
REMARK  4 active torsions:
REMARK  status: ('A' for Active; 'I' for Inactive)
REMARK    1  A    between atoms: C_2  and  C_3
REMARK    2  A    between atoms: C_3  and  C_4
REMARK    3  A    between atoms: C_4  and  C_5
REMARK    4  A    between atoms: C_15  and  C_17
REMARK                            x       y       z     vdW  Elec       q    Type
REMARK                         _______ _______ _______ _____ _____    ______ ____
ROOT
ATOM      1  O   UNL     1       2.258  10.138  17.509  0.00  0.00    +0.000 OA
ATOM      2  C   UNL     1       1.746   9.511  18.431  0.00  0.00    +0.000 C 
ATOM      3  N   UNL     1       0.855  10.079  19.340  0.00  0.00    +0.000 N 
ATOM      4  C   UNL     1       0.177   9.373  20.444  0.00  0.00    +0.000 C 
ATOM      5  C   UNL     1       0.435  10.087  21.776  0.00  0.00    +0.000 C 
ATOM      6  N   UNL     1       0.032  11.493  21.696  0.00  0.00    +0.000 N 
ATOM      7  C   UNL     1      -1.007  11.936  22.509  0.00  0.00    +0.000 C 
ATOM      8  O   UNL     1      -1.525  11.172  23.327  0.00  0.00    +0.000 OA
ATOM      9  C   UNL     1       0.664  12.230  20.584  0.00  0.00    +0.000 C 
ATOM     10  C   UNL     1       0.491  11.496  19.232  0.00  0.00    +0.000 C 
ENDROOT
BRANCH   7  11
ATOM     11  C   UNL     1      -1.497  13.389  22.392  0.00  0.00    +0.000 C 
ATOM     12  C   UNL     1      -1.304  14.099  23.753  0.00  0.00    +0.000 C 
ATOM     13  C   UNL     1      -2.044  15.430  23.802  0.00  0.00    +0.000 C 
ATOM     14  C   UNL     1      -3.543  15.203  23.643  0.00  0.00    +0.000 C 
ATOM     15  C   UNL     1      -3.873  14.316  22.475  0.00  0.00    +0.000 A 
ATOM     16  C   UNL     1      -5.176  14.317  21.958  0.00  0.00    +0.000 A 
ATOM     17  C   UNL     1      -5.507  13.498  20.888  0.00  0.00    +0.000 A 
ATOM     18  C   UNL     1      -4.510  12.697  20.363  0.00  0.00    +0.000 A 
ATOM     19  N   UNL     1      -3.250  12.668  20.840  0.00  0.00    +0.000 NA
ATOM     20  C   UNL     1      -2.938  13.445  21.909  0.00  0.00    +0.000 A 
ENDBRANCH   7  11
BRANCH   2  21
ATOM     21  C   UNL     1       2.060   8.040  18.679  0.00  0.00    +0.000 C 
BRANCH  21  22
ATOM     22  C   UNL     1       3.212   7.457  17.860  0.00  0.00    +0.000 C 
BRANCH  22  23
ATOM     23  C   UNL     1       3.754   6.133  18.462  0.00  0.00    +0.000 C 
ATOM     24  C   UNL     1       2.598   5.224  18.913  0.00  0.00    +0.000 C 
ATOM     25  C   UNL     1       2.052   4.353  17.787  0.00  0.00    +0.000 C 
ATOM     26  C   UNL     1       3.155   3.451  17.256  0.00  0.00    +0.000 C 
ATOM     27  C   UNL     1       4.273   4.292  16.658  0.00  0.00    +0.000 C 
ATOM     28  C   UNL     1       4.799   5.365  17.613  0.00  0.00    +0.000 C 
ENDBRANCH  22  23
ENDBRANCH  21  22
ENDBRANCH   2  21
TORSDOF 4
ENDMDL
MODEL 5
REMARK VINA RESULT:      -7.5      0.921      1.222
REMARK  Name = 
REMARK  4 active torsions:
REMARK  status: ('A' for Active; 'I' for Inactive)
REMARK    1  A    between atoms: C_2  and  C_3
REMARK    2  A    between atoms: C_3  and  C_4
REMARK    3  A    between atoms: C_4  and  C_5
REMARK    4  A    between atoms: C_15  and  C_17
REMARK                            x       y       z     vdW  Elec       q    Type
REMARK                         _______ _______ _______ _____ _____    ______ ____
ROOT
ATOM      1  O   UNL     1       2.626   8.577  17.532  0.00  0.00    +0.000 OA
ATOM      2  C   UNL     1       2.199   8.181  18.612  0.00  0.00    +0.000 C 
ATOM      3  N   UNL     1       1.360   8.940  19.427  0.00  0.00    +0.000 N 
ATOM      4  C   UNL     1       0.782   8.507  20.714  0.00  0.00    +0.000 C 
ATOM      5  C   UNL     1       1.117   9.518  21.818  0.00  0.00    +0.000 C 
ATOM      6  N   UNL     1       0.671  10.862  21.441  0.00  0.00    +0.000 N 
ATOM      7  C   UNL     1      -0.318  11.474  22.203  0.00  0.00    +0.000 C 
ATOM      8  O   UNL     1      -0.755  10.920  23.215  0.00  0.00    +0.000 OA
ATOM      9  C   UNL     1       1.201  11.321  20.142  0.00  0.00    +0.000 C 
ATOM     10  C   UNL     1       0.952  10.287  19.017  0.00  0.00    +0.000 C 
ENDROOT
BRANCH   7  11
ATOM     11  C   UNL     1      -0.854  12.855  21.787  0.00  0.00    +0.000 C 
ATOM     12  C   UNL     1      -1.017  13.736  23.048  0.00  0.00    +0.000 C 
ATOM     13  C   UNL     1      -1.826  14.993  22.753  0.00  0.00    +0.000 C 
ATOM     14  C   UNL     1      -3.234  14.618  22.304  0.00  0.00    +0.000 C 
ATOM     15  C   UNL     1      -3.237  13.573  21.224  0.00  0.00    +0.000 A 
ATOM     16  C   UNL     1      -4.386  13.397  20.441  0.00  0.00    +0.000 A 
ATOM     17  C   UNL     1      -4.416  12.431  19.445  0.00  0.00    +0.000 A 
ATOM     18  C   UNL     1      -3.281  11.664  19.264  0.00  0.00    +0.000 A 
ATOM     19  N   UNL     1      -2.163  11.803  20.003  0.00  0.00    +0.000 NA
ATOM     20  C   UNL     1      -2.149  12.726  20.999  0.00  0.00    +0.000 A 
ENDBRANCH   7  11
BRANCH   2  21
ATOM     21  C   UNL     1       2.569   6.812  19.173  0.00  0.00    +0.000 C 
BRANCH  21  22
ATOM     22  C   UNL     1       3.656   6.052  18.414  0.00  0.00    +0.000 C 
BRANCH  22  23
ATOM     23  C   UNL     1       3.074   4.935  17.508  0.00  0.00    +0.000 C 
ATOM     24  C   UNL     1       4.028   3.730  17.443  0.00  0.00    +0.000 C 
ATOM     25  C   UNL     1       3.823   2.746  18.590  0.00  0.00    +0.000 C 
ATOM     26  C   UNL     1       2.404   2.202  18.549  0.00  0.00    +0.000 C 
ATOM     27  C   UNL     1       1.405   3.330  18.755  0.00  0.00    +0.000 C 
ATOM     28  C   UNL     1       1.613   4.504  17.796  0.00  0.00    +0.000 C 
ENDBRANCH  22  23
ENDBRANCH  21  22
ENDBRANCH   2  21
TORSDOF 4
ENDMDL
MODEL 6
REMARK VINA RESULT:      -7.5      2.065      3.254
REMARK  Name = 
REMARK  4 active torsions:
REMARK  status: ('A' for Active; 'I' for Inactive)
REMARK    1  A    between atoms: C_2  and  C_3
REMARK    2  A    between atoms: C_3  and  C_4
REMARK    3  A    between atoms: C_4  and  C_5
REMARK    4  A    between atoms: C_15  and  C_17
REMARK                            x       y       z     vdW  Elec       q    Type
REMARK                         _______ _______ _______ _____ _____    ______ ____
ROOT
ATOM      1  O   UNL     1       2.326   5.946  20.488  0.00  0.00    +0.000 OA
ATOM      2  C   UNL     1       2.196   6.790  19.607  0.00  0.00    +0.000 C 
ATOM      3  N   UNL     1       1.763   8.092  19.854  0.00  0.00    +0.000 N 
ATOM      4  C   UNL     1       1.624   9.162  18.847  0.00  0.00    +0.000 C 
ATOM      5  C   UNL     1       0.207   9.749  18.881  0.00  0.00    +0.000 C 
ATOM      6  N   UNL     1      -0.126  10.217  20.228  0.00  0.00    +0.000 N 
ATOM      7  C   UNL     1      -0.357  11.575  20.424  0.00  0.00    +0.000 C 
ATOM      8  O   UNL     1      -0.348  12.351  19.465  0.00  0.00    +0.000 OA
ATOM      9  C   UNL     1       0.030   9.185  21.272  0.00  0.00    +0.000 C 
ATOM     10  C   UNL     1       1.423   8.513  21.216  0.00  0.00    +0.000 C 
ENDROOT
BRANCH   7  11
ATOM     11  C   UNL     1      -0.639  12.102  21.841  0.00  0.00    +0.000 C 
ATOM     12  C   UNL     1      -2.164  12.073  22.098  0.00  0.00    +0.000 C 
ATOM     13  C   UNL     1      -2.538  12.861  23.348  0.00  0.00    +0.000 C 
ATOM     14  C   UNL     1      -2.157  14.327  23.177  0.00  0.00    +0.000 C 
ATOM     15  C   UNL     1      -0.746  14.506  22.691  0.00  0.00    +0.000 A 
ATOM     16  C   UNL     1      -0.117  15.748  22.848  0.00  0.00    +0.000 A 
ATOM     17  C   UNL     1       1.182  15.940  22.398  0.00  0.00    +0.000 A 
ATOM     18  C   UNL     1       1.816  14.867  21.800  0.00  0.00    +0.000 A 
ATOM     19  N   UNL     1       1.239  13.662  21.629  0.00  0.00    +0.000 NA
ATOM     20  C   UNL     1      -0.044  13.488  22.039  0.00  0.00    +0.000 A 
ENDBRANCH   7  11
BRANCH   2  21
ATOM     21  C   UNL     1       2.484   6.478  18.143  0.00  0.00    +0.000 C 
BRANCH  21  22
ATOM     22  C   UNL     1       3.642   5.515  17.881  0.00  0.00    +0.000 C 
BRANCH  22  23
ATOM     23  C   UNL     1       3.154   4.108  17.445  0.00  0.00    +0.000 C 
ATOM     24  C   UNL     1       3.975   3.006  18.135  0.00  0.00    +0.000 C 
ATOM     25  C   UNL     1       3.436   2.638  19.513  0.00  0.00    +0.000 C 
ATOM     26  C   UNL     1       2.010   2.126  19.385  0.00  0.00    +0.000 C 
ATOM     27  C   UNL     1       1.109   3.223  18.840  0.00  0.00    +0.000 C 
ATOM     28  C   UNL     1       1.630   3.844  17.542  0.00  0.00    +0.000 C 
ENDBRANCH  22  23
ENDBRANCH  21  22
ENDBRANCH   2  21
TORSDOF 4
ENDMDL
MODEL 7
REMARK VINA RESULT:      -7.4      1.200      1.457
REMARK  Name = 
REMARK  4 active torsions:
REMARK  status: ('A' for Active; 'I' for Inactive)
REMARK    1  A    between atoms: C_2  and  C_3
REMARK    2  A    between atoms: C_3  and  C_4
REMARK    3  A    between atoms: C_4  and  C_5
REMARK    4  A    between atoms: C_15  and  C_17
REMARK                            x       y       z     vdW  Elec       q    Type
REMARK                         _______ _______ _______ _____ _____    ______ ____
ROOT
ATOM      1  O   UNL     1       2.248   9.122  17.422  0.00  0.00    +0.000 OA
ATOM      2  C   UNL     1       1.877   8.739  18.527  0.00  0.00    +0.000 C 
ATOM      3  N   UNL     1       1.066   9.502  19.367  0.00  0.00    +0.000 N 
ATOM      4  C   UNL     1       0.554   9.085  20.687  0.00  0.00    +0.000 C 
ATOM      5  C   UNL     1       0.926  10.119  21.757  0.00  0.00    +0.000 C 
ATOM      6  N   UNL     1       0.446  11.450  21.378  0.00  0.00    +0.000 N 
ATOM      7  C   UNL     1      -0.515  12.063  22.175  0.00  0.00    +0.000 C 
ATOM      8  O   UNL     1      -0.898  11.521  23.215  0.00  0.00    +0.000 OA
ATOM      9  C   UNL     1       0.909  11.893  20.049  0.00  0.00    +0.000 C 
ATOM     10  C   UNL     1       0.623  10.837  18.954  0.00  0.00    +0.000 C 
ENDROOT
BRANCH   7  11
ATOM     11  C   UNL     1      -1.088  13.429  21.761  0.00  0.00    +0.000 C 
ATOM     12  C   UNL     1      -0.081  14.539  22.146  0.00  0.00    +0.000 C 
ATOM     13  C   UNL     1      -0.708  15.924  22.050  0.00  0.00    +0.000 C 
ATOM     14  C   UNL     1      -1.874  16.042  23.026  0.00  0.00    +0.000 C 
ATOM     15  C   UNL     1      -2.829  14.886  22.928  0.00  0.00    +0.000 A 
ATOM     16  C   UNL     1      -4.121  15.015  23.454  0.00  0.00    +0.000 A 
ATOM     17  C   UNL     1      -5.017  13.958  23.384  0.00  0.00    +0.000 A 
ATOM     18  C   UNL     1      -4.585  12.791  22.782  0.00  0.00    +0.000 A 
ATOM     19  N   UNL     1      -3.348  12.632  22.272  0.00  0.00    +0.000 NA
ATOM     20  C   UNL     1      -2.463  13.657  22.372  0.00  0.00    +0.000 A 
ENDBRANCH   7  11
BRANCH   2  21
ATOM     21  C   UNL     1       2.291   7.386  19.093  0.00  0.00    +0.000 C 
BRANCH  21  22
ATOM     22  C   UNL     1       2.397   6.244  18.083  0.00  0.00    +0.000 C 
BRANCH  22  23
ATOM     23  C   UNL     1       2.893   4.924  18.732  0.00  0.00    +0.000 C 
ATOM     24  C   UNL     1       2.534   4.881  20.227  0.00  0.00    +0.000 C 
ATOM     25  C   UNL     1       1.131   4.344  20.486  0.00  0.00    +0.000 C 
ATOM     26  C   UNL     1       1.019   2.924  19.953  0.00  0.00    +0.000 C 
ATOM     27  C   UNL     1       1.221   2.916  18.445  0.00  0.00    +0.000 C 
ATOM     28  C   UNL     1       2.511   3.611  18.005  0.00  0.00    +0.000 C 
ENDBRANCH  22  23
ENDBRANCH  21  22
ENDBRANCH   2  21
TORSDOF 4
ENDMDL
MODEL 8
REMARK VINA RESULT:      -7.3      1.201      2.004
REMARK  Name = 
REMARK  4 active torsions:
REMARK  status: ('A' for Active; 'I' for Inactive)
REMARK    1  A    between atoms: C_2  and  C_3
REMARK    2  A    between atoms: C_3  and  C_4
REMARK    3  A    between atoms: C_4  and  C_5
REMARK    4  A    between atoms: C_15  and  C_17
REMARK                            x       y       z     vdW  Elec       q    Type
REMARK                         _______ _______ _______ _____ _____    ______ ____
ROOT
ATOM      1  O   UNL     1       2.384   8.970  17.366  0.00  0.00    +0.000 OA
ATOM      2  C   UNL     1       1.989   8.572  18.457  0.00  0.00    +0.000 C 
ATOM      3  N   UNL     1       1.178   9.330  19.300  0.00  0.00    +0.000 N 
ATOM      4  C   UNL     1       0.638   8.896  20.603  0.00  0.00    +0.000 C 
ATOM      5  C   UNL     1       1.009   9.903  21.699  0.00  0.00    +0.000 C 
ATOM      6  N   UNL     1       0.555  11.248  21.339  0.00  0.00    +0.000 N 
ATOM      7  C   UNL     1      -0.409  11.861  22.133  0.00  0.00    +0.000 C 
ATOM      8  O   UNL     1      -0.816  11.305  23.156  0.00  0.00    +0.000 OA
ATOM      9  C   UNL     1       1.047  11.710  20.026  0.00  0.00    +0.000 C 
ATOM     10  C   UNL     1       0.761  10.680  18.907  0.00  0.00    +0.000 C 
ENDROOT
BRANCH   7  11
ATOM     11  C   UNL     1      -0.954  13.244  21.737  0.00  0.00    +0.000 C 
ATOM     12  C   UNL     1      -0.959  14.162  22.983  0.00  0.00    +0.000 C 
ATOM     13  C   UNL     1      -1.765  15.432  22.740  0.00  0.00    +0.000 C 
ATOM     14  C   UNL     1      -3.222  15.083  22.455  0.00  0.00    +0.000 C 
ATOM     15  C   UNL     1      -3.366  14.010  21.412  0.00  0.00    +0.000 A 
ATOM     16  C   UNL     1      -4.596  13.845  20.762  0.00  0.00    +0.000 A 
ATOM     17  C   UNL     1      -4.756  12.855  19.804  0.00  0.00    +0.000 A 
ATOM     18  C   UNL     1      -3.666  12.053  19.523  0.00  0.00    +0.000 A 
ATOM     19  N   UNL     1      -2.472  12.181  20.134  0.00  0.00    +0.000 NA
ATOM     20  C   UNL     1      -2.328  13.129  21.096  0.00  0.00    +0.000 A 
ENDBRANCH   7  11
BRANCH   2  21
ATOM     21  C   UNL     1       2.373   7.201  19.003  0.00  0.00    +0.000 C 
BRANCH  21  22
ATOM     22  C   UNL     1       2.325   6.047  18.002  0.00  0.00    +0.000 C 
BRANCH  22  23
ATOM     23  C   UNL     1       3.204   4.846  18.442  0.00  0.00    +0.000 C 
ATOM     24  C   UNL     1       3.642   4.014  17.225  0.00  0.00    +0.000 C 
ATOM     25  C   UNL     1       4.908   4.548  16.564  0.00  0.00    +0.000 C 
ATOM     26  C   UNL     1       6.055   4.527  17.563  0.00  0.00    +0.000 C 
ATOM     27  C   UNL     1       5.746   5.451  18.731  0.00  0.00    +0.000 C 
ATOM     28  C   UNL     1       4.392   5.167  19.384  0.00  0.00    +0.000 C 
ENDBRANCH  22  23
ENDBRANCH  21  22
ENDBRANCH   2  21
TORSDOF 4
ENDMDL
MODEL 9
REMARK VINA RESULT:      -7.3      1.128      1.599
REMARK  Name = 
REMARK  4 active torsions:
REMARK  status: ('A' for Active; 'I' for Inactive)
REMARK    1  A    between atoms: C_2  and  C_3
REMARK    2  A    between atoms: C_3  and  C_4
REMARK    3  A    between atoms: C_4  and  C_5
REMARK    4  A    between atoms: C_15  and  C_17
REMARK                            x       y       z     vdW  Elec       q    Type
REMARK                         _______ _______ _______ _____ _____    ______ ____
ROOT
ATOM      1  O   UNL     1       2.380   8.185  19.065  0.00  0.00    +0.000 OA
ATOM      2  C   UNL     1       1.614   7.952  19.994  0.00  0.00    +0.000 C 
ATOM      3  N   UNL     1       0.721   8.893  20.503  0.00  0.00    +0.000 N 
ATOM      4  C   UNL     1      -0.251   8.665  21.590  0.00  0.00    +0.000 C 
ATOM      5  C   UNL     1      -0.071   9.709  22.698  0.00  0.00    +0.000 C 
ATOM      6  N   UNL     1      -0.169  11.065  22.152  0.00  0.00    +0.000 N 
ATOM      7  C   UNL     1      -1.214  11.879  22.574  0.00  0.00    +0.000 C 
ATOM      8  O   UNL     1      -1.997  11.486  23.442  0.00  0.00    +0.000 OA
ATOM      9  C   UNL     1       0.766  11.326  21.039  0.00  0.00    +0.000 C 
ATOM     10  C   UNL     1       0.668  10.245  19.936  0.00  0.00    +0.000 C 
ENDROOT
BRANCH   7  11
ATOM     11  C   UNL     1      -1.381  13.281  21.962  0.00  0.00    +0.000 C 
ATOM     12  C   UNL     1      -1.103  14.345  23.051  0.00  0.00    +0.000 C 
ATOM     13  C   UNL     1      -1.547  15.733  22.606  0.00  0.00    +0.000 C 
ATOM     14  C   UNL     1      -3.051  15.749  22.361  0.00  0.00    +0.000 C 
ATOM     15  C   UNL     1      -3.509  14.610  21.495  0.00  0.00    +0.000 A 
ATOM     16  C   UNL     1      -4.758  14.685  20.864  0.00  0.00    +0.000 A 
ATOM     17  C   UNL     1      -5.206  13.640  20.067  0.00  0.00    +0.000 A 
ATOM     18  C   UNL     1      -4.379  12.542  19.927  0.00  0.00    +0.000 A 
ATOM     19  N   UNL     1      -3.176  12.435  20.525  0.00  0.00    +0.000 NA
ATOM     20  C   UNL     1      -2.755  13.444  21.330  0.00  0.00    +0.000 A 
ENDBRANCH   7  11
BRANCH   2  21
ATOM     21  C   UNL     1       1.587   6.599  20.696  0.00  0.00    +0.000 C 
BRANCH  21  22
ATOM     22  C   UNL     1       2.374   5.478  20.018  0.00  0.00    +0.000 C 
BRANCH  22  23
ATOM     23  C   UNL     1       1.455   4.490  19.252  0.00  0.00    +0.000 C 
ATOM     24  C   UNL     1       1.755   4.518  17.744  0.00  0.00    +0.000 C 
ATOM     25  C   UNL     1       2.894   3.585  17.347  0.00  0.00    +0.000 C 
ATOM     26  C   UNL     1       2.532   2.153  17.709  0.00  0.00    +0.000 C 
ATOM     27  C   UNL     1       2.362   2.022  19.215  0.00  0.00    +0.000 C 
ATOM     28  C   UNL     1       1.386   3.043  19.803  0.00  0.00    +0.000 C 
ENDBRANCH  22  23
ENDBRANCH  21  22
ENDBRANCH   2  21
TORSDOF 4
ENDMDL
