MODEL 1
REMARK VINA RESULT:      -7.6      0.000      0.000
REMARK  Name = 
REMARK  10 active torsions:
REMARK  status: ('A' for Active; 'I' for Inactive)
REMARK    1  A    between atoms: C_1  and  C_2
REMARK    2  A    between atoms: C_2  and  C_3
REMARK    3  A    between atoms: C_3  and  N_4
REMARK    4  A    between atoms: N_4  and  C_5
REMARK    5  A    between atoms: N_4  and  C_14
REMARK    6  A    between atoms: C_5  and  C_6
REMARK    7  A    between atoms: C_6  and  C_7
REMARK    8  A    between atoms: C_10  and  O_11
REMARK    9  A    between atoms: C_19  and  O_20
REMARK   10  A    between atoms: C_21  and  O_22
REMARK                            x       y       z     vdW  Elec       q    Type
REMARK                         _______ _______ _______ _____ _____    ______ ____
ROOT
ATOM      1  C   UNL     1       2.127   7.645  19.779  0.00  0.00    +0.000 C 
ATOM      2  C   UNL     1       2.320   7.491  18.254  0.00  0.00    +0.000 C 
ATOM      3  C   UNL     1       3.502   6.574  17.995  0.00  0.00    +0.000 C 
ATOM      4  C   UNL     1       3.011   5.202  18.357  0.00  0.00    +0.000 A 
ATOM      5  C   UNL     1       3.066   4.177  17.401  0.00  0.00    +0.000 A 
ATOM      6  C   UNL     1       2.486   2.956  17.689  0.00  0.00    +0.000 A 
ATOM      7  C   UNL     1       1.958   2.703  18.952  0.00  0.00    +0.000 A 
ATOM      8  C   UNL     1       1.922   3.716  19.929  0.00  0.00    +0.000 A 
ATOM      9 CL   UNL     1       1.304   3.356  21.503  0.00  0.00    +0.000 Cl
ATOM     10  C   UNL     1       2.372   5.014  19.607  0.00  0.00    +0.000 A 
ATOM     11  C   UNL     1       2.163   6.238  20.513  0.00  0.00    +0.000 C 
ENDROOT
BRANCH   6  12
ATOM     12  O   UNL     1       2.384   1.979  16.734  0.00  0.00    +0.000 OA
ATOM     13  H   UNL     1       2.319   1.120  17.191  0.00  0.00    +0.000 HD
ENDBRANCH   6  12
BRANCH   7  14
ATOM     14  O   UNL     1       1.435   1.453  19.182  0.00  0.00    +0.000 OA
ATOM     15  H   UNL     1       0.632   1.408  18.618  0.00  0.00    +0.000 HD
ENDBRANCH   7  14
BRANCH   1  16
ATOM     16  N   UNL     1       1.026   8.622  20.057  0.00  0.00    +0.000 NA
BRANCH  16  17
ATOM     17  C   UNL     1       1.018   9.112  21.454  0.00  0.00    +0.000 C 
BRANCH  17  19
ATOM     18  C   UNL     1      -0.738  10.109  23.074  0.00  0.00    +0.000 C 
ATOM     19  C   UNL     1      -0.263   8.891  22.290  0.00  0.00    +0.000 C 
ENDBRANCH  17  19
ENDBRANCH  16  17
BRANCH  16  20
ATOM     20  C   UNL     1       0.918   9.732  19.082  0.00  0.00    +0.000 C 
BRANCH  20  21
ATOM     21  C   UNL     1      -0.063  10.870  19.439  0.00  0.00    +0.000 C 
BRANCH  21  22
ATOM     22  C   UNL     1      -1.319  10.845  18.582  0.00  0.00    +0.000 A 
ATOM     23  C   UNL     1      -2.404  11.677  18.901  0.00  0.00    +0.000 A 
ATOM     24  C   UNL     1      -3.559  11.686  18.108  0.00  0.00    +0.000 A 
ATOM     25  C   UNL     1      -3.637  10.855  17.002  0.00  0.00    +0.000 A 
ATOM     26  C   UNL     1      -2.578  10.014  16.670  0.00  0.00    +0.000 A 
ATOM     27  C   UNL     1      -1.419  10.009  17.458  0.00  0.00    +0.000 A 
BRANCH  25  28
ATOM     28  O   UNL     1      -4.740  10.841  16.194  0.00  0.00    +0.000 OA
ATOM     29  H   UNL     1      -5.225  10.016  16.356  0.00  0.00    +0.000 HD
ENDBRANCH  25  28
ENDBRANCH  21  22
ENDBRANCH  20  21
ENDBRANCH  16  20
ENDBRANCH   1  16
TORSDOF 9
ENDMDL
MODEL 2
REMARK VINA RESULT:      -7.5      3.801      8.084
REMARK  Name = 
REMARK  10 active torsions:
REMARK  status: ('A' for Active; 'I' for Inactive)
REMARK    1  A    between atoms: C_1  and  C_2
REMARK    2  A    between atoms: C_2  and  C_3
REMARK    3  A    between atoms: C_3  and  N_4
REMARK    4  A    between atoms: N_4  and  C_5
REMARK    5  A    between atoms: N_4  and  C_14
REMARK    6  A    between atoms: C_5  and  C_6
REMARK    7  A    between atoms: C_6  and  C_7
REMARK    8  A    between atoms: C_10  and  O_11
REMARK    9  A    between atoms: C_19  and  O_20
REMARK   10  A    between atoms: C_21  and  O_22
REMARK                            x       y       z     vdW  Elec       q    Type
REMARK                         _______ _______ _______ _____ _____    ______ ____
ROOT
ATOM      1  C   UNL     1       2.055   6.500  19.722  0.00  0.00    +0.000 C 
ATOM      2  C   UNL     1       2.716   7.327  18.598  0.00  0.00    +0.000 C 
ATOM      3  C   UNL     1       1.659   8.189  17.931  0.00  0.00    +0.000 C 
ATOM      4  C   UNL     1       1.353   9.267  18.931  0.00  0.00    +0.000 A 
ATOM      5  C   UNL     1       1.499  10.612  18.561  0.00  0.00    +0.000 A 
ATOM      6  C   UNL     1       1.354  11.594  19.522  0.00  0.00    +0.000 A 
ATOM      7  C   UNL     1       0.952  11.267  20.815  0.00  0.00    +0.000 A 
ATOM      8  C   UNL     1       0.777   9.922  21.191  0.00  0.00    +0.000 A 
ATOM      9 CL   UNL     1       0.231   9.552  22.790  0.00  0.00    +0.000 Cl
ATOM     10  C   UNL     1       1.066   8.894  20.268  0.00  0.00    +0.000 A 
ATOM     11  C   UNL     1       1.132   7.406  20.643  0.00  0.00    +0.000 C 
ENDROOT
BRANCH   6  12
ATOM     12  O   UNL     1       1.633  12.906  19.240  0.00  0.00    +0.000 OA
ATOM     13  H   UNL     1       2.552  12.953  18.918  0.00  0.00    +0.000 HD
ENDBRANCH   6  12
BRANCH   7  14
ATOM     14  O   UNL     1       0.788  12.298  21.708  0.00  0.00    +0.000 OA
ATOM     15  H   UNL     1      -0.009  12.779  21.393  0.00  0.00    +0.000 HD
ENDBRANCH   7  14
BRANCH   1  16
ATOM     16  N   UNL     1       3.062   5.571  20.329  0.00  0.00    +0.000 NA
BRANCH  16  17
ATOM     17  C   UNL     1       2.489   4.262  20.719  0.00  0.00    +0.000 C 
BRANCH  17  19
ATOM     18  C   UNL     1       0.886   2.880  19.229  0.00  0.00    +0.000 C 
ATOM     19  C   UNL     1       1.034   3.955  20.298  0.00  0.00    +0.000 C 
ENDBRANCH  17  19
ENDBRANCH  16  17
BRANCH  16  20
ATOM     20  C   UNL     1       4.315   5.417  19.555  0.00  0.00    +0.000 C 
BRANCH  20  21
ATOM     21  C   UNL     1       4.369   4.238  18.558  0.00  0.00    +0.000 C 
BRANCH  21  22
ATOM     22  C   UNL     1       5.253   4.533  17.357  0.00  0.00    +0.000 A 
ATOM     23  C   UNL     1       6.264   5.502  17.449  0.00  0.00    +0.000 A 
ATOM     24  C   UNL     1       7.104   5.770  16.360  0.00  0.00    +0.000 A 
ATOM     25  C   UNL     1       6.926   5.078  15.173  0.00  0.00    +0.000 A 
ATOM     26  C   UNL     1       5.924   4.120  15.052  0.00  0.00    +0.000 A 
ATOM     27  C   UNL     1       5.087   3.846  16.143  0.00  0.00    +0.000 A 
BRANCH  25  28
ATOM     28  O   UNL     1       7.731   5.299  14.090  0.00  0.00    +0.000 OA
ATOM     29  H   UNL     1       7.165   5.484  13.323  0.00  0.00    +0.000 HD
ENDBRANCH  25  28
ENDBRANCH  21  22
ENDBRANCH  20  21
ENDBRANCH  16  20
ENDBRANCH   1  16
TORSDOF 9
ENDMDL
MODEL 3
REMARK VINA RESULT:      -7.4      0.833      1.087
REMARK  Name = 
REMARK  10 active torsions:
REMARK  status: ('A' for Active; 'I' for Inactive)
REMARK    1  A    between atoms: C_1  and  C_2
REMARK    2  A    between atoms: C_2  and  C_3
REMARK    3  A    between atoms: C_3  and  N_4
REMARK    4  A    between atoms: N_4  and  C_5
REMARK    5  A    between atoms: N_4  and  C_14
REMARK    6  A    between atoms: C_5  and  C_6
REMARK    7  A    between atoms: C_6  and  C_7
REMARK    8  A    between atoms: C_10  and  O_11
REMARK    9  A    between atoms: C_19  and  O_20
REMARK   10  A    between atoms: C_21  and  O_22
REMARK                            x       y       z     vdW  Elec       q    Type
REMARK                         _______ _______ _______ _____ _____    ______ ____
ROOT
ATOM      1  C   UNL     1       2.251   7.530  19.767  0.00  0.00    +0.000 C 
ATOM      2  C   UNL     1       2.480   7.363  18.248  0.00  0.00    +0.000 C 
ATOM      3  C   UNL     1       3.646   6.415  18.026  0.00  0.00    +0.000 C 
ATOM      4  C   UNL     1       3.111   5.057  18.382  0.00  0.00    +0.000 A 
ATOM      5  C   UNL     1       3.166   4.025  17.433  0.00  0.00    +0.000 A 
ATOM      6  C   UNL     1       2.548   2.821  17.713  0.00  0.00    +0.000 A 
ATOM      7  C   UNL     1       1.981   2.589  18.963  0.00  0.00    +0.000 A 
ATOM      8  C   UNL     1       1.944   3.608  19.932  0.00  0.00    +0.000 A 
ATOM      9 CL   UNL     1       1.275   3.273  21.492  0.00  0.00    +0.000 Cl
ATOM     10  C   UNL     1       2.435   4.893  19.615  0.00  0.00    +0.000 A 
ATOM     11  C   UNL     1       2.232   6.127  20.509  0.00  0.00    +0.000 C 
ENDROOT
BRANCH   6  12
ATOM     12  O   UNL     1       2.448   1.841  16.761  0.00  0.00    +0.000 OA
ATOM     13  H   UNL     1       2.801   1.016  17.142  0.00  0.00    +0.000 HD
ENDBRANCH   6  12
BRANCH   7  14
ATOM     14  O   UNL     1       1.421   1.354  19.186  0.00  0.00    +0.000 OA
ATOM     15  H   UNL     1       1.063   1.401  20.099  0.00  0.00    +0.000 HD
ENDBRANCH   7  14
BRANCH   1  16
ATOM     16  N   UNL     1       1.168   8.536  20.009  0.00  0.00    +0.000 NA
BRANCH  16  17
ATOM     17  C   UNL     1       1.044   8.930  21.431  0.00  0.00    +0.000 C 
BRANCH  17  19
ATOM     18  C   UNL     1      -0.573   9.992  23.152  0.00  0.00    +0.000 C 
ATOM     19  C   UNL     1      -0.370   8.955  22.054  0.00  0.00    +0.000 C 
ENDBRANCH  17  19
ENDBRANCH  16  17
BRANCH  16  20
ATOM     20  C   UNL     1       1.197   9.713  19.111  0.00  0.00    +0.000 C 
BRANCH  20  21
ATOM     21  C   UNL     1       0.194   9.711  17.937  0.00  0.00    +0.000 C 
BRANCH  21  22
ATOM     22  C   UNL     1      -1.083  10.468  18.262  0.00  0.00    +0.000 A 
ATOM     23  C   UNL     1      -1.089  11.430  19.285  0.00  0.00    +0.000 A 
ATOM     24  C   UNL     1      -2.250  12.156  19.583  0.00  0.00    +0.000 A 
ATOM     25  C   UNL     1      -3.411  11.912  18.867  0.00  0.00    +0.000 A 
ATOM     26  C   UNL     1      -3.434  10.957  17.854  0.00  0.00    +0.000 A 
ATOM     27  C   UNL     1      -2.272  10.235  17.551  0.00  0.00    +0.000 A 
BRANCH  25  28
ATOM     28  O   UNL     1      -4.563  12.606  19.115  0.00  0.00    +0.000 OA
ATOM     29  H   UNL     1      -4.490  13.478  18.692  0.00  0.00    +0.000 HD
ENDBRANCH  25  28
ENDBRANCH  21  22
ENDBRANCH  20  21
ENDBRANCH  16  20
ENDBRANCH   1  16
TORSDOF 9
ENDMDL
MODEL 4
REMARK VINA RESULT:      -7.3      2.992      5.005
REMARK  Name = 
REMARK  10 active torsions:
REMARK  status: ('A' for Active; 'I' for Inactive)
REMARK    1  A    between atoms: C_1  and  C_2
REMARK    2  A    between atoms: C_2  and  C_3
REMARK    3  A    between atoms: C_3  and  N_4
REMARK    4  A    between atoms: N_4  and  C_5
REMARK    5  A    between atoms: N_4  and  C_14
REMARK    6  A    between atoms: C_5  and  C_6
REMARK    7  A    between atoms: C_6  and  C_7
REMARK    8  A    between atoms: C_10  and  O_11
REMARK    9  A    between atoms: C_19  and  O_20
REMARK   10  A    between atoms: C_21  and  O_22
REMARK                            x       y       z     vdW  Elec       q    Type
REMARK                         _______ _______ _______ _____ _____    ______ ____
ROOT
ATOM      1  C   UNL     1       5.531   5.286  18.053  0.00  0.00    +0.000 C 
ATOM      2  C   UNL     1       4.883   4.665  16.796  0.00  0.00    +0.000 C 
ATOM      3  C   UNL     1       4.725   3.170  17.009  0.00  0.00    +0.000 C 
ATOM      4  C   UNL     1       3.602   3.038  17.998  0.00  0.00    +0.000 A 
ATOM      5  C   UNL     1       2.476   2.272  17.664  0.00  0.00    +0.000 A 
ATOM      6  C   UNL     1       1.388   2.269  18.516  0.00  0.00    +0.000 A 
ATOM      7  C   UNL     1       1.448   2.919  19.746  0.00  0.00    +0.000 A 
ATOM      8  C   UNL     1       2.584   3.669  20.104  0.00  0.00    +0.000 A 
ATOM      9 CL   UNL     1       2.649   4.424  21.658  0.00  0.00    +0.000 Cl
ATOM     10  C   UNL     1       3.647   3.810  19.185  0.00  0.00    +0.000 A 
ATOM     11  C   UNL     1       4.818   4.786  19.380  0.00  0.00    +0.000 C 
ENDROOT
BRANCH   6  12
ATOM     12  O   UNL     1       0.214   1.658  18.161  0.00  0.00    +0.000 OA
ATOM     13  H   UNL     1       0.311   0.702  18.329  0.00  0.00    +0.000 HD
ENDBRANCH   6  12
BRANCH   7  14
ATOM     14  O   UNL     1       0.345   2.839  20.561  0.00  0.00    +0.000 OA
ATOM     15  H   UNL     1      -0.257   2.209  20.109  0.00  0.00    +0.000 HD
ENDBRANCH   7  14
BRANCH   1  16
ATOM     16  N   UNL     1       5.785   6.745  17.826  0.00  0.00    +0.000 NA
BRANCH  16  17
ATOM     17  C   UNL     1       7.109   7.021  17.224  0.00  0.00    +0.000 C 
BRANCH  17  19
ATOM     18  C   UNL     1       8.155   9.289  17.905  0.00  0.00    +0.000 C 
ATOM     19  C   UNL     1       8.150   7.775  18.081  0.00  0.00    +0.000 C 
ENDBRANCH  17  19
ENDBRANCH  16  17
BRANCH  16  20
ATOM     20  C   UNL     1       4.698   7.465  17.123  0.00  0.00    +0.000 C 
BRANCH  20  21
ATOM     21  C   UNL     1       3.264   6.937  17.345  0.00  0.00    +0.000 C 
BRANCH  21  22
ATOM     22  C   UNL     1       2.456   7.824  18.279  0.00  0.00    +0.000 A 
ATOM     23  C   UNL     1       2.216   7.418  19.601  0.00  0.00    +0.000 A 
ATOM     24  C   UNL     1       1.495   8.233  20.484  0.00  0.00    +0.000 A 
ATOM     25  C   UNL     1       1.002   9.451  20.042  0.00  0.00    +0.000 A 
ATOM     26  C   UNL     1       1.218   9.872  18.733  0.00  0.00    +0.000 A 
ATOM     27  C   UNL     1       1.945   9.061  17.851  0.00  0.00    +0.000 A 
BRANCH  25  28
ATOM     28  O   UNL     1       0.304  10.283  20.873  0.00  0.00    +0.000 OA
ATOM     29  H   UNL     1      -0.631  10.020  20.851  0.00  0.00    +0.000 HD
ENDBRANCH  25  28
ENDBRANCH  21  22
ENDBRANCH  20  21
ENDBRANCH  16  20
ENDBRANCH   1  16
TORSDOF 9
ENDMDL
MODEL 5
REMARK VINA RESULT:      -7.2      3.878      8.227
REMARK  Name = 
REMARK  10 active torsions:
REMARK  status: ('A' for Active; 'I' for Inactive)
REMARK    1  A    between atoms: C_1  and  C_2
REMARK    2  A    between atoms: C_2  and  C_3
REMARK    3  A    between atoms: C_3  and  N_4
REMARK    4  A    between atoms: N_4  and  C_5
REMARK    5  A    between atoms: N_4  and  C_14
REMARK    6  A    between atoms: C_5  and  C_6
REMARK    7  A    between atoms: C_6  and  C_7
REMARK    8  A    between atoms: C_10  and  O_11
REMARK    9  A    between atoms: C_19  and  O_20
REMARK   10  A    between atoms: C_21  and  O_22
REMARK                            x       y       z     vdW  Elec       q    Type
REMARK                         _______ _______ _______ _____ _____    ______ ____
ROOT
ATOM      1  C   UNL     1       1.615   7.326  19.397  0.00  0.00    +0.000 C 
ATOM      2  C   UNL     1       2.468   8.129  18.389  0.00  0.00    +0.000 C 
ATOM      3  C   UNL     1       1.590   9.169  17.717  0.00  0.00    +0.000 C 
ATOM      4  C   UNL     1       1.348  10.209  18.773  0.00  0.00    +0.000 A 
ATOM      5  C   UNL     1       1.697  11.543  18.518  0.00  0.00    +0.000 A 
ATOM      6  C   UNL     1       1.604  12.470  19.539  0.00  0.00    +0.000 A 
ATOM      7  C   UNL     1       1.061  12.115  20.771  0.00  0.00    +0.000 A 
ATOM      8  C   UNL     1       0.681  10.785  21.029  0.00  0.00    +0.000 A 
ATOM      9 CL   UNL     1      -0.035  10.386  22.552  0.00  0.00    +0.000 Cl
ATOM     10  C   UNL     1       0.907   9.791  20.053  0.00  0.00    +0.000 A 
ATOM     11  C   UNL     1       0.747   8.286  20.316  0.00  0.00    +0.000 C 
ENDROOT
BRANCH   6  12
ATOM     12  O   UNL     1       2.074  13.747  19.380  0.00  0.00    +0.000 OA
ATOM     13  H   UNL     1       2.420  13.827  18.471  0.00  0.00    +0.000 HD
ENDBRANCH   6  12
BRANCH   7  14
ATOM     14  O   UNL     1       0.960  13.097  21.727  0.00  0.00    +0.000 OA
ATOM     15  H   UNL     1       0.232  13.678  21.416  0.00  0.00    +0.000 HD
ENDBRANCH   7  14
BRANCH   1  16
ATOM     16  N   UNL     1       2.440   6.230  20.001  0.00  0.00    +0.000 NA
BRANCH  16  17
ATOM     17  C   UNL     1       1.695   5.413  20.985  0.00  0.00    +0.000 C 
BRANCH  17  19
ATOM     18  C   UNL     1       1.470   2.868  21.406  0.00  0.00    +0.000 C 
ATOM     19  C   UNL     1       1.125   4.055  20.514  0.00  0.00    +0.000 C 
ENDBRANCH  17  19
ENDBRANCH  16  17
BRANCH  16  20
ATOM     20  C   UNL     1       3.171   5.389  19.025  0.00  0.00    +0.000 C 
BRANCH  20  21
ATOM     21  C   UNL     1       4.693   5.247  19.241  0.00  0.00    +0.000 C 
BRANCH  21  22
ATOM     22  C   UNL     1       5.468   5.250  17.933  0.00  0.00    +0.000 A 
ATOM     23  C   UNL     1       6.767   4.718  17.885  0.00  0.00    +0.000 A 
ATOM     24  C   UNL     1       7.488   4.690  16.684  0.00  0.00    +0.000 A 
ATOM     25  C   UNL     1       6.916   5.204  15.531  0.00  0.00    +0.000 A 
ATOM     26  C   UNL     1       5.634   5.746  15.554  0.00  0.00    +0.000 A 
ATOM     27  C   UNL     1       4.909   5.768  16.754  0.00  0.00    +0.000 A 
BRANCH  25  28
ATOM     28  O   UNL     1       7.579   5.185  14.335  0.00  0.00    +0.000 OA
ATOM     29  H   UNL     1       8.468   4.824  14.486  0.00  0.00    +0.000 HD
ENDBRANCH  25  28
ENDBRANCH  21  22
ENDBRANCH  20  21
ENDBRANCH  16  20
ENDBRANCH   1  16
TORSDOF 9
ENDMDL
MODEL 6
REMARK VINA RESULT:      -7.1      3.560      6.662
REMARK  Name = 
REMARK  10 active torsions:
REMARK  status: ('A' for Active; 'I' for Inactive)
REMARK    1  A    between atoms: C_1  and  C_2
REMARK    2  A    between atoms: C_2  and  C_3
REMARK    3  A    between atoms: C_3  and  N_4
REMARK    4  A    between atoms: N_4  and  C_5
REMARK    5  A    between atoms: N_4  and  C_14
REMARK    6  A    between atoms: C_5  and  C_6
REMARK    7  A    between atoms: C_6  and  C_7
REMARK    8  A    between atoms: C_10  and  O_11
REMARK    9  A    between atoms: C_19  and  O_20
REMARK   10  A    between atoms: C_21  and  O_22
REMARK                            x       y       z     vdW  Elec       q    Type
REMARK                         _______ _______ _______ _____ _____    ______ ____
ROOT
ATOM      1  C   UNL     1       1.722   6.965  18.450  0.00  0.00    +0.000 C 
ATOM      2  C   UNL     1       2.269   6.987  19.894  0.00  0.00    +0.000 C 
ATOM      3  C   UNL     1       1.616   5.869  20.687  0.00  0.00    +0.000 C 
ATOM      4  C   UNL     1       2.246   4.609  20.166  0.00  0.00    +0.000 A 
ATOM      5  C   UNL     1       2.895   3.743  21.059  0.00  0.00    +0.000 A 
ATOM      6  C   UNL     1       3.594   2.660  20.559  0.00  0.00    +0.000 A 
ATOM      7  C   UNL     1       3.559   2.361  19.199  0.00  0.00    +0.000 A 
ATOM      8  C   UNL     1       2.888   3.208  18.297  0.00  0.00    +0.000 A 
ATOM      9 CL   UNL     1       2.822   2.782  16.622  0.00  0.00    +0.000 Cl
ATOM     10  C   UNL     1       2.295   4.400  18.766  0.00  0.00    +0.000 A 
ATOM     11  C   UNL     1       1.746   5.499  17.842  0.00  0.00    +0.000 C 
ENDROOT
BRANCH   6  12
ATOM     12  O   UNL     1       4.364   1.877  21.377  0.00  0.00    +0.000 OA
ATOM     13  H   UNL     1       5.280   1.907  21.045  0.00  0.00    +0.000 HD
ENDBRANCH   6  12
BRANCH   7  14
ATOM     14  O   UNL     1       4.242   1.246  18.778  0.00  0.00    +0.000 OA
ATOM     15  H   UNL     1       5.144   1.569  18.563  0.00  0.00    +0.000 HD
ENDBRANCH   7  14
BRANCH   1  16
ATOM     16  N   UNL     1       2.280   8.121  17.677  0.00  0.00    +0.000 NA
BRANCH  16  17
ATOM     17  C   UNL     1       1.862   9.438  18.211  0.00  0.00    +0.000 C 
BRANCH  17  19
ATOM     18  C   UNL     1      -0.198  10.015  19.668  0.00  0.00    +0.000 C 
ATOM     19  C   UNL     1       0.349   9.746  18.271  0.00  0.00    +0.000 C 
ENDBRANCH  17  19
ENDBRANCH  16  17
BRANCH  16  20
ATOM     20  C   UNL     1       3.741   8.062  17.436  0.00  0.00    +0.000 C 
BRANCH  20  21
ATOM     21  C   UNL     1       4.216   7.124  16.305  0.00  0.00    +0.000 C 
BRANCH  21  22
ATOM     22  C   UNL     1       5.367   6.230  16.737  0.00  0.00    +0.000 A 
ATOM     23  C   UNL     1       6.142   5.568  15.772  0.00  0.00    +0.000 A 
ATOM     24  C   UNL     1       7.222   4.759  16.150  0.00  0.00    +0.000 A 
ATOM     25  C   UNL     1       7.522   4.601  17.494  0.00  0.00    +0.000 A 
ATOM     26  C   UNL     1       6.762   5.239  18.470  0.00  0.00    +0.000 A 
ATOM     27  C   UNL     1       5.685   6.054  18.094  0.00  0.00    +0.000 A 
BRANCH  25  28
ATOM     28  O   UNL     1       8.574   3.832  17.906  0.00  0.00    +0.000 OA
ATOM     29  H   UNL     1       9.333   4.022  17.330  0.00  0.00    +0.000 HD
ENDBRANCH  25  28
ENDBRANCH  21  22
ENDBRANCH  20  21
ENDBRANCH  16  20
ENDBRANCH   1  16
TORSDOF 9
ENDMDL
MODEL 7
REMARK VINA RESULT:      -7.1      9.520     12.210
REMARK  Name = 
REMARK  10 active torsions:
REMARK  status: ('A' for Active; 'I' for Inactive)
REMARK    1  A    between atoms: C_1  and  C_2
REMARK    2  A    between atoms: C_2  and  C_3
REMARK    3  A    between atoms: C_3  and  N_4
REMARK    4  A    between atoms: N_4  and  C_5
REMARK    5  A    between atoms: N_4  and  C_14
REMARK    6  A    between atoms: C_5  and  C_6
REMARK    7  A    between atoms: C_6  and  C_7
REMARK    8  A    between atoms: C_10  and  O_11
REMARK    9  A    between atoms: C_19  and  O_20
REMARK   10  A    between atoms: C_21  and  O_22
REMARK                            x       y       z     vdW  Elec       q    Type
REMARK                         _______ _______ _______ _____ _____    ______ ____
ROOT
ATOM      1  C   UNL     1       9.923  11.760  18.300  0.00  0.00    +0.000 C 
ATOM      2  C   UNL     1      11.382  12.239  18.132  0.00  0.00    +0.000 C 
ATOM      3  C   UNL     1      11.499  13.022  16.836  0.00  0.00    +0.000 C 
ATOM      4  C   UNL     1      10.804  14.325  17.109  0.00  0.00    +0.000 A 
ATOM      5  C   UNL     1      11.502  15.528  16.932  0.00  0.00    +0.000 A 
ATOM      6  C   UNL     1      10.907  16.715  17.317  0.00  0.00    +0.000 A 
ATOM      7  C   UNL     1       9.589  16.734  17.765  0.00  0.00    +0.000 A 
ATOM      8  C   UNL     1       8.869  15.535  17.921  0.00  0.00    +0.000 A 
ATOM      9 CL   UNL     1       7.218  15.596  18.433  0.00  0.00    +0.000 Cl
ATOM     10  C   UNL     1       9.506  14.299  17.676  0.00  0.00    +0.000 A 
ATOM     11  C   UNL     1       8.892  12.937  18.036  0.00  0.00    +0.000 C 
ENDROOT
BRANCH   6  12
ATOM     12  O   UNL     1      11.606  17.893  17.303  0.00  0.00    +0.000 OA
ATOM     13  H   UNL     1      11.292  18.418  16.543  0.00  0.00    +0.000 HD
ENDBRANCH   6  12
BRANCH   7  14
ATOM     14  O   UNL     1       9.048  17.954  18.092  0.00  0.00    +0.000 OA
ATOM     15  H   UNL     1       9.255  18.074  19.045  0.00  0.00    +0.000 HD
ENDBRANCH   7  14
BRANCH   1  16
ATOM     16  N   UNL     1       9.807  10.904  19.524  0.00  0.00    +0.000 NA
BRANCH  16  17
ATOM     17  C   UNL     1       9.083  11.566  20.633  0.00  0.00    +0.000 C 
BRANCH  17  19
ATOM     18  C   UNL     1       9.618  13.968  21.435  0.00  0.00    +0.000 C 
ATOM     19  C   UNL     1       9.893  12.477  21.584  0.00  0.00    +0.000 C 
ENDBRANCH  17  19
ENDBRANCH  16  17
BRANCH  16  20
ATOM     20  C   UNL     1       9.308   9.531  19.280  0.00  0.00    +0.000 C 
BRANCH  20  21
ATOM     21  C   UNL     1       8.350   9.348  18.083  0.00  0.00    +0.000 C 
BRANCH  21  22
ATOM     22  C   UNL     1       7.858   7.916  17.946  0.00  0.00    +0.000 A 
ATOM     23  C   UNL     1       8.236   6.950  18.892  0.00  0.00    +0.000 A 
ATOM     24  C   UNL     1       7.773   5.630  18.796  0.00  0.00    +0.000 A 
ATOM     25  C   UNL     1       6.941   5.272  17.746  0.00  0.00    +0.000 A 
ATOM     26  C   UNL     1       6.561   6.209  16.790  0.00  0.00    +0.000 A 
ATOM     27  C   UNL     1       7.017   7.531  16.889  0.00  0.00    +0.000 A 
BRANCH  25  28
ATOM     28  O   UNL     1       6.456   4.000  17.622  0.00  0.00    +0.000 OA
ATOM     29  H   UNL     1       6.745   3.647  16.764  0.00  0.00    +0.000 HD
ENDBRANCH  25  28
ENDBRANCH  21  22
ENDBRANCH  20  21
ENDBRANCH  16  20
ENDBRANCH   1  16
TORSDOF 9
ENDMDL
MODEL 8
REMARK VINA RESULT:      -7.1      4.207      6.061
REMARK  Name = 
REMARK  10 active torsions:
REMARK  status: ('A' for Active; 'I' for Inactive)
REMARK    1  A    between atoms: C_1  and  C_2
REMARK    2  A    between atoms: C_2  and  C_3
REMARK    3  A    between atoms: C_3  and  N_4
REMARK    4  A    between atoms: N_4  and  C_5
REMARK    5  A    between atoms: N_4  and  C_14
REMARK    6  A    between atoms: C_5  and  C_6
REMARK    7  A    between atoms: C_6  and  C_7
REMARK    8  A    between atoms: C_10  and  O_11
REMARK    9  A    between atoms: C_19  and  O_20
REMARK   10  A    between atoms: C_21  and  O_22
REMARK                            x       y       z     vdW  Elec       q    Type
REMARK                         _______ _______ _______ _____ _____    ______ ____
ROOT
ATOM      1  C   UNL     1       3.500   3.138  18.092  0.00  0.00    +0.000 C 
ATOM      2  C   UNL     1       3.907   3.727  19.461  0.00  0.00    +0.000 C 
ATOM      3  C   UNL     1       5.384   3.465  19.693  0.00  0.00    +0.000 C 
ATOM      4  C   UNL     1       6.093   4.405  18.760  0.00  0.00    +0.000 A 
ATOM      5  C   UNL     1       7.021   5.320  19.278  0.00  0.00    +0.000 A 
ATOM      6  C   UNL     1       7.566   6.274  18.439  0.00  0.00    +0.000 A 
ATOM      7  C   UNL     1       7.290   6.259  17.074  0.00  0.00    +0.000 A 
ATOM      8  C   UNL     1       6.380   5.328  16.539  0.00  0.00    +0.000 A 
ATOM      9 CL   UNL     1       6.096   5.303  14.833  0.00  0.00    +0.000 Cl
ATOM     10  C   UNL     1       5.698   4.441  17.400  0.00  0.00    +0.000 A 
ATOM     11  C   UNL     1       4.526   3.553  16.954  0.00  0.00    +0.000 C 
ENDROOT
BRANCH   6  12
ATOM     12  O   UNL     1       8.359   7.278  18.931  0.00  0.00    +0.000 OA
ATOM     13  H   UNL     1       8.666   7.009  19.817  0.00  0.00    +0.000 HD
ENDBRANCH   6  12
BRANCH   7  14
ATOM     14  O   UNL     1       7.898   7.212  16.294  0.00  0.00    +0.000 OA
ATOM     15  H   UNL     1       7.158   7.701  15.872  0.00  0.00    +0.000 HD
ENDBRANCH   7  14
BRANCH   1  16
ATOM     16  N   UNL     1       2.025   3.300  17.887  0.00  0.00    +0.000 NA
BRANCH  16  17
ATOM     17  C   UNL     1       1.212   2.529  18.854  0.00  0.00    +0.000 C 
BRANCH  17  19
ATOM     18  C   UNL     1       1.266   2.791  21.429  0.00  0.00    +0.000 C 
ATOM     19  C   UNL     1       0.682   3.268  20.105  0.00  0.00    +0.000 C 
ENDBRANCH  17  19
ENDBRANCH  16  17
BRANCH  16  20
ATOM     20  C   UNL     1       1.562   4.703  17.770  0.00  0.00    +0.000 C 
BRANCH  20  21
ATOM     21  C   UNL     1       2.648   5.797  17.859  0.00  0.00    +0.000 C 
BRANCH  21  22
ATOM     22  C   UNL     1       2.175   7.024  18.621  0.00  0.00    +0.000 A 
ATOM     23  C   UNL     1       1.938   8.228  17.939  0.00  0.00    +0.000 A 
ATOM     24  C   UNL     1       1.479   9.362  18.621  0.00  0.00    +0.000 A 
ATOM     25  C   UNL     1       1.268   9.299  19.989  0.00  0.00    +0.000 A 
ATOM     26  C   UNL     1       1.505   8.120  20.691  0.00  0.00    +0.000 A 
ATOM     27  C   UNL     1       1.958   6.983  20.009  0.00  0.00    +0.000 A 
BRANCH  25  28
ATOM     28  O   UNL     1       0.808  10.378  20.692  0.00  0.00    +0.000 OA
ATOM     29  H   UNL     1       0.167  10.852  20.137  0.00  0.00    +0.000 HD
ENDBRANCH  25  28
ENDBRANCH  21  22
ENDBRANCH  20  21
ENDBRANCH  16  20
ENDBRANCH   1  16
TORSDOF 9
ENDMDL
MODEL 9
REMARK VINA RESULT:      -7.1      3.344      8.244
REMARK  Name = 
REMARK  10 active torsions:
REMARK  status: ('A' for Active; 'I' for Inactive)
REMARK    1  A    between atoms: C_1  and  C_2
REMARK    2  A    between atoms: C_2  and  C_3
REMARK    3  A    between atoms: C_3  and  N_4
REMARK    4  A    between atoms: N_4  and  C_5
REMARK    5  A    between atoms: N_4  and  C_14
REMARK    6  A    between atoms: C_5  and  C_6
REMARK    7  A    between atoms: C_6  and  C_7
REMARK    8  A    between atoms: C_10  and  O_11
REMARK    9  A    between atoms: C_19  and  O_20
REMARK   10  A    between atoms: C_21  and  O_22
REMARK                            x       y       z     vdW  Elec       q    Type
REMARK                         _______ _______ _______ _____ _____    ______ ____
ROOT
ATOM      1  C   UNL     1       0.951   9.442  20.413  0.00  0.00    +0.000 C 
ATOM      2  C   UNL     1      -0.175   8.812  21.263  0.00  0.00    +0.000 C 
ATOM      3  C   UNL     1      -0.091   9.359  22.677  0.00  0.00    +0.000 C 
ATOM      4  C   UNL     1      -0.577  10.777  22.572  0.00  0.00    +0.000 A 
ATOM      5  C   UNL     1      -1.659  11.194  23.360  0.00  0.00    +0.000 A 
ATOM      6  C   UNL     1      -2.192  12.453  23.159  0.00  0.00    +0.000 A 
ATOM      7  C   UNL     1      -1.594  13.343  22.270  0.00  0.00    +0.000 A 
ATOM      8  C   UNL     1      -0.490  12.944  21.493  0.00  0.00    +0.000 A 
ATOM      9 CL   UNL     1       0.261  14.087  20.434  0.00  0.00    +0.000 Cl
ATOM     10  C   UNL     1      -0.022  11.614  21.573  0.00  0.00    +0.000 A 
ATOM     11  C   UNL     1       1.014  11.016  20.609  0.00  0.00    +0.000 C 
ENDROOT
BRANCH   6  12
ATOM     12  O   UNL     1      -3.339  12.846  23.799  0.00  0.00    +0.000 OA
ATOM     13  H   UNL     1      -4.047  12.908  23.131  0.00  0.00    +0.000 HD
ENDBRANCH   6  12
BRANCH   7  14
ATOM     14  O   UNL     1      -2.152  14.592  22.151  0.00  0.00    +0.000 OA
ATOM     15  H   UNL     1      -3.120  14.444  22.228  0.00  0.00    +0.000 HD
ENDBRANCH   7  14
BRANCH   1  16
ATOM     16  N   UNL     1       0.946   8.843  19.040  0.00  0.00    +0.000 NA
BRANCH  16  17
ATOM     17  C   UNL     1       0.513   9.793  17.989  0.00  0.00    +0.000 C 
BRANCH  17  19
ATOM     18  C   UNL     1      -1.650  11.198  18.210  0.00  0.00    +0.000 C 
ATOM     19  C   UNL     1      -1.001   9.916  17.703  0.00  0.00    +0.000 C 
ENDBRANCH  17  19
ENDBRANCH  16  17
BRANCH  16  20
ATOM     20  C   UNL     1       2.190   8.134  18.664  0.00  0.00    +0.000 C 
BRANCH  20  21
ATOM     21  C   UNL     1       2.714   7.082  19.665  0.00  0.00    +0.000 C 
BRANCH  21  22
ATOM     22  C   UNL     1       2.136   5.699  19.413  0.00  0.00    +0.000 A 
ATOM     23  C   UNL     1       1.539   4.984  20.463  0.00  0.00    +0.000 A 
ATOM     24  C   UNL     1       0.979   3.719  20.244  0.00  0.00    +0.000 A 
ATOM     25  C   UNL     1       1.025   3.160  18.976  0.00  0.00    +0.000 A 
ATOM     26  C   UNL     1       1.620   3.845  17.920  0.00  0.00    +0.000 A 
ATOM     27  C   UNL     1       2.175   5.114  18.136  0.00  0.00    +0.000 A 
BRANCH  25  28
ATOM     28  O   UNL     1       0.480   1.934  18.715  0.00  0.00    +0.000 OA
ATOM     29  H   UNL     1       0.150   1.937  17.802  0.00  0.00    +0.000 HD
ENDBRANCH  25  28
ENDBRANCH  21  22
ENDBRANCH  20  21
ENDBRANCH  16  20
ENDBRANCH   1  16
TORSDOF 9
ENDMDL
