MODEL 1
REMARK VINA RESULT:      -5.9      0.000      0.000
REMARK  Name = 
REMARK  8 active torsions:
REMARK  status: ('A' for Active; 'I' for Inactive)
REMARK    1  A    between atoms: C_1  and  C_2
REMARK    2  A    between atoms: C_2  and  O_4
REMARK    3  A    between atoms: O_4  and  C_5
REMARK    4  A    between atoms: C_6  and  C_7
REMARK    5  A    between atoms: C_22  and  C_23
REMARK    6  A    between atoms: C_23  and  N_24
REMARK    7  A    between atoms: N_24  and  C_25
REMARK    8  A    between atoms: N_24  and  C_26
REMARK                            x       y       z     vdW  Elec       q    Type
REMARK                         _______ _______ _______ _____ _____    ______ ____
ROOT
ATOM      1  C   UNL     1      -0.167  12.489  19.000  0.00  0.00    +0.000 C 
ATOM      2  C   UNL     1       0.242  13.692  19.448  0.00  0.00    +0.000 C 
ATOM      3  S   UNL     1      -0.839  15.007  19.792  0.00  0.00    +0.000 S 
ATOM      4  C   UNL     1      -1.769  14.166  21.063  0.00  0.00    +0.000 A 
ATOM      5  C   UNL     1      -1.753  14.764  22.336  0.00  0.00    +0.000 A 
ATOM      6  C   UNL     1      -2.490  14.222  23.386  0.00  0.00    +0.000 A 
ATOM      7  C   UNL     1      -3.239  13.071  23.171  0.00  0.00    +0.000 A 
ATOM      8 CL   UNL     1      -4.156  12.405  24.466  0.00  0.00    +0.000 Cl
ATOM      9  C   UNL     1      -3.255  12.455  21.918  0.00  0.00    +0.000 A 
ATOM     10  C   UNL     1      -2.535  13.005  20.846  0.00  0.00    +0.000 A 
ATOM     11  N   UNL     1      -2.602  12.394  19.549  0.00  0.00    +0.000 N 
ATOM     12  C   UNL     1      -3.752  11.897  18.914  0.00  0.00    +0.000 A 
ATOM     13  C   UNL     1      -3.392  11.456  17.651  0.00  0.00    +0.000 A 
ATOM     14  C   UNL     1      -2.015  11.645  17.495  0.00  0.00    +0.000 A 
ATOM     15  C   UNL     1      -1.528  12.207  18.660  0.00  0.00    +0.000 A 
ENDROOT
BRANCH   2  16
ATOM     16  C   UNL     1       1.660  14.027  19.658  0.00  0.00    +0.000 A 
ATOM     17  C   UNL     1       2.403  14.630  18.633  0.00  0.00    +0.000 A 
ATOM     18  C   UNL     1       3.726  15.017  18.855  0.00  0.00    +0.000 A 
ATOM     19  C   UNL     1       4.318  14.801  20.099  0.00  0.00    +0.000 A 
ATOM     20  C   UNL     1       3.594  14.188  21.120  0.00  0.00    +0.000 A 
ATOM     21  C   UNL     1       2.271  13.796  20.900  0.00  0.00    +0.000 A 
ENDBRANCH   2  16
BRANCH   1  22
ATOM     22  O   UNL     1       0.775  11.510  18.599  0.00  0.00    +0.000 OA
BRANCH  22  24
ATOM     23  C   UNL     1       1.402   9.255  18.599  0.00  0.00    +0.000 C 
ATOM     24  C   UNL     1       0.926  10.421  19.418  0.00  0.00    +0.000 C 
ATOM     25  O   UNL     1       0.705  10.361  20.622  0.00  0.00    +0.000 OA
ENDBRANCH  22  24
ENDBRANCH   1  22
BRANCH  12  26
ATOM     26  C   UNL     1      -5.156  11.916  19.446  0.00  0.00    +0.000 C 
BRANCH  26  27
ATOM     27  N   UNL     1      -6.150  11.319  18.543  0.00  0.00    +0.000 NA
ATOM     28  C   UNL     1      -6.803  10.151  19.141  0.00  0.00    +0.000 C 
ATOM     29  C   UNL     1      -7.163  12.322  18.202  0.00  0.00    +0.000 C 
ENDBRANCH  26  27
ENDBRANCH  12  26
TORSDOF 5
ENDMDL
MODEL 2
REMARK VINA RESULT:      -5.7      2.859      4.618
REMARK  Name = 
REMARK  8 active torsions:
REMARK  status: ('A' for Active; 'I' for Inactive)
REMARK    1  A    between atoms: C_1  and  C_2
REMARK    2  A    between atoms: C_2  and  O_4
REMARK    3  A    between atoms: O_4  and  C_5
REMARK    4  A    between atoms: C_6  and  C_7
REMARK    5  A    between atoms: C_22  and  C_23
REMARK    6  A    between atoms: C_23  and  N_24
REMARK    7  A    between atoms: N_24  and  C_25
REMARK    8  A    between atoms: N_24  and  C_26
REMARK                            x       y       z     vdW  Elec       q    Type
REMARK                         _______ _______ _______ _____ _____    ______ ____
ROOT
ATOM      1  C   UNL     1      -1.215  12.937  21.846  0.00  0.00    +0.000 C 
ATOM      2  C   UNL     1      -1.688  14.158  22.161  0.00  0.00    +0.000 C 
ATOM      3  S   UNL     1      -2.337  15.268  20.992  0.00  0.00    +0.000 S 
ATOM      4  C   UNL     1      -3.673  14.218  20.447  0.00  0.00    +0.000 A 
ATOM      5  C   UNL     1      -4.970  14.732  20.622  0.00  0.00    +0.000 A 
ATOM      6  C   UNL     1      -6.083  14.019  20.180  0.00  0.00    +0.000 A 
ATOM      7  C   UNL     1      -5.904  12.782  19.572  0.00  0.00    +0.000 A 
ATOM      8 CL   UNL     1      -7.277  11.905  19.019  0.00  0.00    +0.000 Cl
ATOM      9  C   UNL     1      -4.624  12.250  19.404  0.00  0.00    +0.000 A 
ATOM     10  C   UNL     1      -3.494  12.969  19.823  0.00  0.00    +0.000 A 
ATOM     11  N   UNL     1      -2.180  12.437  19.596  0.00  0.00    +0.000 N 
ATOM     12  C   UNL     1      -1.720  11.809  18.427  0.00  0.00    +0.000 A 
ATOM     13  C   UNL     1      -0.379  11.507  18.598  0.00  0.00    +0.000 A 
ATOM     14  C   UNL     1       0.004  11.914  19.881  0.00  0.00    +0.000 A 
ATOM     15  C   UNL     1      -1.100  12.472  20.497  0.00  0.00    +0.000 A 
ENDROOT
BRANCH   2  16
ATOM     16  C   UNL     1      -1.670  14.693  23.532  0.00  0.00    +0.000 A 
ATOM     17  C   UNL     1      -0.638  15.549  23.943  0.00  0.00    +0.000 A 
ATOM     18  C   UNL     1      -0.658  16.117  25.218  0.00  0.00    +0.000 A 
ATOM     19  C   UNL     1      -1.707  15.832  26.093  0.00  0.00    +0.000 A 
ATOM     20  C   UNL     1      -2.729  14.970  25.700  0.00  0.00    +0.000 A 
ATOM     21  C   UNL     1      -2.709  14.397  24.426  0.00  0.00    +0.000 A 
ENDBRANCH   2  16
BRANCH   1  22
ATOM     22  O   UNL     1      -0.566  12.141  22.821  0.00  0.00    +0.000 OA
BRANCH  22  24
ATOM     23  C   UNL     1      -0.264   9.850  23.194  0.00  0.00    +0.000 C 
ATOM     24  C   UNL     1      -1.220  11.009  23.234  0.00  0.00    +0.000 C 
ATOM     25  O   UNL     1      -2.394  10.911  23.572  0.00  0.00    +0.000 OA
ENDBRANCH  22  24
ENDBRANCH   1  22
BRANCH  12  26
ATOM     26  C   UNL     1      -2.494  11.580  17.161  0.00  0.00    +0.000 C 
BRANCH  26  27
ATOM     27  N   UNL     1      -2.541  10.176  16.730  0.00  0.00    +0.000 NA
ATOM     28  C   UNL     1      -3.435   9.374  17.570  0.00  0.00    +0.000 C 
ATOM     29  C   UNL     1      -2.992  10.109  15.336  0.00  0.00    +0.000 C 
ENDBRANCH  26  27
ENDBRANCH  12  26
TORSDOF 5
ENDMDL
MODEL 3
REMARK VINA RESULT:      -5.6      3.385      5.931
REMARK  Name = 
REMARK  8 active torsions:
REMARK  status: ('A' for Active; 'I' for Inactive)
REMARK    1  A    between atoms: C_1  and  C_2
REMARK    2  A    between atoms: C_2  and  O_4
REMARK    3  A    between atoms: O_4  and  C_5
REMARK    4  A    between atoms: C_6  and  C_7
REMARK    5  A    between atoms: C_22  and  C_23
REMARK    6  A    between atoms: C_23  and  N_24
REMARK    7  A    between atoms: N_24  and  C_25
REMARK    8  A    between atoms: N_24  and  C_26
REMARK                            x       y       z     vdW  Elec       q    Type
REMARK                         _______ _______ _______ _____ _____    ______ ____
ROOT
ATOM      1  C   UNL     1      -3.327  12.334  20.047  0.00  0.00    +0.000 C 
ATOM      2  C   UNL     1      -4.157  11.874  19.091  0.00  0.00    +0.000 C 
ATOM      3  S   UNL     1      -5.888  11.982  19.188  0.00  0.00    +0.000 S 
ATOM      4  C   UNL     1      -5.968  13.764  19.263  0.00  0.00    +0.000 A 
ATOM      5  C   UNL     1      -6.685  14.392  18.229  0.00  0.00    +0.000 A 
ATOM      6  C   UNL     1      -6.857  15.774  18.221  0.00  0.00    +0.000 A 
ATOM      7  C   UNL     1      -6.303  16.537  19.243  0.00  0.00    +0.000 A 
ATOM      8 CL   UNL     1      -6.522  18.244  19.238  0.00  0.00    +0.000 Cl
ATOM      9  C   UNL     1      -5.575  15.932  20.269  0.00  0.00    +0.000 A 
ATOM     10  C   UNL     1      -5.415  14.538  20.301  0.00  0.00    +0.000 A 
ATOM     11  N   UNL     1      -4.711  13.921  21.390  0.00  0.00    +0.000 N 
ATOM     12  C   UNL     1      -4.829  14.241  22.752  0.00  0.00    +0.000 A 
ATOM     13  C   UNL     1      -4.032  13.366  23.472  0.00  0.00    +0.000 A 
ATOM     14  C   UNL     1      -3.387  12.514  22.569  0.00  0.00    +0.000 A 
ATOM     15  C   UNL     1      -3.793  12.860  21.294  0.00  0.00    +0.000 A 
ENDROOT
BRANCH   2  16
ATOM     16  C   UNL     1      -3.678  11.199  17.874  0.00  0.00    +0.000 A 
ATOM     17  C   UNL     1      -4.222  11.527  16.624  0.00  0.00    +0.000 A 
ATOM     18  C   UNL     1      -3.718  10.944  15.459  0.00  0.00    +0.000 A 
ATOM     19  C   UNL     1      -2.671  10.026  15.536  0.00  0.00    +0.000 A 
ATOM     20  C   UNL     1      -2.133   9.681  16.774  0.00  0.00    +0.000 A 
ATOM     21  C   UNL     1      -2.638  10.261  17.941  0.00  0.00    +0.000 A 
ENDBRANCH   2  16
BRANCH   1  22
ATOM     22  O   UNL     1      -1.935  12.083  19.976  0.00  0.00    +0.000 OA
BRANCH  22  24
ATOM     23  C   UNL     1      -0.708  13.326  18.417  0.00  0.00    +0.000 C 
ATOM     24  C   UNL     1      -1.113  13.174  19.856  0.00  0.00    +0.000 C 
ATOM     25  O   UNL     1      -0.734  13.920  20.751  0.00  0.00    +0.000 OA
ENDBRANCH  22  24
ENDBRANCH   1  22
BRANCH  12  26
ATOM     26  C   UNL     1      -5.728  15.278  23.362  0.00  0.00    +0.000 C 
BRANCH  26  27
ATOM     27  N   UNL     1      -7.162  14.993  23.215  0.00  0.00    +0.000 NA
ATOM     28  C   UNL     1      -7.651  14.083  24.254  0.00  0.00    +0.000 C 
ATOM     29  C   UNL     1      -7.917  16.249  23.273  0.00  0.00    +0.000 C 
ENDBRANCH  26  27
ENDBRANCH  12  26
TORSDOF 5
ENDMDL
MODEL 4
REMARK VINA RESULT:      -5.6      3.460      6.275
REMARK  Name = 
REMARK  8 active torsions:
REMARK  status: ('A' for Active; 'I' for Inactive)
REMARK    1  A    between atoms: C_1  and  C_2
REMARK    2  A    between atoms: C_2  and  O_4
REMARK    3  A    between atoms: O_4  and  C_5
REMARK    4  A    between atoms: C_6  and  C_7
REMARK    5  A    between atoms: C_22  and  C_23
REMARK    6  A    between atoms: C_23  and  N_24
REMARK    7  A    between atoms: N_24  and  C_25
REMARK    8  A    between atoms: N_24  and  C_26
REMARK                            x       y       z     vdW  Elec       q    Type
REMARK                         _______ _______ _______ _____ _____    ______ ____
ROOT
ATOM      1  C   UNL     1      -3.546  12.450  19.921  0.00  0.00    +0.000 C 
ATOM      2  C   UNL     1      -4.326  11.915  18.963  0.00  0.00    +0.000 C 
ATOM      3  S   UNL     1      -6.062  11.964  19.000  0.00  0.00    +0.000 S 
ATOM      4  C   UNL     1      -6.208  13.743  18.984  0.00  0.00    +0.000 A 
ATOM      5  C   UNL     1      -6.911  14.294  17.898  0.00  0.00    +0.000 A 
ATOM      6  C   UNL     1      -7.132  15.666  17.816  0.00  0.00    +0.000 A 
ATOM      7  C   UNL     1      -6.639  16.497  18.816  0.00  0.00    +0.000 A 
ATOM      8 CL   UNL     1      -6.918  18.193  18.719  0.00  0.00    +0.000 Cl
ATOM      9  C   UNL     1      -5.926  15.970  19.893  0.00  0.00    +0.000 A 
ATOM     10  C   UNL     1      -5.717  14.586  19.999  0.00  0.00    +0.000 A 
ATOM     11  N   UNL     1      -5.029  14.049  21.139  0.00  0.00    +0.000 N 
ATOM     12  C   UNL     1      -5.204  14.429  22.480  0.00  0.00    +0.000 A 
ATOM     13  C   UNL     1      -4.400  13.620  23.266  0.00  0.00    +0.000 A 
ATOM     14  C   UNL     1      -3.697  12.750  22.427  0.00  0.00    +0.000 A 
ATOM     15  C   UNL     1      -4.071  13.019  21.124  0.00  0.00    +0.000 A 
ENDROOT
BRANCH   2  16
ATOM     16  C   UNL     1      -3.783  11.200  17.796  0.00  0.00    +0.000 A 
ATOM     17  C   UNL     1      -4.188  11.553  16.501  0.00  0.00    +0.000 A 
ATOM     18  C   UNL     1      -3.619  10.928  15.389  0.00  0.00    +0.000 A 
ATOM     19  C   UNL     1      -2.646   9.945  15.563  0.00  0.00    +0.000 A 
ATOM     20  C   UNL     1      -2.248   9.575  16.847  0.00  0.00    +0.000 A 
ATOM     21  C   UNL     1      -2.818  10.196  17.961  0.00  0.00    +0.000 A 
ENDBRANCH   2  16
BRANCH   1  22
ATOM     22  O   UNL     1      -2.144  12.248  19.906  0.00  0.00    +0.000 OA
BRANCH  22  24
ATOM     23  C   UNL     1      -0.600  13.041  18.336  0.00  0.00    +0.000 C 
ATOM     24  C   UNL     1      -1.364  13.332  19.597  0.00  0.00    +0.000 C 
ATOM     25  O   UNL     1      -1.264  14.379  20.226  0.00  0.00    +0.000 OA
ENDBRANCH  22  24
ENDBRANCH   1  22
BRANCH  12  26
ATOM     26  C   UNL     1      -6.159  15.461  23.009  0.00  0.00    +0.000 C 
BRANCH  26  27
ATOM     27  N   UNL     1      -5.539  16.760  23.303  0.00  0.00    +0.000 NA
ATOM     28  C   UNL     1      -6.442  17.877  23.012  0.00  0.00    +0.000 C 
ATOM     29  C   UNL     1      -5.148  16.804  24.716  0.00  0.00    +0.000 C 
ENDBRANCH  26  27
ENDBRANCH  12  26
TORSDOF 5
ENDMDL
MODEL 5
REMARK VINA RESULT:      -5.5      2.993      6.889
REMARK  Name = 
REMARK  8 active torsions:
REMARK  status: ('A' for Active; 'I' for Inactive)
REMARK    1  A    between atoms: C_1  and  C_2
REMARK    2  A    between atoms: C_2  and  O_4
REMARK    3  A    between atoms: O_4  and  C_5
REMARK    4  A    between atoms: C_6  and  C_7
REMARK    5  A    between atoms: C_22  and  C_23
REMARK    6  A    between atoms: C_23  and  N_24
REMARK    7  A    between atoms: N_24  and  C_25
REMARK    8  A    between atoms: N_24  and  C_26
REMARK                            x       y       z     vdW  Elec       q    Type
REMARK                         _______ _______ _______ _____ _____    ______ ____
ROOT
ATOM      1  C   UNL     1      -2.728  12.398  19.854  0.00  0.00    +0.000 C 
ATOM      2  C   UNL     1      -3.515  13.262  20.523  0.00  0.00    +0.000 C 
ATOM      3  S   UNL     1      -2.909  14.454  21.632  0.00  0.00    +0.000 S 
ATOM      4  C   UNL     1      -1.908  15.333  20.444  0.00  0.00    +0.000 A 
ATOM      5  C   UNL     1      -2.229  16.689  20.252  0.00  0.00    +0.000 A 
ATOM      6  C   UNL     1      -1.477  17.483  19.390  0.00  0.00    +0.000 A 
ATOM      7  C   UNL     1      -0.405  16.921  18.706  0.00  0.00    +0.000 A 
ATOM      8 CL   UNL     1       0.531  17.903  17.647  0.00  0.00    +0.000 Cl
ATOM      9  C   UNL     1      -0.081  15.573  18.873  0.00  0.00    +0.000 A 
ATOM     10  C   UNL     1      -0.817  14.769  19.757  0.00  0.00    +0.000 A 
ATOM     11  N   UNL     1      -0.442  13.399  19.962  0.00  0.00    +0.000 N 
ATOM     12  C   UNL     1       0.862  12.901  20.119  0.00  0.00    +0.000 A 
ATOM     13  C   UNL     1       0.779  11.539  20.360  0.00  0.00    +0.000 A 
ATOM     14  C   UNL     1      -0.570  11.169  20.328  0.00  0.00    +0.000 A 
ATOM     15  C   UNL     1      -1.317  12.303  20.072  0.00  0.00    +0.000 A 
ENDROOT
BRANCH   2  16
ATOM     16  C   UNL     1      -4.983  13.260  20.407  0.00  0.00    +0.000 A 
ATOM     17  C   UNL     1      -5.626  14.181  19.568  0.00  0.00    +0.000 A 
ATOM     18  C   UNL     1      -7.011  14.133  19.398  0.00  0.00    +0.000 A 
ATOM     19  C   UNL     1      -7.764  13.169  20.068  0.00  0.00    +0.000 A 
ATOM     20  C   UNL     1      -7.137  12.259  20.917  0.00  0.00    +0.000 A 
ATOM     21  C   UNL     1      -5.751  12.307  21.092  0.00  0.00    +0.000 A 
ENDBRANCH   2  16
BRANCH   1  22
ATOM     22  O   UNL     1      -3.295  11.357  19.079  0.00  0.00    +0.000 OA
BRANCH  22  24
ATOM     23  C   UNL     1      -4.617  11.544  17.157  0.00  0.00    +0.000 C 
ATOM     24  C   UNL     1      -3.223  11.488  17.716  0.00  0.00    +0.000 C 
ATOM     25  O   UNL     1      -2.212  11.539  17.027  0.00  0.00    +0.000 OA
ENDBRANCH  22  24
ENDBRANCH   1  22
BRANCH  12  26
ATOM     26  C   UNL     1       2.137  13.694  20.126  0.00  0.00    +0.000 C 
BRANCH  26  27
ATOM     27  N   UNL     1       2.646  14.003  21.469  0.00  0.00    +0.000 NA
ATOM     28  C   UNL     1       4.104  14.149  21.484  0.00  0.00    +0.000 C 
ATOM     29  C   UNL     1       2.028  15.243  21.951  0.00  0.00    +0.000 C 
ENDBRANCH  26  27
ENDBRANCH  12  26
TORSDOF 5
ENDMDL
MODEL 6
REMARK VINA RESULT:      -5.5      3.284      6.172
REMARK  Name = 
REMARK  8 active torsions:
REMARK  status: ('A' for Active; 'I' for Inactive)
REMARK    1  A    between atoms: C_1  and  C_2
REMARK    2  A    between atoms: C_2  and  O_4
REMARK    3  A    between atoms: O_4  and  C_5
REMARK    4  A    between atoms: C_6  and  C_7
REMARK    5  A    between atoms: C_22  and  C_23
REMARK    6  A    between atoms: C_23  and  N_24
REMARK    7  A    between atoms: N_24  and  C_25
REMARK    8  A    between atoms: N_24  and  C_26
REMARK                            x       y       z     vdW  Elec       q    Type
REMARK                         _______ _______ _______ _____ _____    ______ ____
ROOT
ATOM      1  C   UNL     1      -3.126  12.411  20.032  0.00  0.00    +0.000 C 
ATOM      2  C   UNL     1      -4.005  11.917  19.138  0.00  0.00    +0.000 C 
ATOM      3  S   UNL     1      -5.727  11.943  19.369  0.00  0.00    +0.000 S 
ATOM      4  C   UNL     1      -5.884  13.719  19.464  0.00  0.00    +0.000 A 
ATOM      5  C   UNL     1      -6.707  14.317  18.494  0.00  0.00    +0.000 A 
ATOM      6  C   UNL     1      -6.944  15.689  18.510  0.00  0.00    +0.000 A 
ATOM      7  C   UNL     1      -6.348  16.473  19.492  0.00  0.00    +0.000 A 
ATOM      8 CL   UNL     1      -6.646  18.168  19.517  0.00  0.00    +0.000 Cl
ATOM      9  C   UNL     1      -5.517  15.898  20.454  0.00  0.00    +0.000 A 
ATOM     10  C   UNL     1      -5.289  14.513  20.463  0.00  0.00    +0.000 A 
ATOM     11  N   UNL     1      -4.476  13.926  21.489  0.00  0.00    +0.000 N 
ATOM     12  C   UNL     1      -4.503  14.233  22.860  0.00  0.00    +0.000 A 
ATOM     13  C   UNL     1      -3.612  13.394  23.509  0.00  0.00    +0.000 A 
ATOM     14  C   UNL     1      -3.000  12.577  22.552  0.00  0.00    +0.000 A 
ATOM     15  C   UNL     1      -3.519  12.910  21.314  0.00  0.00    +0.000 A 
ENDROOT
BRANCH   2  16
ATOM     16  C   UNL     1      -3.591  11.271  17.883  0.00  0.00    +0.000 A 
ATOM     17  C   UNL     1      -2.581  10.299  17.889  0.00  0.00    +0.000 A 
ATOM     18  C   UNL     1      -2.237   9.630  16.712  0.00  0.00    +0.000 A 
ATOM     19  C   UNL     1      -2.897   9.930  15.521  0.00  0.00    +0.000 A 
ATOM     20  C   UNL     1      -3.891  10.906  15.500  0.00  0.00    +0.000 A 
ATOM     21  C   UNL     1      -4.234  11.580  16.675  0.00  0.00    +0.000 A 
ENDBRANCH   2  16
BRANCH   1  22
ATOM     22  O   UNL     1      -1.733  12.227  19.851  0.00  0.00    +0.000 OA
BRANCH  22  24
ATOM     23  C   UNL     1      -0.382  13.177  18.193  0.00  0.00    +0.000 C 
ATOM     24  C   UNL     1      -0.993  13.342  19.556  0.00  0.00    +0.000 C 
ATOM     25  O   UNL     1      -0.819  14.327  20.265  0.00  0.00    +0.000 OA
ENDBRANCH  22  24
ENDBRANCH   1  22
BRANCH  12  26
ATOM     26  C   UNL     1      -5.399  15.224  23.545  0.00  0.00    +0.000 C 
BRANCH  26  27
ATOM     27  N   UNL     1      -4.684  16.299  24.247  0.00  0.00    +0.000 NA
ATOM     28  C   UNL     1      -3.609  16.868  23.430  0.00  0.00    +0.000 C 
ATOM     29  C   UNL     1      -5.631  17.357  24.612  0.00  0.00    +0.000 C 
ENDBRANCH  26  27
ENDBRANCH  12  26
TORSDOF 5
ENDMDL
MODEL 7
REMARK VINA RESULT:      -5.5      3.291      5.921
REMARK  Name = 
REMARK  8 active torsions:
REMARK  status: ('A' for Active; 'I' for Inactive)
REMARK    1  A    between atoms: C_1  and  C_2
REMARK    2  A    between atoms: C_2  and  O_4
REMARK    3  A    between atoms: O_4  and  C_5
REMARK    4  A    between atoms: C_6  and  C_7
REMARK    5  A    between atoms: C_22  and  C_23
REMARK    6  A    between atoms: C_23  and  N_24
REMARK    7  A    between atoms: N_24  and  C_25
REMARK    8  A    between atoms: N_24  and  C_26
REMARK                            x       y       z     vdW  Elec       q    Type
REMARK                         _______ _______ _______ _____ _____    ______ ____
ROOT
ATOM      1  C   UNL     1      -3.145  12.434  20.105  0.00  0.00    +0.000 C 
ATOM      2  C   UNL     1      -4.001  11.934  19.193  0.00  0.00    +0.000 C 
ATOM      3  S   UNL     1      -5.727  11.948  19.387  0.00  0.00    +0.000 S 
ATOM      4  C   UNL     1      -5.898  13.723  19.478  0.00  0.00    +0.000 A 
ATOM      5  C   UNL     1      -6.703  14.315  18.489  0.00  0.00    +0.000 A 
ATOM      6  C   UNL     1      -6.950  15.686  18.500  0.00  0.00    +0.000 A 
ATOM      7  C   UNL     1      -6.381  16.474  19.493  0.00  0.00    +0.000 A 
ATOM      8 CL   UNL     1      -6.691  18.167  19.512  0.00  0.00    +0.000 Cl
ATOM      9  C   UNL     1      -5.566  15.906  20.474  0.00  0.00    +0.000 A 
ATOM     10  C   UNL     1      -5.330  14.522  20.488  0.00  0.00    +0.000 A 
ATOM     11  N   UNL     1      -4.535  13.940  21.532  0.00  0.00    +0.000 N 
ATOM     12  C   UNL     1      -4.593  14.248  22.901  0.00  0.00    +0.000 A 
ATOM     13  C   UNL     1      -3.711  13.415  23.570  0.00  0.00    +0.000 A 
ATOM     14  C   UNL     1      -3.074  12.602  22.627  0.00  0.00    +0.000 A 
ATOM     15  C   UNL     1      -3.568  12.930  21.378  0.00  0.00    +0.000 A 
ENDROOT
BRANCH   2  16
ATOM     16  C   UNL     1      -3.555  11.290  17.947  0.00  0.00    +0.000 A 
ATOM     17  C   UNL     1      -2.537  10.326  17.975  0.00  0.00    +0.000 A 
ATOM     18  C   UNL     1      -2.164   9.658  16.807  0.00  0.00    +0.000 A 
ATOM     19  C   UNL     1      -2.802   9.952  15.601  0.00  0.00    +0.000 A 
ATOM     20  C   UNL     1      -3.804  10.920  15.559  0.00  0.00    +0.000 A 
ATOM     21  C   UNL     1      -4.176  11.592  16.726  0.00  0.00    +0.000 A 
ENDBRANCH   2  16
BRANCH   1  22
ATOM     22  O   UNL     1      -1.747  12.259  19.954  0.00  0.00    +0.000 OA
BRANCH  22  24
ATOM     23  C   UNL     1      -0.476  13.296  18.286  0.00  0.00    +0.000 C 
ATOM     24  C   UNL     1      -1.006  13.381  19.689  0.00  0.00    +0.000 C 
ATOM     25  O   UNL     1      -0.776  14.316  20.448  0.00  0.00    +0.000 OA
ENDBRANCH  22  24
ENDBRANCH   1  22
BRANCH  12  26
ATOM     26  C   UNL     1      -5.511  15.234  23.567  0.00  0.00    +0.000 C 
BRANCH  26  27
ATOM     27  N   UNL     1      -6.818  14.679  23.944  0.00  0.00    +0.000 NA
ATOM     28  C   UNL     1      -7.908  15.257  23.153  0.00  0.00    +0.000 C 
ATOM     29  C   UNL     1      -6.802  13.224  23.760  0.00  0.00    +0.000 C 
ENDBRANCH  26  27
ENDBRANCH  12  26
TORSDOF 5
ENDMDL
MODEL 8
REMARK VINA RESULT:      -5.4      3.233      6.999
REMARK  Name = 
REMARK  8 active torsions:
REMARK  status: ('A' for Active; 'I' for Inactive)
REMARK    1  A    between atoms: C_1  and  C_2
REMARK    2  A    between atoms: C_2  and  O_4
REMARK    3  A    between atoms: O_4  and  C_5
REMARK    4  A    between atoms: C_6  and  C_7
REMARK    5  A    between atoms: C_22  and  C_23
REMARK    6  A    between atoms: C_23  and  N_24
REMARK    7  A    between atoms: N_24  and  C_25
REMARK    8  A    between atoms: N_24  and  C_26
REMARK                            x       y       z     vdW  Elec       q    Type
REMARK                         _______ _______ _______ _____ _____    ______ ____
ROOT
ATOM      1  C   UNL     1      -1.462  12.972  20.439  0.00  0.00    +0.000 C 
ATOM      2  C   UNL     1      -2.419  13.724  21.015  0.00  0.00    +0.000 C 
ATOM      3  S   UNL     1      -2.117  15.276  21.736  0.00  0.00    +0.000 S 
ATOM      4  C   UNL     1      -1.527  16.069  20.249  0.00  0.00    +0.000 A 
ATOM      5  C   UNL     1      -2.257  17.190  19.818  0.00  0.00    +0.000 A 
ATOM      6  C   UNL     1      -1.851  17.918  18.702  0.00  0.00    +0.000 A 
ATOM      7  C   UNL     1      -0.717  17.520  18.004  0.00  0.00    +0.000 A 
ATOM      8 CL   UNL     1      -0.210  18.423  16.629  0.00  0.00    +0.000 Cl
ATOM      9  C   UNL     1       0.012  16.401  18.408  0.00  0.00    +0.000 A 
ATOM     10  C   UNL     1      -0.374  15.673  19.545  0.00  0.00    +0.000 A 
ATOM     11  N   UNL     1       0.414  14.557  19.984  0.00  0.00    +0.000 N 
ATOM     12  C   UNL     1       1.816  14.493  20.048  0.00  0.00    +0.000 A 
ATOM     13  C   UNL     1       2.168  13.267  20.589  0.00  0.00    +0.000 A 
ATOM     14  C   UNL     1       0.997  12.544  20.840  0.00  0.00    +0.000 A 
ATOM     15  C   UNL     1      -0.076  13.327  20.459  0.00  0.00    +0.000 A 
ENDROOT
BRANCH   2  16
ATOM     16  C   UNL     1      -3.821  13.290  21.123  0.00  0.00    +0.000 A 
ATOM     17  C   UNL     1      -4.400  13.079  22.382  0.00  0.00    +0.000 A 
ATOM     18  C   UNL     1      -5.751  12.741  22.490  0.00  0.00    +0.000 A 
ATOM     19  C   UNL     1      -6.531  12.605  21.342  0.00  0.00    +0.000 A 
ATOM     20  C   UNL     1      -5.961  12.797  20.084  0.00  0.00    +0.000 A 
ATOM     21  C   UNL     1      -4.609  13.132  19.973  0.00  0.00    +0.000 A 
ENDBRANCH   2  16
BRANCH   1  22
ATOM     22  O   UNL     1      -1.746  11.654  20.002  0.00  0.00    +0.000 OA
BRANCH  22  24
ATOM     23  C   UNL     1      -0.721  10.183  18.498  0.00  0.00    +0.000 C 
ATOM     24  C   UNL     1      -1.591  11.398  18.664  0.00  0.00    +0.000 C 
ATOM     25  O   UNL     1      -2.053  12.036  17.726  0.00  0.00    +0.000 OA
ENDBRANCH  22  24
ENDBRANCH   1  22
BRANCH  12  26
ATOM     26  C   UNL     1       2.787  15.582  19.693  0.00  0.00    +0.000 C 
BRANCH  26  27
ATOM     27  N   UNL     1       3.847  15.165  18.765  0.00  0.00    +0.000 NA
ATOM     28  C   UNL     1       3.596  15.630  17.399  0.00  0.00    +0.000 C 
ATOM     29  C   UNL     1       5.135  15.690  19.230  0.00  0.00    +0.000 C 
ENDBRANCH  26  27
ENDBRANCH  12  26
TORSDOF 5
ENDMDL
MODEL 9
REMARK VINA RESULT:      -5.4      3.500      5.973
REMARK  Name = 
REMARK  8 active torsions:
REMARK  status: ('A' for Active; 'I' for Inactive)
REMARK    1  A    between atoms: C_1  and  C_2
REMARK    2  A    between atoms: C_2  and  O_4
REMARK    3  A    between atoms: O_4  and  C_5
REMARK    4  A    between atoms: C_6  and  C_7
REMARK    5  A    between atoms: C_22  and  C_23
REMARK    6  A    between atoms: C_23  and  N_24
REMARK    7  A    between atoms: N_24  and  C_25
REMARK    8  A    between atoms: N_24  and  C_26
REMARK                            x       y       z     vdW  Elec       q    Type
REMARK                         _______ _______ _______ _____ _____    ______ ____
ROOT
ATOM      1  C   UNL     1      -0.866  13.690  22.791  0.00  0.00    +0.000 C 
ATOM      2  C   UNL     1      -1.535  12.521  22.766  0.00  0.00    +0.000 C 
ATOM      3  S   UNL     1      -3.167  12.336  23.332  0.00  0.00    +0.000 S 
ATOM      4  C   UNL     1      -3.903  13.486  22.182  0.00  0.00    +0.000 A 
ATOM      5  C   UNL     1      -4.881  12.956  21.322  0.00  0.00    +0.000 A 
ATOM      6  C   UNL     1      -5.559  13.777  20.424  0.00  0.00    +0.000 A 
ATOM      7  C   UNL     1      -5.253  15.132  20.374  0.00  0.00    +0.000 A 
ATOM      8 CL   UNL     1      -6.096  16.148  19.269  0.00  0.00    +0.000 Cl
ATOM      9  C   UNL     1      -4.275  15.673  21.209  0.00  0.00    +0.000 A 
ATOM     10  C   UNL     1      -3.601  14.860  22.135  0.00  0.00    +0.000 A 
ATOM     11  N   UNL     1      -2.636  15.437  23.026  0.00  0.00    +0.000 N 
ATOM     12  C   UNL     1      -2.758  16.649  23.725  0.00  0.00    +0.000 A 
ATOM     13  C   UNL     1      -1.637  16.803  24.525  0.00  0.00    +0.000 A 
ATOM     14  C   UNL     1      -0.793  15.707  24.313  0.00  0.00    +0.000 A 
ATOM     15  C   UNL     1      -1.397  14.877  23.388  0.00  0.00    +0.000 A 
ENDROOT
BRANCH   2  16
ATOM     16  C   UNL     1      -0.934  11.266  22.286  0.00  0.00    +0.000 A 
ATOM     17  C   UNL     1      -0.572  10.262  23.196  0.00  0.00    +0.000 A 
ATOM     18  C   UNL     1      -0.072   9.041  22.738  0.00  0.00    +0.000 A 
ATOM     19  C   UNL     1       0.073   8.816  21.370  0.00  0.00    +0.000 A 
ATOM     20  C   UNL     1      -0.268   9.812  20.457  0.00  0.00    +0.000 A 
ATOM     21  C   UNL     1      -0.765  11.036  20.913  0.00  0.00    +0.000 A 
ENDBRANCH   2  16
BRANCH   1  22
ATOM     22  O   UNL     1       0.509  13.741  22.453  0.00  0.00    +0.000 OA
BRANCH  22  24
ATOM     23  C   UNL     1       2.070  13.540  20.721  0.00  0.00    +0.000 C 
ATOM     24  C   UNL     1       0.824  14.224  21.209  0.00  0.00    +0.000 C 
ATOM     25  O   UNL     1       0.225  15.082  20.571  0.00  0.00    +0.000 OA
ENDBRANCH  22  24
ENDBRANCH   1  22
BRANCH  12  26
ATOM     26  C   UNL     1      -3.930  17.589  23.705  0.00  0.00    +0.000 C 
BRANCH  26  27
ATOM     27  N   UNL     1      -4.986  17.254  24.670  0.00  0.00    +0.000 NA
ATOM     28  C   UNL     1      -5.187  18.319  25.656  0.00  0.00    +0.000 C 
ATOM     29  C   UNL     1      -6.242  17.011  23.952  0.00  0.00    +0.000 C 
ENDBRANCH  26  27
ENDBRANCH  12  26
TORSDOF 5
ENDMDL
