MODEL 1
REMARK VINA RESULT:      -7.6      0.000      0.000
REMARK  Name = 
REMARK  9 active torsions:
REMARK  status: ('A' for Active; 'I' for Inactive)
REMARK    1  A    between atoms: C_1  and  C_2
REMARK    2  A    between atoms: N_6  and  C_7
REMARK    3  A    between atoms: C_7  and  C_8
REMARK    4  A    between atoms: C_8  and  C_9
REMARK    5  A    between atoms: C_9  and  C_10
REMARK    6  A    between atoms: C_10  and  C_11
REMARK    7  A    between atoms: C_11  and  C_12
REMARK    8  A    between atoms: C_12  and  O_13
REMARK    9  A    between atoms: O_13  and  C_14
REMARK                            x       y       z     vdW  Elec       q    Type
REMARK                         _______ _______ _______ _____ _____    ______ ____
ROOT
ATOM      1  C   UNL     1       7.317   5.793  17.053  0.00  0.00    +0.000 C 
ENDROOT
BRANCH   1   2
ATOM      2  C   UNL     1       7.621   6.854  18.098  0.00  0.00    +0.000 C 
BRANCH   2   3
ATOM      3  C   UNL     1       7.763   8.238  17.468  0.00  0.00    +0.000 C 
BRANCH   3   4
ATOM      4  C   UNL     1       8.495   9.179  18.405  0.00  0.00    +0.000 C 
BRANCH   4   5
ATOM      5  C   UNL     1       8.368  10.649  17.979  0.00  0.00    +0.000 C 
BRANCH   5  11
ATOM      6  C   UNL     1      11.365  13.859  18.297  0.00  0.00    +0.000 C 
ATOM      7  C   UNL     1      11.744  12.375  18.385  0.00  0.00    +0.000 C 
ATOM      8  C   UNL     1      12.022  11.941  19.828  0.00  0.00    +0.000 C 
ATOM      9  C   UNL     1      10.741  11.922  20.648  0.00  0.00    +0.000 C 
ATOM     10  C   UNL     1       9.666  11.085  19.963  0.00  0.00    +0.000 C 
ATOM     11  N   UNL     1       9.410  11.507  18.576  0.00  0.00    +0.000 NA
ATOM     12  C   UNL     1      10.648  11.481  17.777  0.00  0.00    +0.000 C 
ENDBRANCH   5  11
ENDBRANCH   4   5
ENDBRANCH   3   4
ENDBRANCH   2   3
ENDBRANCH   1   2
BRANCH   1  13
ATOM     13  C   UNL     1       5.844   5.781  16.682  0.00  0.00    +0.000 C 
BRANCH  13  14
ATOM     14  O   UNL     1       5.171   4.847  17.520  0.00  0.00    +0.000 OA
BRANCH  14  15
ATOM     15  C   UNL     1       4.189   5.393  18.311  0.00  0.00    +0.000 A 
ATOM     16  C   UNL     1       3.705   6.692  18.108  0.00  0.00    +0.000 A 
ATOM     17  C   UNL     1       2.693   7.197  18.905  0.00  0.00    +0.000 A 
ATOM     18  C   UNL     1       2.132   6.405  19.905  0.00  0.00    +0.000 A 
ATOM     19  C   UNL     1       2.579   5.093  20.114  0.00  0.00    +0.000 A 
ATOM     20  C   UNL     1       1.994   4.290  21.103  0.00  0.00    +0.000 A 
ATOM     21  C   UNL     1       2.416   2.985  21.319  0.00  0.00    +0.000 A 
ATOM     22  C   UNL     1       3.449   2.451  20.539  0.00  0.00    +0.000 A 
ATOM     23  C   UNL     1       4.042   3.245  19.549  0.00  0.00    +0.000 A 
ATOM     24  C   UNL     1       3.622   4.567  19.309  0.00  0.00    +0.000 A 
ENDBRANCH  14  15
ENDBRANCH  13  14
ENDBRANCH   1  13
TORSDOF 8
ENDMDL
MODEL 2
REMARK VINA RESULT:      -7.6      1.185      1.928
REMARK  Name = 
REMARK  9 active torsions:
REMARK  status: ('A' for Active; 'I' for Inactive)
REMARK    1  A    between atoms: C_1  and  C_2
REMARK    2  A    between atoms: N_6  and  C_7
REMARK    3  A    between atoms: C_7  and  C_8
REMARK    4  A    between atoms: C_8  and  C_9
REMARK    5  A    between atoms: C_9  and  C_10
REMARK    6  A    between atoms: C_10  and  C_11
REMARK    7  A    between atoms: C_11  and  C_12
REMARK    8  A    between atoms: C_12  and  O_13
REMARK    9  A    between atoms: O_13  and  C_14
REMARK                            x       y       z     vdW  Elec       q    Type
REMARK                         _______ _______ _______ _____ _____    ______ ____
ROOT
ATOM      1  C   UNL     1       7.250   5.967  17.233  0.00  0.00    +0.000 C 
ENDROOT
BRANCH   1   2
ATOM      2  C   UNL     1       7.782   6.997  18.218  0.00  0.00    +0.000 C 
BRANCH   2   3
ATOM      3  C   UNL     1       7.726   8.409  17.638  0.00  0.00    +0.000 C 
BRANCH   3   4
ATOM      4  C   UNL     1       8.584   9.356  18.454  0.00  0.00    +0.000 C 
BRANCH   4   5
ATOM      5  C   UNL     1       8.707  10.743  17.806  0.00  0.00    +0.000 C 
BRANCH   5  11
ATOM      6  C   UNL     1      11.567  14.034  18.423  0.00  0.00    +0.000 C 
ATOM      7  C   UNL     1      11.994  12.562  18.466  0.00  0.00    +0.000 C 
ATOM      8  C   UNL     1      12.213  12.071  19.901  0.00  0.00    +0.000 C 
ATOM      9  C   UNL     1      10.893  11.972  20.651  0.00  0.00    +0.000 C 
ATOM     10  C   UNL     1       9.886  11.132  19.874  0.00  0.00    +0.000 C 
ATOM     11  N   UNL     1       9.687  11.607  18.494  0.00  0.00    +0.000 NA
ATOM     12  C   UNL     1      10.964  11.660  17.762  0.00  0.00    +0.000 C 
ENDBRANCH   5  11
ENDBRANCH   4   5
ENDBRANCH   3   4
ENDBRANCH   2   3
ENDBRANCH   1   2
BRANCH   1  13
ATOM     13  C   UNL     1       5.847   6.314  16.767  0.00  0.00    +0.000 C 
BRANCH  13  14
ATOM     14  O   UNL     1       4.946   6.120  17.852  0.00  0.00    +0.000 OA
BRANCH  14  15
ATOM     15  C   UNL     1       4.125   5.025  17.725  0.00  0.00    +0.000 A 
ATOM     16  C   UNL     1       4.331   4.050  16.740  0.00  0.00    +0.000 A 
ATOM     17  C   UNL     1       3.503   2.944  16.662  0.00  0.00    +0.000 A 
ATOM     18  C   UNL     1       2.467   2.783  17.581  0.00  0.00    +0.000 A 
ATOM     19  C   UNL     1       2.254   3.729  18.592  0.00  0.00    +0.000 A 
ATOM     20  C   UNL     1       1.228   3.550  19.531  0.00  0.00    +0.000 A 
ATOM     21  C   UNL     1       1.007   4.471  20.547  0.00  0.00    +0.000 A 
ATOM     22  C   UNL     1       1.819   5.607  20.642  0.00  0.00    +0.000 A 
ATOM     23  C   UNL     1       2.845   5.798  19.708  0.00  0.00    +0.000 A 
ATOM     24  C   UNL     1       3.091   4.871  18.677  0.00  0.00    +0.000 A 
ENDBRANCH  14  15
ENDBRANCH  13  14
ENDBRANCH   1  13
TORSDOF 8
ENDMDL
MODEL 3
REMARK VINA RESULT:      -7.6      5.015      7.345
REMARK  Name = 
REMARK  9 active torsions:
REMARK  status: ('A' for Active; 'I' for Inactive)
REMARK    1  A    between atoms: C_1  and  C_2
REMARK    2  A    between atoms: N_6  and  C_7
REMARK    3  A    between atoms: C_7  and  C_8
REMARK    4  A    between atoms: C_8  and  C_9
REMARK    5  A    between atoms: C_9  and  C_10
REMARK    6  A    between atoms: C_10  and  C_11
REMARK    7  A    between atoms: C_11  and  C_12
REMARK    8  A    between atoms: C_12  and  O_13
REMARK    9  A    between atoms: O_13  and  C_14
REMARK                            x       y       z     vdW  Elec       q    Type
REMARK                         _______ _______ _______ _____ _____    ______ ____
ROOT
ATOM      1  C   UNL     1       2.085   3.919  21.291  0.00  0.00    +0.000 C 
ENDROOT
BRANCH   1   2
ATOM      2  C   UNL     1       1.704   2.532  20.796  0.00  0.00    +0.000 C 
BRANCH   2   3
ATOM      3  C   UNL     1       1.729   2.455  19.271  0.00  0.00    +0.000 C 
BRANCH   3   4
ATOM      4  C   UNL     1       3.073   1.948  18.784  0.00  0.00    +0.000 C 
BRANCH   4   5
ATOM      5  C   UNL     1       3.454   2.521  17.410  0.00  0.00    +0.000 C 
BRANCH   5  11
ATOM      6  C   UNL     1       5.071   6.443  16.233  0.00  0.00    +0.000 C 
ATOM      7  C   UNL     1       5.976   5.237  16.512  0.00  0.00    +0.000 C 
ATOM      8  C   UNL     1       6.659   5.340  17.880  0.00  0.00    +0.000 C 
ATOM      9  C   UNL     1       5.654   5.165  19.007  0.00  0.00    +0.000 C 
ATOM     10  C   UNL     1       4.852   3.881  18.829  0.00  0.00    +0.000 C 
ATOM     11  N   UNL     1       4.203   3.789  17.510  0.00  0.00    +0.000 NA
ATOM     12  C   UNL     1       5.190   3.916  16.424  0.00  0.00    +0.000 C 
ENDBRANCH   5  11
ENDBRANCH   4   5
ENDBRANCH   3   4
ENDBRANCH   2   3
ENDBRANCH   1   2
BRANCH   1  13
ATOM     13  C   UNL     1       1.673   4.997  20.304  0.00  0.00    +0.000 C 
BRANCH  13  14
ATOM     14  O   UNL     1       2.101   6.259  20.804  0.00  0.00    +0.000 OA
BRANCH  14  15
ATOM     15  C   UNL     1       1.944   7.305  19.927  0.00  0.00    +0.000 A 
ATOM     16  C   UNL     1       2.340   7.220  18.586  0.00  0.00    +0.000 A 
ATOM     17  C   UNL     1       2.137   8.282  17.724  0.00  0.00    +0.000 A 
ATOM     18  C   UNL     1       1.513   9.442  18.182  0.00  0.00    +0.000 A 
ATOM     19  C   UNL     1       1.084   9.547  19.512  0.00  0.00    +0.000 A 
ATOM     20  C   UNL     1       0.434  10.704  19.963  0.00  0.00    +0.000 A 
ATOM     21  C   UNL     1      -0.008  10.823  21.274  0.00  0.00    +0.000 A 
ATOM     22  C   UNL     1       0.198   9.770  22.174  0.00  0.00    +0.000 A 
ATOM     23  C   UNL     1       0.848   8.609  21.735  0.00  0.00    +0.000 A 
ATOM     24  C   UNL     1       1.295   8.466  20.408  0.00  0.00    +0.000 A 
ENDBRANCH  14  15
ENDBRANCH  13  14
ENDBRANCH   1  13
TORSDOF 8
ENDMDL
MODEL 4
REMARK VINA RESULT:      -7.3      4.253      7.071
REMARK  Name = 
REMARK  9 active torsions:
REMARK  status: ('A' for Active; 'I' for Inactive)
REMARK    1  A    between atoms: C_1  and  C_2
REMARK    2  A    between atoms: N_6  and  C_7
REMARK    3  A    between atoms: C_7  and  C_8
REMARK    4  A    between atoms: C_8  and  C_9
REMARK    5  A    between atoms: C_9  and  C_10
REMARK    6  A    between atoms: C_10  and  C_11
REMARK    7  A    between atoms: C_11  and  C_12
REMARK    8  A    between atoms: C_12  and  O_13
REMARK    9  A    between atoms: O_13  and  C_14
REMARK                            x       y       z     vdW  Elec       q    Type
REMARK                         _______ _______ _______ _____ _____    ______ ____
ROOT
ATOM      1  C   UNL     1       1.976   4.228  20.752  0.00  0.00    +0.000 C 
ENDROOT
BRANCH   1   2
ATOM      2  C   UNL     1       1.583   3.214  19.688  0.00  0.00    +0.000 C 
BRANCH   2   3
ATOM      3  C   UNL     1       2.037   3.656  18.299  0.00  0.00    +0.000 C 
BRANCH   3   4
ATOM      4  C   UNL     1       3.259   2.873  17.862  0.00  0.00    +0.000 C 
BRANCH   4   5
ATOM      5  C   UNL     1       4.554   3.400  18.498  0.00  0.00    +0.000 C 
BRANCH   5  11
ATOM      6  C   UNL     1       7.217   6.721  17.374  0.00  0.00    +0.000 C 
ATOM      7  C   UNL     1       5.699   6.785  17.166  0.00  0.00    +0.000 C 
ATOM      8  C   UNL     1       5.312   6.567  15.700  0.00  0.00    +0.000 C 
ATOM      9  C   UNL     1       5.562   5.128  15.277  0.00  0.00    +0.000 C 
ATOM     10  C   UNL     1       4.882   4.153  16.231  0.00  0.00    +0.000 C 
ATOM     11  N   UNL     1       5.255   4.373  17.638  0.00  0.00    +0.000 NA
ATOM     12  C   UNL     1       4.969   5.758  18.052  0.00  0.00    +0.000 C 
ENDBRANCH   5  11
ENDBRANCH   4   5
ENDBRANCH   3   4
ENDBRANCH   2   3
ENDBRANCH   1   2
BRANCH   1  13
ATOM     13  C   UNL     1       1.321   5.575  20.508  0.00  0.00    +0.000 C 
BRANCH  13  14
ATOM     14  O   UNL     1       2.337   6.569  20.437  0.00  0.00    +0.000 OA
BRANCH  14  15
ATOM     15  C   UNL     1       1.975   7.711  19.763  0.00  0.00    +0.000 A 
ATOM     16  C   UNL     1       2.255   7.893  18.403  0.00  0.00    +0.000 A 
ATOM     17  C   UNL     1       1.848   9.042  17.749  0.00  0.00    +0.000 A 
ATOM     18  C   UNL     1       1.133  10.020  18.439  0.00  0.00    +0.000 A 
ATOM     19  C   UNL     1       0.817   9.854  19.794  0.00  0.00    +0.000 A 
ATOM     20  C   UNL     1       0.076  10.828  20.478  0.00  0.00    +0.000 A 
ATOM     21  C   UNL     1      -0.256  10.677  21.818  0.00  0.00    +0.000 A 
ATOM     22  C   UNL     1       0.157   9.531  22.510  0.00  0.00    +0.000 A 
ATOM     23  C   UNL     1       0.899   8.553  21.837  0.00  0.00    +0.000 A 
ATOM     24  C   UNL     1       1.237   8.683  20.477  0.00  0.00    +0.000 A 
ENDBRANCH  14  15
ENDBRANCH  13  14
ENDBRANCH   1  13
TORSDOF 8
ENDMDL
MODEL 5
REMARK VINA RESULT:      -7.3      4.911      7.252
REMARK  Name = 
REMARK  9 active torsions:
REMARK  status: ('A' for Active; 'I' for Inactive)
REMARK    1  A    between atoms: C_1  and  C_2
REMARK    2  A    between atoms: N_6  and  C_7
REMARK    3  A    between atoms: C_7  and  C_8
REMARK    4  A    between atoms: C_8  and  C_9
REMARK    5  A    between atoms: C_9  and  C_10
REMARK    6  A    between atoms: C_10  and  C_11
REMARK    7  A    between atoms: C_11  and  C_12
REMARK    8  A    between atoms: C_12  and  O_13
REMARK    9  A    between atoms: O_13  and  C_14
REMARK                            x       y       z     vdW  Elec       q    Type
REMARK                         _______ _______ _______ _____ _____    ______ ____
ROOT
ATOM      1  C   UNL     1       1.082   4.106  20.110  0.00  0.00    +0.000 C 
ENDROOT
BRANCH   1   2
ATOM      2  C   UNL     1       1.203   3.531  18.708  0.00  0.00    +0.000 C 
BRANCH   2   3
ATOM      3  C   UNL     1       2.008   2.233  18.701  0.00  0.00    +0.000 C 
BRANCH   3   4
ATOM      4  C   UNL     1       3.445   2.497  18.295  0.00  0.00    +0.000 C 
BRANCH   4   5
ATOM      5  C   UNL     1       3.556   3.529  17.163  0.00  0.00    +0.000 C 
BRANCH   5  11
ATOM      6  C   UNL     1       7.751   4.577  17.997  0.00  0.00    +0.000 C 
ATOM      7  C   UNL     1       6.751   5.594  17.433  0.00  0.00    +0.000 C 
ATOM      8  C   UNL     1       6.964   5.836  15.935  0.00  0.00    +0.000 C 
ATOM      9  C   UNL     1       6.563   4.614  15.123  0.00  0.00    +0.000 C 
ATOM     10  C   UNL     1       5.145   4.171  15.467  0.00  0.00    +0.000 C 
ATOM     11  N   UNL     1       4.949   3.947  16.909  0.00  0.00    +0.000 NA
ATOM     12  C   UNL     1       5.299   5.149  17.685  0.00  0.00    +0.000 C 
ENDBRANCH   5  11
ENDBRANCH   4   5
ENDBRANCH   3   4
ENDBRANCH   2   3
ENDBRANCH   1   2
BRANCH   1  13
ATOM     13  C   UNL     1       2.266   4.992  20.454  0.00  0.00    +0.000 C 
BRANCH  13  14
ATOM     14  O   UNL     1       1.776   6.251  20.906  0.00  0.00    +0.000 OA
BRANCH  14  15
ATOM     15  C   UNL     1       1.863   7.263  19.981  0.00  0.00    +0.000 A 
ATOM     16  C   UNL     1       2.585   7.124  18.789  0.00  0.00    +0.000 A 
ATOM     17  C   UNL     1       2.625   8.154  17.866  0.00  0.00    +0.000 A 
ATOM     18  C   UNL     1       1.924   9.335  18.109  0.00  0.00    +0.000 A 
ATOM     19  C   UNL     1       1.172   9.493  19.281  0.00  0.00    +0.000 A 
ATOM     20  C   UNL     1       0.447  10.670  19.510  0.00  0.00    +0.000 A 
ATOM     21  C   UNL     1      -0.311  10.842  20.661  0.00  0.00    +0.000 A 
ATOM     22  C   UNL     1      -0.357   9.823  21.620  0.00  0.00    +0.000 A 
ATOM     23  C   UNL     1       0.364   8.642  21.403  0.00  0.00    +0.000 A 
ATOM     24  C   UNL     1       1.131   8.446  20.239  0.00  0.00    +0.000 A 
ENDBRANCH  14  15
ENDBRANCH  13  14
ENDBRANCH   1  13
TORSDOF 8
ENDMDL
MODEL 6
REMARK VINA RESULT:      -7.2      1.217      2.444
REMARK  Name = 
REMARK  9 active torsions:
REMARK  status: ('A' for Active; 'I' for Inactive)
REMARK    1  A    between atoms: C_1  and  C_2
REMARK    2  A    between atoms: N_6  and  C_7
REMARK    3  A    between atoms: C_7  and  C_8
REMARK    4  A    between atoms: C_8  and  C_9
REMARK    5  A    between atoms: C_9  and  C_10
REMARK    6  A    between atoms: C_10  and  C_11
REMARK    7  A    between atoms: C_11  and  C_12
REMARK    8  A    between atoms: C_12  and  O_13
REMARK    9  A    between atoms: O_13  and  C_14
REMARK                            x       y       z     vdW  Elec       q    Type
REMARK                         _______ _______ _______ _____ _____    ______ ____
ROOT
ATOM      1  C   UNL     1       6.431   6.122  18.209  0.00  0.00    +0.000 C 
ENDROOT
BRANCH   1   2
ATOM      2  C   UNL     1       7.768   6.843  18.289  0.00  0.00    +0.000 C 
BRANCH   2   3
ATOM      3  C   UNL     1       7.861   7.969  17.262  0.00  0.00    +0.000 C 
BRANCH   3   4
ATOM      4  C   UNL     1       7.903   9.319  17.951  0.00  0.00    +0.000 C 
BRANCH   4   5
ATOM      5  C   UNL     1       8.960   9.378  19.065  0.00  0.00    +0.000 C 
BRANCH   5  11
ATOM      6  C   UNL     1      12.329  12.096  19.868  0.00  0.00    +0.000 C 
ATOM      7  C   UNL     1      10.884  12.458  20.228  0.00  0.00    +0.000 C 
ATOM      8  C   UNL     1      10.281  13.460  19.238  0.00  0.00    +0.000 C 
ATOM      9  C   UNL     1      10.046  12.813  17.882  0.00  0.00    +0.000 C 
ATOM     10  C   UNL     1       9.226  11.535  18.021  0.00  0.00    +0.000 C 
ATOM     11  N   UNL     1       9.810  10.581  18.979  0.00  0.00    +0.000 NA
ATOM     12  C   UNL     1       9.994  11.204  20.302  0.00  0.00    +0.000 C 
ENDBRANCH   5  11
ENDBRANCH   4   5
ENDBRANCH   3   4
ENDBRANCH   2   3
ENDBRANCH   1   2
BRANCH   1  13
ATOM     13  C   UNL     1       5.959   5.981  16.773  0.00  0.00    +0.000 C 
BRANCH  13  14
ATOM     14  O   UNL     1       4.543   6.122  16.744  0.00  0.00    +0.000 OA
BRANCH  14  15
ATOM     15  C   UNL     1       3.853   5.101  17.354  0.00  0.00    +0.000 A 
ATOM     16  C   UNL     1       3.977   3.768  16.941  0.00  0.00    +0.000 A 
ATOM     17  C   UNL     1       3.291   2.762  17.599  0.00  0.00    +0.000 A 
ATOM     18  C   UNL     1       2.487   3.069  18.695  0.00  0.00    +0.000 A 
ATOM     19  C   UNL     1       2.363   4.390  19.145  0.00  0.00    +0.000 A 
ATOM     20  C   UNL     1       1.574   4.692  20.264  0.00  0.00    +0.000 A 
ATOM     21  C   UNL     1       1.448   5.993  20.731  0.00  0.00    +0.000 A 
ATOM     22  C   UNL     1       2.117   7.034  20.077  0.00  0.00    +0.000 A 
ATOM     23  C   UNL     1       2.907   6.745  18.957  0.00  0.00    +0.000 A 
ATOM     24  C   UNL     1       3.055   5.431  18.473  0.00  0.00    +0.000 A 
ENDBRANCH  14  15
ENDBRANCH  13  14
ENDBRANCH   1  13
TORSDOF 8
ENDMDL
MODEL 7
REMARK VINA RESULT:      -7.2      5.039      7.398
REMARK  Name = 
REMARK  9 active torsions:
REMARK  status: ('A' for Active; 'I' for Inactive)
REMARK    1  A    between atoms: C_1  and  C_2
REMARK    2  A    between atoms: N_6  and  C_7
REMARK    3  A    between atoms: C_7  and  C_8
REMARK    4  A    between atoms: C_8  and  C_9
REMARK    5  A    between atoms: C_9  and  C_10
REMARK    6  A    between atoms: C_10  and  C_11
REMARK    7  A    between atoms: C_11  and  C_12
REMARK    8  A    between atoms: C_12  and  O_13
REMARK    9  A    between atoms: O_13  and  C_14
REMARK                            x       y       z     vdW  Elec       q    Type
REMARK                         _______ _______ _______ _____ _____    ______ ____
ROOT
ATOM      1  C   UNL     1       2.090   4.650  21.097  0.00  0.00    +0.000 C 
ENDROOT
BRANCH   1   2
ATOM      2  C   UNL     1       1.687   3.248  20.669  0.00  0.00    +0.000 C 
BRANCH   2   3
ATOM      3  C   UNL     1       2.706   2.207  21.126  0.00  0.00    +0.000 C 
BRANCH   3   4
ATOM      4  C   UNL     1       3.995   2.338  20.339  0.00  0.00    +0.000 C 
BRANCH   4   5
ATOM      5  C   UNL     1       3.753   2.427  18.824  0.00  0.00    +0.000 C 
BRANCH   5  11
ATOM      6  C   UNL     1       7.310   4.720  17.610  0.00  0.00    +0.000 C 
ATOM      7  C   UNL     1       6.220   5.318  18.509  0.00  0.00    +0.000 C 
ATOM      8  C   UNL     1       5.308   6.280  17.740  0.00  0.00    +0.000 C 
ATOM      9  C   UNL     1       4.433   5.528  16.750  0.00  0.00    +0.000 C 
ATOM     10  C   UNL     1       3.674   4.400  17.440  0.00  0.00    +0.000 C 
ATOM     11  N   UNL     1       4.557   3.484  18.180  0.00  0.00    +0.000 NA
ATOM     12  C   UNL     1       5.371   4.215  19.167  0.00  0.00    +0.000 C 
ENDBRANCH   5  11
ENDBRANCH   4   5
ENDBRANCH   3   4
ENDBRANCH   2   3
ENDBRANCH   1   2
BRANCH   1  13
ATOM     13  C   UNL     1       1.660   5.690  20.077  0.00  0.00    +0.000 C 
BRANCH  13  14
ATOM     14  O   UNL     1       2.504   6.829  20.206  0.00  0.00    +0.000 OA
BRANCH  14  15
ATOM     15  C   UNL     1       2.002   7.979  19.645  0.00  0.00    +0.000 A 
ATOM     16  C   UNL     1       2.224   8.311  18.302  0.00  0.00    +0.000 A 
ATOM     17  C   UNL     1       1.677   9.462  17.762  0.00  0.00    +0.000 A 
ATOM     18  C   UNL     1       0.880  10.290  18.550  0.00  0.00    +0.000 A 
ATOM     19  C   UNL     1       0.620   9.970  19.890  0.00  0.00    +0.000 A 
ATOM     20  C   UNL     1      -0.204  10.791  20.672  0.00  0.00    +0.000 A 
ATOM     21  C   UNL     1      -0.481  10.486  21.998  0.00  0.00    +0.000 A 
ATOM     22  C   UNL     1       0.071   9.337  22.576  0.00  0.00    +0.000 A 
ATOM     23  C   UNL     1       0.897   8.510  21.805  0.00  0.00    +0.000 A 
ATOM     24  C   UNL     1       1.183   8.797  20.456  0.00  0.00    +0.000 A 
ENDBRANCH  14  15
ENDBRANCH  13  14
ENDBRANCH   1  13
TORSDOF 8
ENDMDL
MODEL 8
REMARK VINA RESULT:      -7.2      2.722      9.752
REMARK  Name = 
REMARK  9 active torsions:
REMARK  status: ('A' for Active; 'I' for Inactive)
REMARK    1  A    between atoms: C_1  and  C_2
REMARK    2  A    between atoms: N_6  and  C_7
REMARK    3  A    between atoms: C_7  and  C_8
REMARK    4  A    between atoms: C_8  and  C_9
REMARK    5  A    between atoms: C_9  and  C_10
REMARK    6  A    between atoms: C_10  and  C_11
REMARK    7  A    between atoms: C_11  and  C_12
REMARK    8  A    between atoms: C_12  and  O_13
REMARK    9  A    between atoms: O_13  and  C_14
REMARK                            x       y       z     vdW  Elec       q    Type
REMARK                         _______ _______ _______ _____ _____    ______ ____
ROOT
ATOM      1  C   UNL     1       8.113   7.811  18.385  0.00  0.00    +0.000 C 
ENDROOT
BRANCH   1   2
ATOM      2  C   UNL     1       7.440   7.179  17.177  0.00  0.00    +0.000 C 
BRANCH   2   3
ATOM      3  C   UNL     1       5.975   6.852  17.458  0.00  0.00    +0.000 C 
BRANCH   3   4
ATOM      4  C   UNL     1       5.801   5.370  17.730  0.00  0.00    +0.000 C 
BRANCH   4   5
ATOM      5  C   UNL     1       5.191   5.093  19.113  0.00  0.00    +0.000 C 
BRANCH   5  11
ATOM      6  C   UNL     1       1.082   4.281  20.468  0.00  0.00    +0.000 C 
ATOM      7  C   UNL     1       1.978   3.186  19.875  0.00  0.00    +0.000 C 
ATOM      8  C   UNL     1       1.593   2.852  18.430  0.00  0.00    +0.000 C 
ATOM      9  C   UNL     1       1.943   3.998  17.494  0.00  0.00    +0.000 C 
ATOM     10  C   UNL     1       3.404   4.404  17.649  0.00  0.00    +0.000 C 
ATOM     11  N   UNL     1       3.766   4.718  19.041  0.00  0.00    +0.000 NA
ATOM     12  C   UNL     1       3.463   3.587  19.935  0.00  0.00    +0.000 C 
ENDBRANCH   5  11
ENDBRANCH   4   5
ENDBRANCH   3   4
ENDBRANCH   2   3
ENDBRANCH   1   2
BRANCH   1  13
ATOM     13  C   UNL     1       8.439   9.273  18.141  0.00  0.00    +0.000 C 
BRANCH  13  14
ATOM     14  O   UNL     1       9.276   9.735  19.195  0.00  0.00    +0.000 OA
BRANCH  14  15
ATOM     15  C   UNL     1       9.769  11.006  19.020  0.00  0.00    +0.000 A 
ATOM     16  C   UNL     1      10.319  11.430  17.803  0.00  0.00    +0.000 A 
ATOM     17  C   UNL     1      10.778  12.727  17.653  0.00  0.00    +0.000 A 
ATOM     18  C   UNL     1      10.674  13.629  18.710  0.00  0.00    +0.000 A 
ATOM     19  C   UNL     1      10.106  13.240  19.930  0.00  0.00    +0.000 A 
ATOM     20  C   UNL     1       9.980  14.158  20.983  0.00  0.00    +0.000 A 
ATOM     21  C   UNL     1       9.410  13.794  22.196  0.00  0.00    +0.000 A 
ATOM     22  C   UNL     1       8.952  12.485  22.383  0.00  0.00    +0.000 A 
ATOM     23  C   UNL     1       9.074  11.559  21.339  0.00  0.00    +0.000 A 
ATOM     24  C   UNL     1       9.640  11.911  20.099  0.00  0.00    +0.000 A 
ENDBRANCH  14  15
ENDBRANCH  13  14
ENDBRANCH   1  13
TORSDOF 8
ENDMDL
MODEL 9
REMARK VINA RESULT:      -7.2      1.440      1.566
REMARK  Name = 
REMARK  9 active torsions:
REMARK  status: ('A' for Active; 'I' for Inactive)
REMARK    1  A    between atoms: C_1  and  C_2
REMARK    2  A    between atoms: N_6  and  C_7
REMARK    3  A    between atoms: C_7  and  C_8
REMARK    4  A    between atoms: C_8  and  C_9
REMARK    5  A    between atoms: C_9  and  C_10
REMARK    6  A    between atoms: C_10  and  C_11
REMARK    7  A    between atoms: C_11  and  C_12
REMARK    8  A    between atoms: C_12  and  O_13
REMARK    9  A    between atoms: O_13  and  C_14
REMARK                            x       y       z     vdW  Elec       q    Type
REMARK                         _______ _______ _______ _____ _____    ______ ____
ROOT
ATOM      1  C   UNL     1       7.571   5.990  19.168  0.00  0.00    +0.000 C 
ENDROOT
BRANCH   1   2
ATOM      2  C   UNL     1       8.411   7.084  18.527  0.00  0.00    +0.000 C 
BRANCH   2   3
ATOM      3  C   UNL     1       7.547   8.070  17.745  0.00  0.00    +0.000 C 
BRANCH   3   4
ATOM      4  C   UNL     1       8.140   9.464  17.802  0.00  0.00    +0.000 C 
BRANCH   4   5
ATOM      5  C   UNL     1       9.055   9.664  19.020  0.00  0.00    +0.000 C 
BRANCH   5  11
ATOM      6  C   UNL     1       9.780  13.913  18.121  0.00  0.00    +0.000 C 
ATOM      7  C   UNL     1      10.891  12.983  18.622  0.00  0.00    +0.000 C 
ATOM      8  C   UNL     1      11.209  13.217  20.103  0.00  0.00    +0.000 C 
ATOM      9  C   UNL     1      10.068  12.743  20.988  0.00  0.00    +0.000 C 
ATOM     10  C   UNL     1       9.696  11.298  20.673  0.00  0.00    +0.000 C 
ATOM     11  N   UNL     1       9.397  11.082  19.247  0.00  0.00    +0.000 NA
ATOM     12  C   UNL     1      10.526  11.504  18.399  0.00  0.00    +0.000 C 
ENDBRANCH   5  11
ENDBRANCH   4   5
ENDBRANCH   3   4
ENDBRANCH   2   3
ENDBRANCH   1   2
BRANCH   1  13
ATOM     13  C   UNL     1       7.027   5.024  18.131  0.00  0.00    +0.000 C 
BRANCH  13  14
ATOM     14  O   UNL     1       5.967   4.277  18.717  0.00  0.00    +0.000 OA
BRANCH  14  15
ATOM     15  C   UNL     1       4.712   4.788  18.488  0.00  0.00    +0.000 A 
ATOM     16  C   UNL     1       4.507   6.126  18.126  0.00  0.00    +0.000 A 
ATOM     17  C   UNL     1       3.232   6.598  17.872  0.00  0.00    +0.000 A 
ATOM     18  C   UNL     1       2.140   5.736  17.956  0.00  0.00    +0.000 A 
ATOM     19  C   UNL     1       2.317   4.387  18.292  0.00  0.00    +0.000 A 
ATOM     20  C   UNL     1       1.220   3.516  18.350  0.00  0.00    +0.000 A 
ATOM     21  C   UNL     1       1.376   2.175  18.672  0.00  0.00    +0.000 A 
ATOM     22  C   UNL     1       2.653   1.671  18.948  0.00  0.00    +0.000 A 
ATOM     23  C   UNL     1       3.756   2.532  18.896  0.00  0.00    +0.000 A 
ATOM     24  C   UNL     1       3.620   3.893  18.563  0.00  0.00    +0.000 A 
ENDBRANCH  14  15
ENDBRANCH  13  14
ENDBRANCH   1  13
TORSDOF 8
ENDMDL
