MODEL 1
REMARK VINA RESULT:      -6.2      0.000      0.000
REMARK  Name = 
REMARK  7 active torsions:
REMARK  status: ('A' for Active; 'I' for Inactive)
REMARK    1  A    between atoms: C_1  and  O_2
REMARK    2  A    between atoms: O_2  and  C_3
REMARK    3  A    between atoms: C_7  and  S_8
REMARK    4  A    between atoms: S_8  and  N_11
REMARK    5  A    between atoms: N_11  and  C_12
REMARK    6  A    between atoms: C_12  and  C_13
REMARK    7  A    between atoms: N_18  and  C_19
REMARK                            x       y       z     vdW  Elec       q    Type
REMARK                         _______ _______ _______ _____ _____    ______ ____
ROOT
ATOM      1  S   UNL     1       3.339   5.919  19.231  0.00  0.00    +0.000 S 
ATOM      2  O   UNL     1       2.623   7.054  19.770  0.00  0.00    +0.000 OA
ATOM      3  O   UNL     1       4.647   5.526  19.709  0.00  0.00    +0.000 OA
ENDROOT
BRANCH   1   8
ATOM      4  C   UNL     1       1.710   3.584  18.695  0.00  0.00    +0.000 A 
ATOM      5  C   UNL     1       0.982   2.596  19.428  0.00  0.00    +0.000 A 
ATOM      6  C   UNL     1       1.071   2.789  20.789  0.00  0.00    +0.000 A 
ATOM      7  S   UNL     1       2.014   4.158  21.181  0.00  0.00    +0.000 S 
ATOM      8  C   UNL     1       2.311   4.506  19.530  0.00  0.00    +0.000 A 
BRANCH   4  10
ATOM      9  C   UNL     1       2.871   2.851  16.795  0.00  0.00    +0.000 C 
ATOM     10  O   UNL     1       1.867   3.693  17.350  0.00  0.00    +0.000 OA
ENDBRANCH   4  10
ENDBRANCH   1   8
BRANCH   1  11
ATOM     11  N   UNL     1       3.479   6.123  17.559  0.00  0.00    +0.000 NA
ATOM     12  H   UNL     1       2.646   6.599  17.199  0.00  0.00    +0.000 HD
BRANCH  11  13
ATOM     13  C   UNL     1       4.714   6.775  17.119  0.00  0.00    +0.000 C 
BRANCH  13  14
ATOM     14  C   UNL     1       5.474   5.804  16.275  0.00  0.00    +0.000 A 
ATOM     15  C   UNL     1       5.143   5.281  15.035  0.00  0.00    +0.000 A 
ATOM     16  C   UNL     1       6.228   4.494  14.594  0.00  0.00    +0.000 A 
ATOM     17 CL   UNL     1       6.309   3.685  13.106  0.00  0.00    +0.000 Cl
ATOM     18  C   UNL     1       7.188   4.525  15.577  0.00  0.00    +0.000 A 
ATOM     19  N   UNL     1       6.719   5.307  16.602  0.00  0.00    +0.000 N 
ATOM     20  C   UNL     1       7.448   5.562  17.829  0.00  0.00    +0.000 C 
ENDBRANCH  13  14
ENDBRANCH  11  13
ENDBRANCH   1  11
TORSDOF 5
ENDMDL
MODEL 2
REMARK VINA RESULT:      -6.2      1.843      2.392
REMARK  Name = 
REMARK  7 active torsions:
REMARK  status: ('A' for Active; 'I' for Inactive)
REMARK    1  A    between atoms: C_1  and  O_2
REMARK    2  A    between atoms: O_2  and  C_3
REMARK    3  A    between atoms: C_7  and  S_8
REMARK    4  A    between atoms: S_8  and  N_11
REMARK    5  A    between atoms: N_11  and  C_12
REMARK    6  A    between atoms: C_12  and  C_13
REMARK    7  A    between atoms: N_18  and  C_19
REMARK                            x       y       z     vdW  Elec       q    Type
REMARK                         _______ _______ _______ _____ _____    ______ ____
ROOT
ATOM      1  S   UNL     1       4.825   3.630  19.269  0.00  0.00    +0.000 S 
ATOM      2  O   UNL     1       5.578   4.848  19.468  0.00  0.00    +0.000 OA
ATOM      3  O   UNL     1       5.175   2.385  19.919  0.00  0.00    +0.000 OA
ENDROOT
BRANCH   1   8
ATOM      4  C   UNL     1       2.465   5.148  19.990  0.00  0.00    +0.000 A 
ATOM      5  C   UNL     1       1.136   4.903  20.455  0.00  0.00    +0.000 A 
ATOM      6  C   UNL     1       0.879   3.559  20.608  0.00  0.00    +0.000 A 
ATOM      7  S   UNL     1       2.233   2.599  20.207  0.00  0.00    +0.000 S 
ATOM      8  C   UNL     1       3.178   3.977  19.825  0.00  0.00    +0.000 A 
BRANCH   4  10
ATOM      9  C   UNL     1       2.532   7.005  18.559  0.00  0.00    +0.000 C 
ATOM     10  O   UNL     1       3.055   6.338  19.703  0.00  0.00    +0.000 OA
ENDBRANCH   4  10
ENDBRANCH   1   8
BRANCH   1  11
ATOM     11  N   UNL     1       4.763   3.306  17.611  0.00  0.00    +0.000 NA
ATOM     12  H   UNL     1       4.101   2.545  17.434  0.00  0.00    +0.000 HD
BRANCH  11  13
ATOM     13  C   UNL     1       4.497   4.471  16.765  0.00  0.00    +0.000 C 
BRANCH  13  14
ATOM     14  C   UNL     1       5.469   4.450  15.630  0.00  0.00    +0.000 A 
ATOM     15  C   UNL     1       5.372   3.798  14.411  0.00  0.00    +0.000 A 
ATOM     16  C   UNL     1       6.487   4.170  13.631  0.00  0.00    +0.000 A 
ATOM     17 CL   UNL     1       6.783   3.663  12.041  0.00  0.00    +0.000 Cl
ATOM     18  C   UNL     1       7.258   5.018  14.391  0.00  0.00    +0.000 A 
ATOM     19  N   UNL     1       6.646   5.171  15.609  0.00  0.00    +0.000 N 
ATOM     20  C   UNL     1       7.174   5.981  16.689  0.00  0.00    +0.000 C 
ENDBRANCH  13  14
ENDBRANCH  11  13
ENDBRANCH   1  11
TORSDOF 5
ENDMDL
MODEL 3
REMARK VINA RESULT:      -6.2      1.247      1.948
REMARK  Name = 
REMARK  7 active torsions:
REMARK  status: ('A' for Active; 'I' for Inactive)
REMARK    1  A    between atoms: C_1  and  O_2
REMARK    2  A    between atoms: O_2  and  C_3
REMARK    3  A    between atoms: C_7  and  S_8
REMARK    4  A    between atoms: S_8  and  N_11
REMARK    5  A    between atoms: N_11  and  C_12
REMARK    6  A    between atoms: C_12  and  C_13
REMARK    7  A    between atoms: N_18  and  C_19
REMARK                            x       y       z     vdW  Elec       q    Type
REMARK                         _______ _______ _______ _____ _____    ______ ____
ROOT
ATOM      1  S   UNL     1       3.460   5.826  19.058  0.00  0.00    +0.000 S 
ATOM      2  O   UNL     1       2.406   6.600  19.673  0.00  0.00    +0.000 OA
ATOM      3  O   UNL     1       4.743   5.615  19.695  0.00  0.00    +0.000 OA
ENDROOT
BRANCH   1   8
ATOM      4  C   UNL     1       2.020   3.376  19.621  0.00  0.00    +0.000 A 
ATOM      5  C   UNL     1       1.728   2.134  18.977  0.00  0.00    +0.000 A 
ATOM      6  C   UNL     1       2.278   2.061  17.716  0.00  0.00    +0.000 A 
ATOM      7  S   UNL     1       3.152   3.473  17.318  0.00  0.00    +0.000 S 
ATOM      8  C   UNL     1       2.802   4.195  18.831  0.00  0.00    +0.000 A 
BRANCH   4  10
ATOM      9  C   UNL     1       1.532   2.787  21.838  0.00  0.00    +0.000 C 
ATOM     10  O   UNL     1       1.623   3.806  20.848  0.00  0.00    +0.000 OA
ENDBRANCH   4  10
ENDBRANCH   1   8
BRANCH   1  11
ATOM     11  N   UNL     1       3.782   6.480  17.533  0.00  0.00    +0.000 NA
ATOM     12  H   UNL     1       3.167   7.283  17.367  0.00  0.00    +0.000 HD
BRANCH  11  13
ATOM     13  C   UNL     1       5.187   6.808  17.287  0.00  0.00    +0.000 C 
BRANCH  13  14
ATOM     14  C   UNL     1       5.749   5.770  16.369  0.00  0.00    +0.000 A 
ATOM     15  C   UNL     1       5.369   5.452  15.075  0.00  0.00    +0.000 A 
ATOM     16  C   UNL     1       6.269   4.482  14.586  0.00  0.00    +0.000 A 
ATOM     17 CL   UNL     1       6.238   3.816  13.028  0.00  0.00    +0.000 Cl
ATOM     18  C   UNL     1       7.164   4.203  15.592  0.00  0.00    +0.000 A 
ATOM     19  N   UNL     1       6.834   4.974  16.678  0.00  0.00    +0.000 N 
ATOM     20  C   UNL     1       7.541   4.942  17.943  0.00  0.00    +0.000 C 
ENDBRANCH  13  14
ENDBRANCH  11  13
ENDBRANCH   1  11
TORSDOF 5
ENDMDL
MODEL 4
REMARK VINA RESULT:      -6.1      1.792      2.775
REMARK  Name = 
REMARK  7 active torsions:
REMARK  status: ('A' for Active; 'I' for Inactive)
REMARK    1  A    between atoms: C_1  and  O_2
REMARK    2  A    between atoms: O_2  and  C_3
REMARK    3  A    between atoms: C_7  and  S_8
REMARK    4  A    between atoms: S_8  and  N_11
REMARK    5  A    between atoms: N_11  and  C_12
REMARK    6  A    between atoms: C_12  and  C_13
REMARK    7  A    between atoms: N_18  and  C_19
REMARK                            x       y       z     vdW  Elec       q    Type
REMARK                         _______ _______ _______ _____ _____    ______ ____
ROOT
ATOM      1  S   UNL     1       3.269   2.641  17.905  0.00  0.00    +0.000 S 
ATOM      2  O   UNL     1       3.616   1.252  18.104  0.00  0.00    +0.000 OA
ATOM      3  O   UNL     1       2.232   3.060  16.987  0.00  0.00    +0.000 OA
ENDROOT
BRANCH   1   8
ATOM      4  C   UNL     1       2.847   4.465  20.115  0.00  0.00    +0.000 A 
ATOM      5  C   UNL     1       2.225   4.461  21.402  0.00  0.00    +0.000 A 
ATOM      6  C   UNL     1       1.647   3.247  21.696  0.00  0.00    +0.000 A 
ATOM      7  S   UNL     1       1.863   2.114  20.436  0.00  0.00    +0.000 S 
ATOM      8  C   UNL     1       2.735   3.242  19.485  0.00  0.00    +0.000 A 
BRANCH   4  10
ATOM      9  C   UNL     1       2.674   6.625  19.219  0.00  0.00    +0.000 C 
ATOM     10  O   UNL     1       3.486   5.487  19.488  0.00  0.00    +0.000 OA
ENDBRANCH   4  10
ENDBRANCH   1   8
BRANCH   1  11
ATOM     11  N   UNL     1       4.668   3.482  17.468  0.00  0.00    +0.000 NA
ATOM     12  H   UNL     1       5.362   2.827  17.096  0.00  0.00    +0.000 HD
BRANCH  11  13
ATOM     13  C   UNL     1       4.450   4.616  16.567  0.00  0.00    +0.000 C 
BRANCH  13  14
ATOM     14  C   UNL     1       5.483   4.555  15.489  0.00  0.00    +0.000 A 
ATOM     15  C   UNL     1       5.418   3.934  14.252  0.00  0.00    +0.000 A 
ATOM     16  C   UNL     1       6.597   4.251  13.546  0.00  0.00    +0.000 A 
ATOM     17 CL   UNL     1       6.954   3.757  11.964  0.00  0.00    +0.000 Cl
ATOM     18  C   UNL     1       7.373   5.034  14.367  0.00  0.00    +0.000 A 
ATOM     19  N   UNL     1       6.701   5.202  15.552  0.00  0.00    +0.000 N 
ATOM     20  C   UNL     1       7.214   5.956  16.678  0.00  0.00    +0.000 C 
ENDBRANCH  13  14
ENDBRANCH  11  13
ENDBRANCH   1  11
TORSDOF 5
ENDMDL
MODEL 5
REMARK VINA RESULT:      -6.1      1.948      2.430
REMARK  Name = 
REMARK  7 active torsions:
REMARK  status: ('A' for Active; 'I' for Inactive)
REMARK    1  A    between atoms: C_1  and  O_2
REMARK    2  A    between atoms: O_2  and  C_3
REMARK    3  A    between atoms: C_7  and  S_8
REMARK    4  A    between atoms: S_8  and  N_11
REMARK    5  A    between atoms: N_11  and  C_12
REMARK    6  A    between atoms: C_12  and  C_13
REMARK    7  A    between atoms: N_18  and  C_19
REMARK                            x       y       z     vdW  Elec       q    Type
REMARK                         _______ _______ _______ _____ _____    ______ ____
ROOT
ATOM      1  S   UNL     1       4.538   3.875  19.073  0.00  0.00    +0.000 S 
ATOM      2  O   UNL     1       4.663   5.311  19.190  0.00  0.00    +0.000 OA
ATOM      3  O   UNL     1       5.262   2.959  19.927  0.00  0.00    +0.000 OA
ENDROOT
BRANCH   1   8
ATOM      4  C   UNL     1       1.880   4.056  20.211  0.00  0.00    +0.000 A 
ATOM      5  C   UNL     1       0.611   3.413  20.073  0.00  0.00    +0.000 A 
ATOM      6  C   UNL     1       0.634   2.417  19.123  0.00  0.00    +0.000 A 
ATOM      7  S   UNL     1       2.177   2.247  18.412  0.00  0.00    +0.000 S 
ATOM      8  C   UNL     1       2.829   3.508  19.372  0.00  0.00    +0.000 A 
BRANCH   4  10
ATOM      9  C   UNL     1       1.816   6.373  20.561  0.00  0.00    +0.000 C 
ATOM     10  O   UNL     1       2.220   5.090  21.025  0.00  0.00    +0.000 OA
ENDBRANCH   4  10
ENDBRANCH   1   8
BRANCH   1  11
ATOM     11  N   UNL     1       4.899   3.438  17.481  0.00  0.00    +0.000 NA
ATOM     12  H   UNL     1       4.546   2.494  17.295  0.00  0.00    +0.000 HD
BRANCH  11  13
ATOM     13  C   UNL     1       4.462   4.396  16.463  0.00  0.00    +0.000 C 
BRANCH  13  14
ATOM     14  C   UNL     1       5.510   4.451  15.400  0.00  0.00    +0.000 A 
ATOM     15  C   UNL     1       5.499   3.888  14.134  0.00  0.00    +0.000 A 
ATOM     16  C   UNL     1       6.665   4.311  13.461  0.00  0.00    +0.000 A 
ATOM     17 CL   UNL     1       7.070   3.918  11.864  0.00  0.00    +0.000 Cl
ATOM     18  C   UNL     1       7.381   5.099  14.331  0.00  0.00    +0.000 A 
ATOM     19  N   UNL     1       6.685   5.167  15.512  0.00  0.00    +0.000 N 
ATOM     20  C   UNL     1       7.137   5.896  16.681  0.00  0.00    +0.000 C 
ENDBRANCH  13  14
ENDBRANCH  11  13
ENDBRANCH   1  11
TORSDOF 5
ENDMDL
MODEL 6
REMARK VINA RESULT:      -6.0      2.753      3.817
REMARK  Name = 
REMARK  7 active torsions:
REMARK  status: ('A' for Active; 'I' for Inactive)
REMARK    1  A    between atoms: C_1  and  O_2
REMARK    2  A    between atoms: O_2  and  C_3
REMARK    3  A    between atoms: C_7  and  S_8
REMARK    4  A    between atoms: S_8  and  N_11
REMARK    5  A    between atoms: N_11  and  C_12
REMARK    6  A    between atoms: C_12  and  C_13
REMARK    7  A    between atoms: N_18  and  C_19
REMARK                            x       y       z     vdW  Elec       q    Type
REMARK                         _______ _______ _______ _____ _____    ______ ____
ROOT
ATOM      1  S   UNL     1       4.632   3.194  19.027  0.00  0.00    +0.000 S 
ATOM      2  O   UNL     1       5.007   2.074  19.862  0.00  0.00    +0.000 OA
ATOM      3  O   UNL     1       4.433   3.066  17.600  0.00  0.00    +0.000 OA
ENDROOT
BRANCH   1   8
ATOM      4  C   UNL     1       2.527   5.023  19.809  0.00  0.00    +0.000 A 
ATOM      5  C   UNL     1       1.201   4.965  20.341  0.00  0.00    +0.000 A 
ATOM      6  C   UNL     1       0.780   3.670  20.545  0.00  0.00    +0.000 A 
ATOM      7  S   UNL     1       1.978   2.532  20.112  0.00  0.00    +0.000 S 
ATOM      8  C   UNL     1       3.073   3.765  19.647  0.00  0.00    +0.000 A 
BRANCH   4  10
ATOM      9  C   UNL     1       2.480   7.287  19.199  0.00  0.00    +0.000 C 
ATOM     10  O   UNL     1       3.251   6.119  19.461  0.00  0.00    +0.000 OA
ENDBRANCH   4  10
ENDBRANCH   1   8
BRANCH   1  11
ATOM     11  N   UNL     1       5.769   4.425  19.247  0.00  0.00    +0.000 NA
ATOM     12  H   UNL     1       6.256   4.289  20.138  0.00  0.00    +0.000 HD
BRANCH  11  13
ATOM     13  C   UNL     1       6.704   4.607  18.135  0.00  0.00    +0.000 C 
BRANCH  13  14
ATOM     14  C   UNL     1       6.975   6.069  17.993  0.00  0.00    +0.000 A 
ATOM     15  C   UNL     1       7.979   6.830  18.571  0.00  0.00    +0.000 A 
ATOM     16  C   UNL     1       7.887   8.137  18.047  0.00  0.00    +0.000 A 
ATOM     17 CL   UNL     1       8.934   9.417  18.420  0.00  0.00    +0.000 Cl
ATOM     18  C   UNL     1       6.818   8.162  17.183  0.00  0.00    +0.000 A 
ATOM     19  N   UNL     1       6.257   6.910  17.167  0.00  0.00    +0.000 N 
ATOM     20  C   UNL     1       5.091   6.552  16.384  0.00  0.00    +0.000 C 
ENDBRANCH  13  14
ENDBRANCH  11  13
ENDBRANCH   1  11
TORSDOF 5
ENDMDL
MODEL 7
REMARK VINA RESULT:      -6.0      1.987      2.545
REMARK  Name = 
REMARK  7 active torsions:
REMARK  status: ('A' for Active; 'I' for Inactive)
REMARK    1  A    between atoms: C_1  and  O_2
REMARK    2  A    between atoms: O_2  and  C_3
REMARK    3  A    between atoms: C_7  and  S_8
REMARK    4  A    between atoms: S_8  and  N_11
REMARK    5  A    between atoms: N_11  and  C_12
REMARK    6  A    between atoms: C_12  and  C_13
REMARK    7  A    between atoms: N_18  and  C_19
REMARK                            x       y       z     vdW  Elec       q    Type
REMARK                         _______ _______ _______ _____ _____    ______ ____
ROOT
ATOM      1  S   UNL     1       2.882   3.907  17.929  0.00  0.00    +0.000 S 
ATOM      2  O   UNL     1       1.805   3.403  17.107  0.00  0.00    +0.000 OA
ATOM      3  O   UNL     1       3.147   5.322  18.081  0.00  0.00    +0.000 OA
ENDROOT
BRANCH   1   8
ATOM      4  C   UNL     1       3.328   2.711  20.529  0.00  0.00    +0.000 A 
ATOM      5  C   UNL     1       2.598   2.463  21.732  0.00  0.00    +0.000 A 
ATOM      6  C   UNL     1       1.302   2.924  21.658  0.00  0.00    +0.000 A 
ATOM      7  S   UNL     1       0.964   3.638  20.144  0.00  0.00    +0.000 S 
ATOM      8  C   UNL     1       2.551   3.335  19.574  0.00  0.00    +0.000 A 
BRANCH   4  10
ATOM      9  C   UNL     1       5.140   1.276  20.925  0.00  0.00    +0.000 C 
ATOM     10  O   UNL     1       4.627   2.422  20.254  0.00  0.00    +0.000 OA
ENDBRANCH   4  10
ENDBRANCH   1   8
BRANCH   1  11
ATOM     11  N   UNL     1       4.326   3.201  17.407  0.00  0.00    +0.000 NA
ATOM     12  H   UNL     1       4.214   2.858  16.448  0.00  0.00    +0.000 HD
BRANCH  11  13
ATOM     13  C   UNL     1       5.513   4.045  17.550  0.00  0.00    +0.000 C 
BRANCH  13  14
ATOM     14  C   UNL     1       6.076   4.286  16.187  0.00  0.00    +0.000 A 
ATOM     15  C   UNL     1       5.909   3.541  15.030  0.00  0.00    +0.000 A 
ATOM     16  C   UNL     1       6.544   4.230  13.976  0.00  0.00    +0.000 A 
ATOM     17 CL   UNL     1       6.570   3.732  12.357  0.00  0.00    +0.000 Cl
ATOM     18  C   UNL     1       7.112   5.365  14.507  0.00  0.00    +0.000 A 
ATOM     19  N   UNL     1       6.840   5.386  15.852  0.00  0.00    +0.000 N 
ATOM     20  C   UNL     1       7.293   6.423  16.756  0.00  0.00    +0.000 C 
ENDBRANCH  13  14
ENDBRANCH  11  13
ENDBRANCH   1  11
TORSDOF 5
ENDMDL
MODEL 8
REMARK VINA RESULT:      -5.9      2.178      3.053
REMARK  Name = 
REMARK  7 active torsions:
REMARK  status: ('A' for Active; 'I' for Inactive)
REMARK    1  A    between atoms: C_1  and  O_2
REMARK    2  A    between atoms: O_2  and  C_3
REMARK    3  A    between atoms: C_7  and  S_8
REMARK    4  A    between atoms: S_8  and  N_11
REMARK    5  A    between atoms: N_11  and  C_12
REMARK    6  A    between atoms: C_12  and  C_13
REMARK    7  A    between atoms: N_18  and  C_19
REMARK                            x       y       z     vdW  Elec       q    Type
REMARK                         _______ _______ _______ _____ _____    ______ ____
ROOT
ATOM      1  S   UNL     1       2.447   3.071  18.027  0.00  0.00    +0.000 S 
ATOM      2  O   UNL     1       1.714   1.999  18.662  0.00  0.00    +0.000 OA
ATOM      3  O   UNL     1       2.165   3.514  16.679  0.00  0.00    +0.000 OA
ENDROOT
BRANCH   1   8
ATOM      4  C   UNL     1       1.698   4.684  20.314  0.00  0.00    +0.000 A 
ATOM      5  C   UNL     1       1.696   6.061  20.698  0.00  0.00    +0.000 A 
ATOM      6  C   UNL     1       2.198   6.876  19.708  0.00  0.00    +0.000 A 
ATOM      7  S   UNL     1       2.655   5.992  18.321  0.00  0.00    +0.000 S 
ATOM      8  C   UNL     1       2.184   4.507  19.034  0.00  0.00    +0.000 A 
BRANCH   4  10
ATOM      9  C   UNL     1       2.318   3.031  21.857  0.00  0.00    +0.000 C 
ATOM     10  O   UNL     1       1.304   3.604  21.038  0.00  0.00    +0.000 OA
ENDBRANCH   4  10
ENDBRANCH   1   8
BRANCH   1  11
ATOM     11  N   UNL     1       4.094   2.691  18.074  0.00  0.00    +0.000 NA
ATOM     12  H   UNL     1       4.350   2.171  17.230  0.00  0.00    +0.000 HD
BRANCH  11  13
ATOM     13  C   UNL     1       4.983   3.831  18.307  0.00  0.00    +0.000 C 
BRANCH  13  14
ATOM     14  C   UNL     1       5.736   4.094  17.043  0.00  0.00    +0.000 A 
ATOM     15  C   UNL     1       5.504   3.599  15.770  0.00  0.00    +0.000 A 
ATOM     16  C   UNL     1       6.412   4.224  14.889  0.00  0.00    +0.000 A 
ATOM     17 CL   UNL     1       6.481   3.974  13.215  0.00  0.00    +0.000 Cl
ATOM     18  C   UNL     1       7.199   5.066  15.638  0.00  0.00    +0.000 A 
ATOM     19  N   UNL     1       6.797   4.971  16.947  0.00  0.00    +0.000 N 
ATOM     20  C   UNL     1       7.409   5.701  18.039  0.00  0.00    +0.000 C 
ENDBRANCH  13  14
ENDBRANCH  11  13
ENDBRANCH   1  11
TORSDOF 5
ENDMDL
MODEL 9
REMARK VINA RESULT:      -5.8      1.658      1.899
REMARK  Name = 
REMARK  7 active torsions:
REMARK  status: ('A' for Active; 'I' for Inactive)
REMARK    1  A    between atoms: C_1  and  O_2
REMARK    2  A    between atoms: O_2  and  C_3
REMARK    3  A    between atoms: C_7  and  S_8
REMARK    4  A    between atoms: S_8  and  N_11
REMARK    5  A    between atoms: N_11  and  C_12
REMARK    6  A    between atoms: C_12  and  C_13
REMARK    7  A    between atoms: N_18  and  C_19
REMARK                            x       y       z     vdW  Elec       q    Type
REMARK                         _______ _______ _______ _____ _____    ______ ____
ROOT
ATOM      1  S   UNL     1       4.656   3.572  19.278  0.00  0.00    +0.000 S 
ATOM      2  O   UNL     1       5.187   4.882  19.582  0.00  0.00    +0.000 OA
ATOM      3  O   UNL     1       5.276   2.353  19.751  0.00  0.00    +0.000 OA
ENDROOT
BRANCH   1   8
ATOM      4  C   UNL     1       1.826   4.112  19.579  0.00  0.00    +0.000 A 
ATOM      5  C   UNL     1       0.758   3.764  20.463  0.00  0.00    +0.000 A 
ATOM      6  C   UNL     1       1.173   2.923  21.471  0.00  0.00    +0.000 A 
ATOM      7  S   UNL     1       2.839   2.566  21.362  0.00  0.00    +0.000 S 
ATOM      8  C   UNL     1       3.021   3.536  19.962  0.00  0.00    +0.000 A 
BRANCH   4  10
ATOM      9  C   UNL     1       1.117   4.309  17.353  0.00  0.00    +0.000 C 
ATOM     10  O   UNL     1       1.783   4.892  18.467  0.00  0.00    +0.000 OA
ENDBRANCH   4  10
ENDBRANCH   1   8
BRANCH   1  11
ATOM     11  N   UNL     1       4.527   3.426  17.599  0.00  0.00    +0.000 NA
ATOM     12  H   UNL     1       3.722   2.837  17.366  0.00  0.00    +0.000 HD
BRANCH  11  13
ATOM     13  C   UNL     1       4.506   4.695  16.869  0.00  0.00    +0.000 C 
BRANCH  13  14
ATOM     14  C   UNL     1       5.474   4.592  15.735  0.00  0.00    +0.000 A 
ATOM     15  C   UNL     1       5.339   3.918  14.532  0.00  0.00    +0.000 A 
ATOM     16  C   UNL     1       6.472   4.210  13.743  0.00  0.00    +0.000 A 
ATOM     17 CL   UNL     1       6.736   3.650  12.166  0.00  0.00    +0.000 Cl
ATOM     18  C   UNL     1       7.290   5.030  14.483  0.00  0.00    +0.000 A 
ATOM     19  N   UNL     1       6.689   5.245  15.698  0.00  0.00    +0.000 N 
ATOM     20  C   UNL     1       7.264   6.049  16.758  0.00  0.00    +0.000 C 
ENDBRANCH  13  14
ENDBRANCH  11  13
ENDBRANCH   1  11
TORSDOF 5
ENDMDL
