MODEL 1
REMARK VINA RESULT:      -7.8      0.000      0.000
REMARK  Name = 
REMARK  5 active torsions:
REMARK  status: ('A' for Active; 'I' for Inactive)
REMARK    1  A    between atoms: C_7  and  N_8
REMARK    2  A    between atoms: C_11  and  C_12
REMARK    3  A    between atoms: C_12  and  N_13
REMARK    4  A    between atoms: N_13  and  C_14
REMARK    5  A    between atoms: C_14  and  C_15
REMARK                            x       y       z     vdW  Elec       q    Type
REMARK                         _______ _______ _______ _____ _____    ______ ____
ROOT
ATOM      1  C   UNL     1       4.034   7.608  17.844  0.00  0.00    +0.000 C 
ENDROOT
BRANCH   1   5
ATOM      2  N   UNL     1       1.199   8.810  19.916  0.00  0.00    +0.000 N 
ATOM      3  C   UNL     1       1.756   9.643  18.850  0.00  0.00    +0.000 C 
ATOM      4  C   UNL     1       1.798   8.833  17.560  0.00  0.00    +0.000 C 
ATOM      5  C   UNL     1       2.499   7.475  17.737  0.00  0.00    +0.000 C 
ATOM      6  C   UNL     1       1.901   6.720  18.944  0.00  0.00    +0.000 C 
ATOM      7  C   UNL     1       1.938   7.582  20.206  0.00  0.00    +0.000 C 
BRANCH   2  14
ATOM      8 CL   UNL     1      -0.779  11.116  19.103  0.00  0.00    +0.000 Cl
ATOM      9  C   UNL     1      -0.465  10.469  20.683  0.00  0.00    +0.000 A 
ATOM     10  C   UNL     1      -1.094  11.132  21.745  0.00  0.00    +0.000 A 
ATOM     11  C   UNL     1      -0.849  10.749  23.060  0.00  0.00    +0.000 A 
ATOM     12  C   UNL     1      -0.007   9.676  23.315  0.00  0.00    +0.000 A 
ATOM     13  C   UNL     1       0.612   9.006  22.252  0.00  0.00    +0.000 A 
ATOM     14  C   UNL     1       0.435   9.401  20.917  0.00  0.00    +0.000 A 
ENDBRANCH   2  14
ENDBRANCH   1   5
BRANCH   1  15
ATOM     15  N   UNL     1       4.781   6.405  17.444  0.00  0.00    +0.000 NA
ATOM     16  H   UNL     1       5.550   6.655  16.817  0.00  0.00    +0.000 HD
BRANCH  15  17
ATOM     17  C   UNL     1       5.347   5.689  18.601  0.00  0.00    +0.000 C 
BRANCH  17  18
ATOM     18  C   UNL     1       5.505   4.175  18.347  0.00  0.00    +0.000 C 
ATOM     19  C   UNL     1       4.824   3.751  17.044  0.00  0.00    +0.000 C 
ATOM     20  O   UNL     1       3.403   3.934  17.091  0.00  0.00    +0.000 OA
ATOM     21  C   UNL     1       2.870   3.471  18.266  0.00  0.00    +0.000 A 
ATOM     22  C   UNL     1       1.485   3.306  18.310  0.00  0.00    +0.000 A 
ATOM     23  C   UNL     1       0.874   2.858  19.482  0.00  0.00    +0.000 A 
ATOM     24  C   UNL     1       1.648   2.566  20.605  0.00  0.00    +0.000 A 
ATOM     25  C   UNL     1       3.033   2.731  20.561  0.00  0.00    +0.000 A 
ATOM     26  C   UNL     1       3.642   3.206  19.399  0.00  0.00    +0.000 A 
ATOM     27  O   UNL     1       4.996   3.412  19.459  0.00  0.00    +0.000 OA
ENDBRANCH  17  18
ENDBRANCH  15  17
ENDBRANCH   1  15
TORSDOF 5
ENDMDL
MODEL 2
REMARK VINA RESULT:      -7.8      5.848      8.757
REMARK  Name = 
REMARK  5 active torsions:
REMARK  status: ('A' for Active; 'I' for Inactive)
REMARK    1  A    between atoms: C_7  and  N_8
REMARK    2  A    between atoms: C_11  and  C_12
REMARK    3  A    between atoms: C_12  and  N_13
REMARK    4  A    between atoms: N_13  and  C_14
REMARK    5  A    between atoms: C_14  and  C_15
REMARK                            x       y       z     vdW  Elec       q    Type
REMARK                         _______ _______ _______ _____ _____    ______ ____
ROOT
ATOM      1  C   UNL     1       7.815   7.567  18.070  0.00  0.00    +0.000 C 
ENDROOT
BRANCH   1   5
ATOM      2  N   UNL     1       4.797   5.472  18.606  0.00  0.00    +0.000 N 
ATOM      3  C   UNL     1       4.717   6.727  17.855  0.00  0.00    +0.000 C 
ATOM      4  C   UNL     1       5.778   6.717  16.762  0.00  0.00    +0.000 C 
ATOM      5  C   UNL     1       7.181   6.386  17.301  0.00  0.00    +0.000 C 
ATOM      6  C   UNL     1       7.134   5.101  18.155  0.00  0.00    +0.000 C 
ATOM      7  C   UNL     1       6.080   5.210  19.257  0.00  0.00    +0.000 C 
BRANCH   2  14
ATOM      8 CL   UNL     1       3.894   2.651  17.550  0.00  0.00    +0.000 Cl
ATOM      9  C   UNL     1       3.109   3.671  18.715  0.00  0.00    +0.000 A 
ATOM     10  C   UNL     1       1.858   3.227  19.163  0.00  0.00    +0.000 A 
ATOM     11  C   UNL     1       1.104   4.005  20.037  0.00  0.00    +0.000 A 
ATOM     12  C   UNL     1       1.617   5.209  20.497  0.00  0.00    +0.000 A 
ATOM     13  C   UNL     1       2.874   5.647  20.058  0.00  0.00    +0.000 A 
ATOM     14  C   UNL     1       3.636   4.916  19.133  0.00  0.00    +0.000 A 
ENDBRANCH   2  14
ENDBRANCH   1   5
BRANCH   1  15
ATOM     15  N   UNL     1       7.962   8.800  17.282  0.00  0.00    +0.000 NA
ATOM     16  H   UNL     1       7.152   8.931  16.670  0.00  0.00    +0.000 HD
BRANCH  15  17
ATOM     17  C   UNL     1       8.089   9.995  18.134  0.00  0.00    +0.000 C 
BRANCH  17  18
ATOM     18  C   UNL     1       9.481  10.115  18.790  0.00  0.00    +0.000 C 
ATOM     19  C   UNL     1       9.393  10.750  20.179  0.00  0.00    +0.000 C 
ATOM     20  O   UNL     1       8.934  12.107  20.126  0.00  0.00    +0.000 OA
ATOM     21  C   UNL     1       9.567  12.819  19.140  0.00  0.00    +0.000 A 
ATOM     22  C   UNL     1       9.441  14.208  19.184  0.00  0.00    +0.000 A 
ATOM     23  C   UNL     1      10.043  14.994  18.200  0.00  0.00    +0.000 A 
ATOM     24  C   UNL     1      10.778  14.391  17.178  0.00  0.00    +0.000 A 
ATOM     25  C   UNL     1      10.902  13.001  17.134  0.00  0.00    +0.000 A 
ATOM     26  C   UNL     1      10.278  12.214  18.102  0.00  0.00    +0.000 A 
ATOM     27  O   UNL     1      10.385  10.857  17.947  0.00  0.00    +0.000 OA
ENDBRANCH  17  18
ENDBRANCH  15  17
ENDBRANCH   1  15
TORSDOF 5
ENDMDL
MODEL 3
REMARK VINA RESULT:      -7.6      1.026      1.161
REMARK  Name = 
REMARK  5 active torsions:
REMARK  status: ('A' for Active; 'I' for Inactive)
REMARK    1  A    between atoms: C_7  and  N_8
REMARK    2  A    between atoms: C_11  and  C_12
REMARK    3  A    between atoms: C_12  and  N_13
REMARK    4  A    between atoms: N_13  and  C_14
REMARK    5  A    between atoms: C_14  and  C_15
REMARK                            x       y       z     vdW  Elec       q    Type
REMARK                         _______ _______ _______ _____ _____    ______ ____
ROOT
ATOM      1  C   UNL     1       3.998   7.443  18.231  0.00  0.00    +0.000 C 
ENDROOT
BRANCH   1   5
ATOM      2  N   UNL     1       1.038   9.327  19.444  0.00  0.00    +0.000 N 
ATOM      3  C   UNL     1       1.587   9.568  18.108  0.00  0.00    +0.000 C 
ATOM      4  C   UNL     1       1.712   8.238  17.377  0.00  0.00    +0.000 C 
ATOM      5  C   UNL     1       2.475   7.182  18.197  0.00  0.00    +0.000 C 
ATOM      6  C   UNL     1       1.877   7.076  19.616  0.00  0.00    +0.000 C 
ATOM      7  C   UNL     1       1.829   8.444  20.298  0.00  0.00    +0.000 C 
BRANCH   2  14
ATOM      8 CL   UNL     1      -1.631  10.081  17.961  0.00  0.00    +0.000 Cl
ATOM      9  C   UNL     1      -0.996  10.731  19.441  0.00  0.00    +0.000 A 
ATOM     10  C   UNL     1      -1.711  11.804  19.988  0.00  0.00    +0.000 A 
ATOM     11  C   UNL     1      -1.248  12.454  21.127  0.00  0.00    +0.000 A 
ATOM     12  C   UNL     1      -0.090  12.007  21.747  0.00  0.00    +0.000 A 
ATOM     13  C   UNL     1       0.619  10.925  21.206  0.00  0.00    +0.000 A 
ATOM     14  C   UNL     1       0.213  10.284  20.026  0.00  0.00    +0.000 A 
ENDBRANCH   2  14
ENDBRANCH   1   5
BRANCH   1  15
ATOM     15  N   UNL     1       4.819   6.327  17.736  0.00  0.00    +0.000 NA
ATOM     16  H   UNL     1       5.596   6.680  17.171  0.00  0.00    +0.000 HD
BRANCH  15  17
ATOM     17  C   UNL     1       5.382   5.519  18.832  0.00  0.00    +0.000 C 
BRANCH  17  18
ATOM     18  C   UNL     1       5.375   4.007  18.522  0.00  0.00    +0.000 C 
ATOM     19  C   UNL     1       4.567   3.697  17.261  0.00  0.00    +0.000 C 
ATOM     20  O   UNL     1       3.177   4.010  17.418  0.00  0.00    +0.000 OA
ATOM     21  C   UNL     1       2.686   3.556  18.615  0.00  0.00    +0.000 A 
ATOM     22  C   UNL     1       1.298   3.520  18.756  0.00  0.00    +0.000 A 
ATOM     23  C   UNL     1       0.731   3.088  19.956  0.00  0.00    +0.000 A 
ATOM     24  C   UNL     1       1.551   2.684  21.010  0.00  0.00    +0.000 A 
ATOM     25  C   UNL     1       2.939   2.721  20.869  0.00  0.00    +0.000 A 
ATOM     26  C   UNL     1       3.507   3.178  19.680  0.00  0.00    +0.000 A 
ATOM     27  O   UNL     1       4.875   3.255  19.646  0.00  0.00    +0.000 OA
ENDBRANCH  17  18
ENDBRANCH  15  17
ENDBRANCH   1  15
TORSDOF 5
ENDMDL
MODEL 4
REMARK VINA RESULT:      -7.6      5.688      8.914
REMARK  Name = 
REMARK  5 active torsions:
REMARK  status: ('A' for Active; 'I' for Inactive)
REMARK    1  A    between atoms: C_7  and  N_8
REMARK    2  A    between atoms: C_11  and  C_12
REMARK    3  A    between atoms: C_12  and  N_13
REMARK    4  A    between atoms: N_13  and  C_14
REMARK    5  A    between atoms: C_14  and  C_15
REMARK                            x       y       z     vdW  Elec       q    Type
REMARK                         _______ _______ _______ _____ _____    ______ ____
ROOT
ATOM      1  C   UNL     1       7.336   7.713  17.972  0.00  0.00    +0.000 C 
ENDROOT
BRANCH   1   5
ATOM      2  N   UNL     1       4.654   5.149  17.843  0.00  0.00    +0.000 N 
ATOM      3  C   UNL     1       4.565   6.371  17.041  0.00  0.00    +0.000 C 
ATOM      4  C   UNL     1       5.852   6.534  16.242  0.00  0.00    +0.000 C 
ATOM      5  C   UNL     1       7.111   6.442  17.123  0.00  0.00    +0.000 C 
ATOM      6  C   UNL     1       7.059   5.169  17.994  0.00  0.00    +0.000 C 
ATOM      7  C   UNL     1       5.759   5.104  18.799  0.00  0.00    +0.000 C 
BRANCH   2  14
ATOM      8 CL   UNL     1       2.527   6.346  19.826  0.00  0.00    +0.000 Cl
ATOM      9  C   UNL     1       2.489   4.826  18.989  0.00  0.00    +0.000 A 
ATOM     10  C   UNL     1       1.426   3.977  19.323  0.00  0.00    +0.000 A 
ATOM     11  C   UNL     1       1.341   2.701  18.774  0.00  0.00    +0.000 A 
ATOM     12  C   UNL     1       2.296   2.286  17.858  0.00  0.00    +0.000 A 
ATOM     13  C   UNL     1       3.353   3.140  17.514  0.00  0.00    +0.000 A 
ATOM     14  C   UNL     1       3.502   4.410  18.093  0.00  0.00    +0.000 A 
ENDBRANCH   2  14
ENDBRANCH   1   5
BRANCH   1  15
ATOM     15  N   UNL     1       8.231   8.706  17.357  0.00  0.00    +0.000 NA
ATOM     16  H   UNL     1       7.934   8.909  16.399  0.00  0.00    +0.000 HD
BRANCH  15  17
ATOM     17  C   UNL     1       8.255   9.974  18.107  0.00  0.00    +0.000 C 
BRANCH  17  18
ATOM     18  C   UNL     1       9.565  10.176  18.896  0.00  0.00    +0.000 C 
ATOM     19  C   UNL     1       9.325  10.953  20.193  0.00  0.00    +0.000 C 
ATOM     20  O   UNL     1       8.876  12.292  19.947  0.00  0.00    +0.000 OA
ATOM     21  C   UNL     1       9.614  12.904  18.968  0.00  0.00    +0.000 A 
ATOM     22  C   UNL     1       9.486  14.288  18.852  0.00  0.00    +0.000 A 
ATOM     23  C   UNL     1      10.194  14.973  17.862  0.00  0.00    +0.000 A 
ATOM     24  C   UNL     1      11.036  14.274  16.997  0.00  0.00    +0.000 A 
ATOM     25  C   UNL     1      11.164  12.889  17.112  0.00  0.00    +0.000 A 
ATOM     26  C   UNL     1      10.435  12.201  18.083  0.00  0.00    +0.000 A 
ATOM     27  O   UNL     1      10.558  10.836  18.084  0.00  0.00    +0.000 OA
ENDBRANCH  17  18
ENDBRANCH  15  17
ENDBRANCH   1  15
TORSDOF 5
ENDMDL
MODEL 5
REMARK VINA RESULT:      -7.5      5.484      8.861
REMARK  Name = 
REMARK  5 active torsions:
REMARK  status: ('A' for Active; 'I' for Inactive)
REMARK    1  A    between atoms: C_7  and  N_8
REMARK    2  A    between atoms: C_11  and  C_12
REMARK    3  A    between atoms: C_12  and  N_13
REMARK    4  A    between atoms: N_13  and  C_14
REMARK    5  A    between atoms: C_14  and  C_15
REMARK                            x       y       z     vdW  Elec       q    Type
REMARK                         _______ _______ _______ _____ _____    ______ ____
ROOT
ATOM      1  C   UNL     1       7.393   7.876  17.531  0.00  0.00    +0.000 C 
ENDROOT
BRANCH   1   5
ATOM      2  N   UNL     1       5.028   5.019  17.696  0.00  0.00    +0.000 N 
ATOM      3  C   UNL     1       5.380   5.630  16.413  0.00  0.00    +0.000 C 
ATOM      4  C   UNL     1       6.897   5.685  16.291  0.00  0.00    +0.000 C 
ATOM      5  C   UNL     1       7.566   6.341  17.512  0.00  0.00    +0.000 C 
ATOM      6  C   UNL     1       7.055   5.687  18.814  0.00  0.00    +0.000 C 
ATOM      7  C   UNL     1       5.527   5.715  18.882  0.00  0.00    +0.000 C 
BRANCH   2  14
ATOM      8 CL   UNL     1       2.281   6.496  18.104  0.00  0.00    +0.000 Cl
ATOM      9  C   UNL     1       2.587   4.790  18.008  0.00  0.00    +0.000 A 
ATOM     10  C   UNL     1       1.483   3.961  18.251  0.00  0.00    +0.000 A 
ATOM     11  C   UNL     1       1.631   2.578  18.280  0.00  0.00    +0.000 A 
ATOM     12  C   UNL     1       2.875   2.018  18.025  0.00  0.00    +0.000 A 
ATOM     13  C   UNL     1       3.976   2.846  17.770  0.00  0.00    +0.000 A 
ATOM     14  C   UNL     1       3.876   4.245  17.792  0.00  0.00    +0.000 A 
ENDBRANCH   2  14
ENDBRANCH   1   5
BRANCH   1  15
ATOM     15  N   UNL     1       8.425   8.597  18.292  0.00  0.00    +0.000 NA
ATOM     16  H   UNL     1       9.358   8.354  17.946  0.00  0.00    +0.000 HD
BRANCH  15  17
ATOM     17  C   UNL     1       8.269  10.059  18.197  0.00  0.00    +0.000 C 
BRANCH  17  18
ATOM     18  C   UNL     1       9.620  10.805  18.204  0.00  0.00    +0.000 C 
ATOM     19  C   UNL     1      10.234  10.839  19.605  0.00  0.00    +0.000 C 
ATOM     20  O   UNL     1       9.436  11.590  20.529  0.00  0.00    +0.000 OA
ATOM     21  C   UNL     1       9.017  12.779  19.989  0.00  0.00    +0.000 A 
ATOM     22  C   UNL     1       8.503  13.728  20.874  0.00  0.00    +0.000 A 
ATOM     23  C   UNL     1       8.040  14.953  20.390  0.00  0.00    +0.000 A 
ATOM     24  C   UNL     1       8.101  15.231  19.024  0.00  0.00    +0.000 A 
ATOM     25  C   UNL     1       8.614  14.281  18.139  0.00  0.00    +0.000 A 
ATOM     26  C   UNL     1       9.051  13.046  18.619  0.00  0.00    +0.000 A 
ATOM     27  O   UNL     1       9.472  12.141  17.681  0.00  0.00    +0.000 OA
ENDBRANCH  17  18
ENDBRANCH  15  17
ENDBRANCH   1  15
TORSDOF 5
ENDMDL
MODEL 6
REMARK VINA RESULT:      -7.5      2.352      3.999
REMARK  Name = 
REMARK  5 active torsions:
REMARK  status: ('A' for Active; 'I' for Inactive)
REMARK    1  A    between atoms: C_7  and  N_8
REMARK    2  A    between atoms: C_11  and  C_12
REMARK    3  A    between atoms: C_12  and  N_13
REMARK    4  A    between atoms: N_13  and  C_14
REMARK    5  A    between atoms: C_14  and  C_15
REMARK                            x       y       z     vdW  Elec       q    Type
REMARK                         _______ _______ _______ _____ _____    ______ ____
ROOT
ATOM      1  C   UNL     1       4.384   3.742  19.647  0.00  0.00    +0.000 C 
ENDROOT
BRANCH   1   5
ATOM      2  N   UNL     1       2.165   6.713  19.825  0.00  0.00    +0.000 N 
ATOM      3  C   UNL     1       3.363   6.719  18.984  0.00  0.00    +0.000 C 
ATOM      4  C   UNL     1       3.342   5.490  18.084  0.00  0.00    +0.000 C 
ATOM      5  C   UNL     1       3.125   4.185  18.870  0.00  0.00    +0.000 C 
ATOM      6  C   UNL     1       1.895   4.319  19.794  0.00  0.00    +0.000 C 
ATOM      7  C   UNL     1       2.015   5.548  20.696  0.00  0.00    +0.000 C 
BRANCH   2  14
ATOM      8 CL   UNL     1       1.627   8.840  17.573  0.00  0.00    +0.000 Cl
ATOM      9  C   UNL     1       1.319   8.968  19.277  0.00  0.00    +0.000 A 
ATOM     10  C   UNL     1       0.872  10.221  19.719  0.00  0.00    +0.000 A 
ATOM     11  C   UNL     1       0.672  10.460  21.075  0.00  0.00    +0.000 A 
ATOM     12  C   UNL     1       0.877   9.436  21.988  0.00  0.00    +0.000 A 
ATOM     13  C   UNL     1       1.311   8.180  21.544  0.00  0.00    +0.000 A 
ATOM     14  C   UNL     1       1.580   7.921  20.192  0.00  0.00    +0.000 A 
ENDBRANCH   2  14
ENDBRANCH   1   5
BRANCH   1  15
ATOM     15  N   UNL     1       5.647   3.913  18.911  0.00  0.00    +0.000 NA
ATOM     16  H   UNL     1       5.460   4.127  17.927  0.00  0.00    +0.000 HD
BRANCH  15  17
ATOM     17  C   UNL     1       6.474   4.998  19.465  0.00  0.00    +0.000 C 
BRANCH  17  18
ATOM     18  C   UNL     1       7.667   5.363  18.557  0.00  0.00    +0.000 C 
ATOM     19  C   UNL     1       7.577   6.809  18.066  0.00  0.00    +0.000 C 
ATOM     20  O   UNL     1       6.439   7.025  17.222  0.00  0.00    +0.000 OA
ATOM     21  C   UNL     1       6.301   6.028  16.291  0.00  0.00    +0.000 A 
ATOM     22  C   UNL     1       5.433   6.274  15.227  0.00  0.00    +0.000 A 
ATOM     23  C   UNL     1       5.229   5.294  14.253  0.00  0.00    +0.000 A 
ATOM     24  C   UNL     1       5.902   4.075  14.339  0.00  0.00    +0.000 A 
ATOM     25  C   UNL     1       6.770   3.829  15.404  0.00  0.00    +0.000 A 
ATOM     26  C   UNL     1       6.952   4.797  16.392  0.00  0.00    +0.000 A 
ATOM     27  O   UNL     1       7.762   4.452  17.443  0.00  0.00    +0.000 OA
ENDBRANCH  17  18
ENDBRANCH  15  17
ENDBRANCH   1  15
TORSDOF 5
ENDMDL
MODEL 7
REMARK VINA RESULT:      -7.3      6.038      9.177
REMARK  Name = 
REMARK  5 active torsions:
REMARK  status: ('A' for Active; 'I' for Inactive)
REMARK    1  A    between atoms: C_7  and  N_8
REMARK    2  A    between atoms: C_11  and  C_12
REMARK    3  A    between atoms: C_12  and  N_13
REMARK    4  A    between atoms: N_13  and  C_14
REMARK    5  A    between atoms: C_14  and  C_15
REMARK                            x       y       z     vdW  Elec       q    Type
REMARK                         _______ _______ _______ _____ _____    ______ ____
ROOT
ATOM      1  C   UNL     1       7.372   7.851  17.767  0.00  0.00    +0.000 C 
ENDROOT
BRANCH   1   5
ATOM      2  N   UNL     1       4.840   5.158  18.107  0.00  0.00    +0.000 N 
ATOM      3  C   UNL     1       5.051   5.833  16.826  0.00  0.00    +0.000 C 
ATOM      4  C   UNL     1       6.535   5.793  16.483  0.00  0.00    +0.000 C 
ATOM      5  C   UNL     1       7.421   6.313  17.630  0.00  0.00    +0.000 C 
ATOM      6  C   UNL     1       7.052   5.605  18.951  0.00  0.00    +0.000 C 
ATOM      7  C   UNL     1       5.557   5.731  19.245  0.00  0.00    +0.000 C 
BRANCH   2  14
ATOM      8 CL   UNL     1       4.958   2.560  19.876  0.00  0.00    +0.000 Cl
ATOM      9  C   UNL     1       3.587   3.260  19.074  0.00  0.00    +0.000 A 
ATOM     10  C   UNL     1       2.403   2.513  19.135  0.00  0.00    +0.000 A 
ATOM     11  C   UNL     1       1.263   2.939  18.459  0.00  0.00    +0.000 A 
ATOM     12  C   UNL     1       1.292   4.135  17.756  0.00  0.00    +0.000 A 
ATOM     13  C   UNL     1       2.473   4.887  17.705  0.00  0.00    +0.000 A 
ATOM     14  C   UNL     1       3.657   4.459  18.325  0.00  0.00    +0.000 A 
ENDBRANCH   2  14
ENDBRANCH   1   5
BRANCH   1  15
ATOM     15  N   UNL     1       8.640   8.467  18.187  0.00  0.00    +0.000 NA
ATOM     16  H   UNL     1       9.353   8.345  17.463  0.00  0.00    +0.000 HD
BRANCH  15  17
ATOM     17  C   UNL     1       8.499   9.909  18.452  0.00  0.00    +0.000 C 
BRANCH  17  18
ATOM     18  C   UNL     1       9.509  10.425  19.499  0.00  0.00    +0.000 C 
ATOM     19  C   UNL     1       8.954  11.626  20.269  0.00  0.00    +0.000 C 
ATOM     20  O   UNL     1       8.744  12.763  19.422  0.00  0.00    +0.000 OA
ATOM     21  C   UNL     1       9.812  12.980  18.589  0.00  0.00    +0.000 A 
ATOM     22  C   UNL     1       9.869  14.215  17.944  0.00  0.00    +0.000 A 
ATOM     23  C   UNL     1      10.918  14.496  17.067  0.00  0.00    +0.000 A 
ATOM     24  C   UNL     1      11.913  13.544  16.843  0.00  0.00    +0.000 A 
ATOM     25  C   UNL     1      11.855  12.307  17.487  0.00  0.00    +0.000 A 
ATOM     26  C   UNL     1      10.793  12.017  18.343  0.00  0.00    +0.000 A 
ATOM     27  O   UNL     1      10.768  10.756  18.879  0.00  0.00    +0.000 OA
ENDBRANCH  17  18
ENDBRANCH  15  17
ENDBRANCH   1  15
TORSDOF 5
ENDMDL
MODEL 8
REMARK VINA RESULT:      -7.3      6.002      8.847
REMARK  Name = 
REMARK  5 active torsions:
REMARK  status: ('A' for Active; 'I' for Inactive)
REMARK    1  A    between atoms: C_7  and  N_8
REMARK    2  A    between atoms: C_11  and  C_12
REMARK    3  A    between atoms: C_12  and  N_13
REMARK    4  A    between atoms: N_13  and  C_14
REMARK    5  A    between atoms: C_14  and  C_15
REMARK                            x       y       z     vdW  Elec       q    Type
REMARK                         _______ _______ _______ _____ _____    ______ ____
ROOT
ATOM      1  C   UNL     1       8.084   7.739  18.544  0.00  0.00    +0.000 C 
ENDROOT
BRANCH   1   5
ATOM      2  N   UNL     1       5.072   5.570  18.501  0.00  0.00    +0.000 N 
ATOM      3  C   UNL     1       5.051   6.897  17.883  0.00  0.00    +0.000 C 
ATOM      4  C   UNL     1       6.230   7.016  16.926  0.00  0.00    +0.000 C 
ATOM      5  C   UNL     1       7.569   6.642  17.586  0.00  0.00    +0.000 C 
ATOM      6  C   UNL     1       7.453   5.272  18.288  0.00  0.00    +0.000 C 
ATOM      7  C   UNL     1       6.277   5.251  19.265  0.00  0.00    +0.000 C 
BRANCH   2  14
ATOM      8 CL   UNL     1       3.932   3.414  16.516  0.00  0.00    +0.000 Cl
ATOM      9  C   UNL     1       3.240   3.989  18.001  0.00  0.00    +0.000 A 
ATOM     10  C   UNL     1       1.958   3.508  18.298  0.00  0.00    +0.000 A 
ATOM     11  C   UNL     1       1.275   3.965  19.422  0.00  0.00    +0.000 A 
ATOM     12  C   UNL     1       1.889   4.872  20.273  0.00  0.00    +0.000 A 
ATOM     13  C   UNL     1       3.177   5.343  19.982  0.00  0.00    +0.000 A 
ATOM     14  C   UNL     1       3.870   4.949  18.828  0.00  0.00    +0.000 A 
ENDBRANCH   2  14
ENDBRANCH   1   5
BRANCH   1  15
ATOM     15  N   UNL     1       8.354   9.035  17.901  0.00  0.00    +0.000 NA
ATOM     16  H   UNL     1       7.485   9.444  17.546  0.00  0.00    +0.000 HD
BRANCH  15  17
ATOM     17  C   UNL     1       8.969  10.001  18.827  0.00  0.00    +0.000 C 
BRANCH  17  18
ATOM     18  C   UNL     1       9.753  11.111  18.098  0.00  0.00    +0.000 C 
ATOM     19  C   UNL     1      11.121  11.348  18.742  0.00  0.00    +0.000 C 
ATOM     20  O   UNL     1      11.010  11.846  20.081  0.00  0.00    +0.000 OA
ATOM     21  C   UNL     1      10.081  12.850  20.175  0.00  0.00    +0.000 A 
ATOM     22  C   UNL     1      10.098  13.620  21.338  0.00  0.00    +0.000 A 
ATOM     23  C   UNL     1       9.167  14.646  21.509  0.00  0.00    +0.000 A 
ATOM     24  C   UNL     1       8.226  14.907  20.512  0.00  0.00    +0.000 A 
ATOM     25  C   UNL     1       8.209  14.135  19.349  0.00  0.00    +0.000 A 
ATOM     26  C   UNL     1       9.121  13.092  19.190  0.00  0.00    +0.000 A 
ATOM     27  O   UNL     1       8.992  12.335  18.055  0.00  0.00    +0.000 OA
ENDBRANCH  17  18
ENDBRANCH  15  17
ENDBRANCH   1  15
TORSDOF 5
ENDMDL
MODEL 9
REMARK VINA RESULT:      -7.3      1.129      1.528
REMARK  Name = 
REMARK  5 active torsions:
REMARK  status: ('A' for Active; 'I' for Inactive)
REMARK    1  A    between atoms: C_7  and  N_8
REMARK    2  A    between atoms: C_11  and  C_12
REMARK    3  A    between atoms: C_12  and  N_13
REMARK    4  A    between atoms: N_13  and  C_14
REMARK    5  A    between atoms: C_14  and  C_15
REMARK                            x       y       z     vdW  Elec       q    Type
REMARK                         _______ _______ _______ _____ _____    ______ ____
ROOT
ATOM      1  C   UNL     1       3.878   7.472  18.092  0.00  0.00    +0.000 C 
ENDROOT
BRANCH   1   5
ATOM      2  N   UNL     1       1.060   9.295  19.677  0.00  0.00    +0.000 N 
ATOM      3  C   UNL     1       1.492   9.617  18.316  0.00  0.00    +0.000 C 
ATOM      4  C   UNL     1       1.537   8.335  17.494  0.00  0.00    +0.000 C 
ATOM      5  C   UNL     1       2.355   7.223  18.176  0.00  0.00    +0.000 C 
ATOM      6  C   UNL     1       1.883   7.031  19.633  0.00  0.00    +0.000 C 
ATOM      7  C   UNL     1       1.912   8.353  20.401  0.00  0.00    +0.000 C 
BRANCH   2  14
ATOM      8 CL   UNL     1       1.109   9.144  22.818  0.00  0.00    +0.000 Cl
ATOM      9  C   UNL     1       0.214  10.231  21.802  0.00  0.00    +0.000 A 
ATOM     10  C   UNL     1      -0.683  11.080  22.464  0.00  0.00    +0.000 A 
ATOM     11  C   UNL     1      -1.509  11.935  21.742  0.00  0.00    +0.000 A 
ATOM     12  C   UNL     1      -1.412  11.974  20.359  0.00  0.00    +0.000 A 
ATOM     13  C   UNL     1      -0.506  11.134  19.698  0.00  0.00    +0.000 A 
ATOM     14  C   UNL     1       0.300  10.218  20.389  0.00  0.00    +0.000 A 
ENDBRANCH   2  14
ENDBRANCH   1   5
BRANCH   1  15
ATOM     15  N   UNL     1       4.658   6.321  17.609  0.00  0.00    +0.000 NA
ATOM     16  H   UNL     1       5.389   6.632  16.963  0.00  0.00    +0.000 HD
BRANCH  15  17
ATOM     17  C   UNL     1       5.304   5.584  18.709  0.00  0.00    +0.000 C 
BRANCH  17  18
ATOM     18  C   UNL     1       5.342   4.061  18.466  0.00  0.00    +0.000 C 
ATOM     19  C   UNL     1       4.536   3.671  17.225  0.00  0.00    +0.000 C 
ATOM     20  O   UNL     1       3.138   3.949  17.377  0.00  0.00    +0.000 OA
ATOM     21  C   UNL     1       2.668   3.534  18.596  0.00  0.00    +0.000 A 
ATOM     22  C   UNL     1       1.282   3.463  18.748  0.00  0.00    +0.000 A 
ATOM     23  C   UNL     1       0.734   3.068  19.969  0.00  0.00    +0.000 A 
ATOM     24  C   UNL     1       1.572   2.734  21.034  0.00  0.00    +0.000 A 
ATOM     25  C   UNL     1       2.958   2.807  20.883  0.00  0.00    +0.000 A 
ATOM     26  C   UNL     1       3.505   3.228  19.671  0.00  0.00    +0.000 A 
ATOM     27  O   UNL     1       4.870   3.344  19.625  0.00  0.00    +0.000 OA
ENDBRANCH  17  18
ENDBRANCH  15  17
ENDBRANCH   1  15
TORSDOF 5
ENDMDL
