MODEL 1
REMARK VINA RESULT:      -7.5      0.000      0.000
REMARK  Name = 
REMARK  10 active torsions:
REMARK  status: ('A' for Active; 'I' for Inactive)
REMARK    1  A    between atoms: C_1  and  C_2
REMARK    2  A    between atoms: C_2  and  C_3
REMARK    3  A    between atoms: C_3  and  C_4
REMARK    4  A    between atoms: C_4  and  C_5
REMARK    5  A    between atoms: C_4  and  C_22
REMARK    6  A    between atoms: C_5  and  C_6
REMARK    7  A    between atoms: C_6  and  C_7
REMARK    8  A    between atoms: N_9  and  C_10
REMARK    9  A    between atoms: C_13  and  C_14
REMARK   10  A    between atoms: C_22  and  O_24
REMARK                            x       y       z     vdW  Elec       q    Type
REMARK                         _______ _______ _______ _____ _____    ______ ____
ROOT
ATOM      1  C   UNL     1       3.838   3.819  18.062  0.00  0.00    +0.000 C 
ATOM      2  C   UNL     1       2.501   3.722  17.277  0.00  0.00    +0.000 C 
ATOM      3  C   UNL     1       1.490   3.221  18.307  0.00  0.00    +0.000 C 
ATOM      4  C   UNL     1       2.281   2.343  19.264  0.00  0.00    +0.000 C 
ATOM      5  C   UNL     1       3.746   2.531  18.892  0.00  0.00    +0.000 C 
ENDROOT
BRANCH   1   6
ATOM      6  C   UNL     1       3.793   5.176  18.787  0.00  0.00    +0.000 C 
ATOM      7  O   UNL     1       4.609   5.424  19.676  0.00  0.00    +0.000 OA
ATOM      8  N   UNL     1       2.806   6.058  18.426  0.00  0.00    +0.000 N 
ATOM      9  H   UNL     1       1.970   5.672  18.009  0.00  0.00    +0.000 HD
BRANCH   8  10
ATOM     10  C   UNL     1       2.621   7.306  19.150  0.00  0.00    +0.000 C 
ATOM     11  C   UNL     1       1.776   7.117  20.405  0.00  0.00    +0.000 C 
ATOM     12  C   UNL     1       1.226   8.504  20.730  0.00  0.00    +0.000 C 
ATOM     13  C   UNL     1       1.328   9.330  19.441  0.00  0.00    +0.000 C 
ATOM     14  C   UNL     1       1.828   8.354  18.372  0.00  0.00    +0.000 C 
BRANCH  13  15
ATOM     15  C   UNL     1       0.027   9.987  19.016  0.00  0.00    +0.000 C 
ATOM     16  N   UNL     1      -0.137  10.097  17.665  0.00  0.00    +0.000 N 
ATOM     17  O   UNL     1      -0.824  10.422  19.783  0.00  0.00    +0.000 OA
ATOM     18  H   UNL     1      -0.982  10.536  17.323  0.00  0.00    +0.000 HD
ATOM     19  H   UNL     1       0.549   9.776  16.995  0.00  0.00    +0.000 HD
ENDBRANCH  13  15
ENDBRANCH   8  10
ENDBRANCH   1   6
BRANCH   1  20
ATOM     20  C   UNL     1       5.044   3.820  17.079  0.00  0.00    +0.000 C 
BRANCH  20  21
ATOM     21  C   UNL     1       5.611   5.164  16.550  0.00  0.00    +0.000 C 
BRANCH  21  22
ATOM     22  C   UNL     1       7.096   5.376  16.868  0.00  0.00    +0.000 C 
ATOM     23  O   UNL     1       7.815   4.517  17.357  0.00  0.00    +0.000 OA
BRANCH  22  24
ATOM     24  O   UNL     1       7.580   6.581  16.516  0.00  0.00    +0.000 OA
ATOM     25  H   UNL     1       8.323   6.908  17.053  0.00  0.00    +0.000 HD
ENDBRANCH  22  24
ENDBRANCH  21  22
BRANCH  21  26
ATOM     26  C   UNL     1       5.389   5.465  15.050  0.00  0.00    +0.000 C 
BRANCH  26  28
ATOM     27  C   UNL     1       6.655   4.054  13.401  0.00  0.00    +0.000 C 
ATOM     28  C   UNL     1       5.329   4.248  14.127  0.00  0.00    +0.000 C 
ENDBRANCH  26  28
ENDBRANCH  21  26
ENDBRANCH  20  21
ENDBRANCH   1  20
TORSDOF 9
ENDMDL
MODEL 2
REMARK VINA RESULT:      -7.5      2.330      4.302
REMARK  Name = 
REMARK  10 active torsions:
REMARK  status: ('A' for Active; 'I' for Inactive)
REMARK    1  A    between atoms: C_1  and  C_2
REMARK    2  A    between atoms: C_2  and  C_3
REMARK    3  A    between atoms: C_3  and  C_4
REMARK    4  A    between atoms: C_4  and  C_5
REMARK    5  A    between atoms: C_4  and  C_22
REMARK    6  A    between atoms: C_5  and  C_6
REMARK    7  A    between atoms: C_6  and  C_7
REMARK    8  A    between atoms: N_9  and  C_10
REMARK    9  A    between atoms: C_13  and  C_14
REMARK   10  A    between atoms: C_22  and  O_24
REMARK                            x       y       z     vdW  Elec       q    Type
REMARK                         _______ _______ _______ _____ _____    ______ ____
ROOT
ATOM      1  C   UNL     1       4.287   4.988  18.086  0.00  0.00    +0.000 C 
ATOM      2  C   UNL     1       5.388   6.061  17.870  0.00  0.00    +0.000 C 
ATOM      3  C   UNL     1       5.360   6.341  16.368  0.00  0.00    +0.000 C 
ATOM      4  C   UNL     1       4.943   5.032  15.716  0.00  0.00    +0.000 C 
ATOM      5  C   UNL     1       4.539   4.106  16.855  0.00  0.00    +0.000 C 
ENDROOT
BRANCH   1   6
ATOM      6  C   UNL     1       2.963   5.769  18.182  0.00  0.00    +0.000 C 
ATOM      7  O   UNL     1       1.941   5.308  17.671  0.00  0.00    +0.000 OA
ATOM      8  N   UNL     1       2.987   6.984  18.817  0.00  0.00    +0.000 N 
ATOM      9  H   UNL     1       3.873   7.470  18.855  0.00  0.00    +0.000 HD
BRANCH   8  10
ATOM     10  C   UNL     1       1.808   7.837  18.839  0.00  0.00    +0.000 C 
ATOM     11  C   UNL     1       1.964   9.047  17.924  0.00  0.00    +0.000 C 
ATOM     12  C   UNL     1       0.962  10.075  18.445  0.00  0.00    +0.000 C 
ATOM     13  C   UNL     1       0.628   9.670  19.887  0.00  0.00    +0.000 C 
ATOM     14  C   UNL     1       1.543   8.481  20.198  0.00  0.00    +0.000 C 
BRANCH  13  15
ATOM     15  C   UNL     1       0.812  10.782  20.906  0.00  0.00    +0.000 C 
ATOM     16  N   UNL     1       1.218  11.973  20.375  0.00  0.00    +0.000 N 
ATOM     17  O   UNL     1       0.648  10.663  22.113  0.00  0.00    +0.000 OA
ATOM     18  H   UNL     1       1.366  12.748  21.009  0.00  0.00    +0.000 HD
ATOM     19  H   UNL     1       1.391  12.111  19.388  0.00  0.00    +0.000 HD
ENDBRANCH  13  15
ENDBRANCH   8  10
ENDBRANCH   1   6
BRANCH   1  20
ATOM     20  C   UNL     1       4.518   4.235  19.427  0.00  0.00    +0.000 C 
BRANCH  20  21
ATOM     21  C   UNL     1       3.712   2.948  19.742  0.00  0.00    +0.000 C 
BRANCH  21  22
ATOM     22  C   UNL     1       4.589   1.720  20.015  0.00  0.00    +0.000 C 
ATOM     23  O   UNL     1       5.225   1.556  21.047  0.00  0.00    +0.000 OA
BRANCH  22  24
ATOM     24  O   UNL     1       4.571   0.789  19.045  0.00  0.00    +0.000 OA
ATOM     25  H   UNL     1       4.367  -0.117  19.336  0.00  0.00    +0.000 HD
ENDBRANCH  22  24
ENDBRANCH  21  22
BRANCH  21  26
ATOM     26  C   UNL     1       2.658   3.050  20.869  0.00  0.00    +0.000 C 
BRANCH  26  28
ATOM     27  C   UNL     1       1.045   2.362  19.070  0.00  0.00    +0.000 C 
ATOM     28  C   UNL     1       1.198   3.055  20.419  0.00  0.00    +0.000 C 
ENDBRANCH  26  28
ENDBRANCH  21  26
ENDBRANCH  20  21
ENDBRANCH   1  20
TORSDOF 9
ENDMDL
MODEL 3
REMARK VINA RESULT:      -7.4      1.945      2.686
REMARK  Name = 
REMARK  10 active torsions:
REMARK  status: ('A' for Active; 'I' for Inactive)
REMARK    1  A    between atoms: C_1  and  C_2
REMARK    2  A    between atoms: C_2  and  C_3
REMARK    3  A    between atoms: C_3  and  C_4
REMARK    4  A    between atoms: C_4  and  C_5
REMARK    5  A    between atoms: C_4  and  C_22
REMARK    6  A    between atoms: C_5  and  C_6
REMARK    7  A    between atoms: C_6  and  C_7
REMARK    8  A    between atoms: N_9  and  C_10
REMARK    9  A    between atoms: C_13  and  C_14
REMARK   10  A    between atoms: C_22  and  O_24
REMARK                            x       y       z     vdW  Elec       q    Type
REMARK                         _______ _______ _______ _____ _____    ______ ____
ROOT
ATOM      1  C   UNL     1       3.905   3.868  17.809  0.00  0.00    +0.000 C 
ATOM      2  C   UNL     1       3.268   2.451  17.816  0.00  0.00    +0.000 C 
ATOM      3  C   UNL     1       3.151   2.093  19.297  0.00  0.00    +0.000 C 
ATOM      4  C   UNL     1       4.318   2.789  19.980  0.00  0.00    +0.000 C 
ATOM      5  C   UNL     1       4.944   3.691  18.924  0.00  0.00    +0.000 C 
ENDROOT
BRANCH   1   6
ATOM      6  C   UNL     1       2.736   4.846  18.028  0.00  0.00    +0.000 C 
ATOM      7  O   UNL     1       1.619   4.576  17.585  0.00  0.00    +0.000 OA
ATOM      8  N   UNL     1       3.003   6.016  18.693  0.00  0.00    +0.000 N 
ATOM      9  H   UNL     1       3.956   6.351  18.677  0.00  0.00    +0.000 HD
BRANCH   8  10
ATOM     10  C   UNL     1       1.983   7.044  18.830  0.00  0.00    +0.000 C 
ATOM     11  C   UNL     1       2.411   8.358  18.186  0.00  0.00    +0.000 C 
ATOM     12  C   UNL     1       1.553   9.431  18.855  0.00  0.00    +0.000 C 
ATOM     13  C   UNL     1       1.040   8.825  20.168  0.00  0.00    +0.000 C 
ATOM     14  C   UNL     1       1.717   7.455  20.276  0.00  0.00    +0.000 C 
BRANCH  13  15
ATOM     15  C   UNL     1       1.320   9.672  21.397  0.00  0.00    +0.000 C 
ATOM     16  N   UNL     1       1.832   8.980  22.457  0.00  0.00    +0.000 N 
ATOM     17  O   UNL     1       1.098  10.873  21.488  0.00  0.00    +0.000 OA
ATOM     18  H   UNL     1       2.029   9.493  23.307  0.00  0.00    +0.000 HD
ATOM     19  H   UNL     1       2.008   7.984  22.437  0.00  0.00    +0.000 HD
ENDBRANCH  13  15
ENDBRANCH   8  10
ENDBRANCH   1   6
BRANCH   1  20
ATOM     20  C   UNL     1       4.549   4.165  16.424  0.00  0.00    +0.000 C 
BRANCH  20  21
ATOM     21  C   UNL     1       5.952   4.821  16.347  0.00  0.00    +0.000 C 
BRANCH  21  22
ATOM     22  C   UNL     1       6.669   4.594  15.011  0.00  0.00    +0.000 C 
ATOM     23  O   UNL     1       6.288   3.800  14.163  0.00  0.00    +0.000 OA
BRANCH  22  24
ATOM     24  O   UNL     1       7.738   5.384  14.805  0.00  0.00    +0.000 OA
ATOM     25  H   UNL     1       8.372   5.431  15.541  0.00  0.00    +0.000 HD
ENDBRANCH  22  24
ENDBRANCH  21  22
BRANCH  21  26
ATOM     26  C   UNL     1       6.031   6.327  16.689  0.00  0.00    +0.000 C 
BRANCH  26  28
ATOM     27  C   UNL     1       7.734   7.993  17.486  0.00  0.00    +0.000 C 
ATOM     28  C   UNL     1       6.989   6.706  17.818  0.00  0.00    +0.000 C 
ENDBRANCH  26  28
ENDBRANCH  21  26
ENDBRANCH  20  21
ENDBRANCH   1  20
TORSDOF 9
ENDMDL
MODEL 4
REMARK VINA RESULT:      -7.4      2.370      4.523
REMARK  Name = 
REMARK  10 active torsions:
REMARK  status: ('A' for Active; 'I' for Inactive)
REMARK    1  A    between atoms: C_1  and  C_2
REMARK    2  A    between atoms: C_2  and  C_3
REMARK    3  A    between atoms: C_3  and  C_4
REMARK    4  A    between atoms: C_4  and  C_5
REMARK    5  A    between atoms: C_4  and  C_22
REMARK    6  A    between atoms: C_5  and  C_6
REMARK    7  A    between atoms: C_6  and  C_7
REMARK    8  A    between atoms: N_9  and  C_10
REMARK    9  A    between atoms: C_13  and  C_14
REMARK   10  A    between atoms: C_22  and  O_24
REMARK                            x       y       z     vdW  Elec       q    Type
REMARK                         _______ _______ _______ _____ _____    ______ ____
ROOT
ATOM      1  C   UNL     1       4.572   4.941  17.876  0.00  0.00    +0.000 C 
ATOM      2  C   UNL     1       5.650   6.047  18.037  0.00  0.00    +0.000 C 
ATOM      3  C   UNL     1       5.727   6.709  16.662  0.00  0.00    +0.000 C 
ATOM      4  C   UNL     1       5.404   5.610  15.660  0.00  0.00    +0.000 C 
ATOM      5  C   UNL     1       4.946   4.414  16.484  0.00  0.00    +0.000 C 
ENDROOT
BRANCH   1   6
ATOM      6  C   UNL     1       3.220   5.654  18.062  0.00  0.00    +0.000 C 
ATOM      7  O   UNL     1       2.206   5.194  17.533  0.00  0.00    +0.000 OA
ATOM      8  N   UNL     1       3.207   6.811  18.798  0.00  0.00    +0.000 N 
ATOM      9  H   UNL     1       4.073   7.330  18.861  0.00  0.00    +0.000 HD
BRANCH   8  10
ATOM     10  C   UNL     1       1.995   7.608  18.914  0.00  0.00    +0.000 C 
ATOM     11  C   UNL     1       2.091   8.909  18.126  0.00  0.00    +0.000 C 
ATOM     12  C   UNL     1       1.054   9.837  18.755  0.00  0.00    +0.000 C 
ATOM     13  C   UNL     1       0.752   9.274  20.151  0.00  0.00    +0.000 C 
ATOM     14  C   UNL     1       1.718   8.099  20.333  0.00  0.00    +0.000 C 
BRANCH  13  15
ATOM     15  C   UNL     1       0.901  10.284  21.276  0.00  0.00    +0.000 C 
ATOM     16  N   UNL     1       0.904  11.587  20.869  0.00  0.00    +0.000 N 
ATOM     17  O   UNL     1       1.037  10.002  22.460  0.00  0.00    +0.000 OA
ATOM     18  H   UNL     1       1.010  12.304  21.575  0.00  0.00    +0.000 HD
ATOM     19  H   UNL     1       0.821  11.867  19.900  0.00  0.00    +0.000 HD
ENDBRANCH  13  15
ENDBRANCH   8  10
ENDBRANCH   1   6
BRANCH   1  20
ATOM     20  C   UNL     1       4.725   3.867  18.991  0.00  0.00    +0.000 C 
BRANCH  20  21
ATOM     21  C   UNL     1       3.522   2.964  19.367  0.00  0.00    +0.000 C 
BRANCH  21  22
ATOM     22  C   UNL     1       3.323   1.774  18.420  0.00  0.00    +0.000 C 
ATOM     23  O   UNL     1       2.460   1.733  17.556  0.00  0.00    +0.000 OA
BRANCH  22  24
ATOM     24  O   UNL     1       4.214   0.779  18.573  0.00  0.00    +0.000 OA
ATOM     25  H   UNL     1       4.534   0.638  19.481  0.00  0.00    +0.000 HD
ENDBRANCH  22  24
ENDBRANCH  21  22
BRANCH  21  26
ATOM     26  C   UNL     1       3.479   2.438  20.821  0.00  0.00    +0.000 C 
BRANCH  26  28
ATOM     27  C   UNL     1       1.393   3.837  20.892  0.00  0.00    +0.000 C 
ATOM     28  C   UNL     1       2.223   2.785  21.619  0.00  0.00    +0.000 C 
ENDBRANCH  26  28
ENDBRANCH  21  26
ENDBRANCH  20  21
ENDBRANCH   1  20
TORSDOF 9
ENDMDL
MODEL 5
REMARK VINA RESULT:      -7.3      0.885      1.378
REMARK  Name = 
REMARK  10 active torsions:
REMARK  status: ('A' for Active; 'I' for Inactive)
REMARK    1  A    between atoms: C_1  and  C_2
REMARK    2  A    between atoms: C_2  and  C_3
REMARK    3  A    between atoms: C_3  and  C_4
REMARK    4  A    between atoms: C_4  and  C_5
REMARK    5  A    between atoms: C_4  and  C_22
REMARK    6  A    between atoms: C_5  and  C_6
REMARK    7  A    between atoms: C_6  and  C_7
REMARK    8  A    between atoms: N_9  and  C_10
REMARK    9  A    between atoms: C_13  and  C_14
REMARK   10  A    between atoms: C_22  and  O_24
REMARK                            x       y       z     vdW  Elec       q    Type
REMARK                         _______ _______ _______ _____ _____    ______ ____
ROOT
ATOM      1  C   UNL     1       3.411   3.461  18.198  0.00  0.00    +0.000 C 
ATOM      2  C   UNL     1       2.008   3.426  17.531  0.00  0.00    +0.000 C 
ATOM      3  C   UNL     1       1.059   3.021  18.658  0.00  0.00    +0.000 C 
ATOM      4  C   UNL     1       1.874   2.123  19.576  0.00  0.00    +0.000 C 
ATOM      5  C   UNL     1       3.311   2.207  19.077  0.00  0.00    +0.000 C 
ENDROOT
BRANCH   1   6
ATOM      6  C   UNL     1       3.510   4.840  18.877  0.00  0.00    +0.000 C 
ATOM      7  O   UNL     1       4.413   5.061  19.686  0.00  0.00    +0.000 OA
ATOM      8  N   UNL     1       2.551   5.771  18.569  0.00  0.00    +0.000 N 
ATOM      9  H   UNL     1       1.661   5.426  18.237  0.00  0.00    +0.000 HD
BRANCH   8  10
ATOM     10  C   UNL     1       2.504   7.049  19.261  0.00  0.00    +0.000 C 
ATOM     11  C   UNL     1       1.664   6.979  20.531  0.00  0.00    +0.000 C 
ATOM     12  C   UNL     1       1.261   8.422  20.827  0.00  0.00    +0.000 C 
ATOM     13  C   UNL     1       1.427   9.201  19.514  0.00  0.00    +0.000 C 
ATOM     14  C   UNL     1       1.810   8.152  18.465  0.00  0.00    +0.000 C 
BRANCH  13  15
ATOM     15  C   UNL     1       0.193   9.976  19.089  0.00  0.00    +0.000 C 
ATOM     16  N   UNL     1       0.098  10.194  17.744  0.00  0.00    +0.000 N 
ATOM     17  O   UNL     1      -0.660  10.412  19.851  0.00  0.00    +0.000 OA
ATOM     18  H   UNL     1      -0.700  10.715  17.403  0.00  0.00    +0.000 HD
ATOM     19  H   UNL     1       0.791   9.875  17.080  0.00  0.00    +0.000 HD
ENDBRANCH  13  15
ENDBRANCH   8  10
ENDBRANCH   1   6
BRANCH   1  20
ATOM     20  C   UNL     1       4.527   3.357  17.119  0.00  0.00    +0.000 C 
BRANCH  20  21
ATOM     21  C   UNL     1       5.422   4.585  16.810  0.00  0.00    +0.000 C 
BRANCH  21  22
ATOM     22  C   UNL     1       6.883   4.410  17.242  0.00  0.00    +0.000 C 
ATOM     23  O   UNL     1       7.832   4.495  16.476  0.00  0.00    +0.000 OA
BRANCH  22  24
ATOM     24  O   UNL     1       7.059   4.205  18.559  0.00  0.00    +0.000 OA
ATOM     25  H   UNL     1       7.857   3.705  18.804  0.00  0.00    +0.000 HD
ENDBRANCH  22  24
ENDBRANCH  21  22
BRANCH  21  26
ATOM     26  C   UNL     1       5.407   5.102  15.353  0.00  0.00    +0.000 C 
BRANCH  26  28
ATOM     27  C   UNL     1       4.910   7.276  16.512  0.00  0.00    +0.000 C 
ATOM     28  C   UNL     1       5.257   6.614  15.183  0.00  0.00    +0.000 C 
ENDBRANCH  26  28
ENDBRANCH  21  26
ENDBRANCH  20  21
ENDBRANCH   1  20
TORSDOF 9
ENDMDL
MODEL 6
REMARK VINA RESULT:      -7.2      2.528      6.490
REMARK  Name = 
REMARK  10 active torsions:
REMARK  status: ('A' for Active; 'I' for Inactive)
REMARK    1  A    between atoms: C_1  and  C_2
REMARK    2  A    between atoms: C_2  and  C_3
REMARK    3  A    between atoms: C_3  and  C_4
REMARK    4  A    between atoms: C_4  and  C_5
REMARK    5  A    between atoms: C_4  and  C_22
REMARK    6  A    between atoms: C_5  and  C_6
REMARK    7  A    between atoms: C_6  and  C_7
REMARK    8  A    between atoms: N_9  and  C_10
REMARK    9  A    between atoms: C_13  and  C_14
REMARK   10  A    between atoms: C_22  and  O_24
REMARK                            x       y       z     vdW  Elec       q    Type
REMARK                         _______ _______ _______ _____ _____    ______ ____
ROOT
ATOM      1  C   UNL     1       2.210   5.980  19.464  0.00  0.00    +0.000 C 
ATOM      2  C   UNL     1       1.574   6.282  18.080  0.00  0.00    +0.000 C 
ATOM      3  C   UNL     1       2.030   7.704  17.753  0.00  0.00    +0.000 C 
ATOM      4  C   UNL     1       2.159   8.411  19.094  0.00  0.00    +0.000 C 
ATOM      5  C   UNL     1       1.985   7.332  20.155  0.00  0.00    +0.000 C 
ENDROOT
BRANCH   1   6
ATOM      6  C   UNL     1       3.652   5.528  19.166  0.00  0.00    +0.000 C 
ATOM      7  O   UNL     1       4.488   5.509  20.070  0.00  0.00    +0.000 OA
ATOM      8  N   UNL     1       3.956   5.189  17.872  0.00  0.00    +0.000 N 
ATOM      9  H   UNL     1       3.382   5.586  17.141  0.00  0.00    +0.000 HD
BRANCH   8  10
ATOM     10  C   UNL     1       5.323   4.873  17.486  0.00  0.00    +0.000 C 
ATOM     11  C   UNL     1       6.191   6.122  17.392  0.00  0.00    +0.000 C 
ATOM     12  C   UNL     1       7.361   5.732  16.491  0.00  0.00    +0.000 C 
ATOM     13  C   UNL     1       6.910   4.496  15.701  0.00  0.00    +0.000 C 
ATOM     14  C   UNL     1       5.444   4.279  16.085  0.00  0.00    +0.000 C 
BRANCH  13  15
ATOM     15  C   UNL     1       7.068   4.626  14.196  0.00  0.00    +0.000 C 
ATOM     16  N   UNL     1       6.396   3.683  13.473  0.00  0.00    +0.000 N 
ATOM     17  O   UNL     1       7.751   5.473  13.632  0.00  0.00    +0.000 OA
ATOM     18  H   UNL     1       6.473   3.715  12.464  0.00  0.00    +0.000 HD
ATOM     19  H   UNL     1       5.842   2.950  13.895  0.00  0.00    +0.000 HD
ENDBRANCH  13  15
ENDBRANCH   8  10
ENDBRANCH   1   6
BRANCH   1  20
ATOM     20  C   UNL     1       1.457   4.811  20.163  0.00  0.00    +0.000 C 
BRANCH  20  21
ATOM     21  C   UNL     1       2.039   3.374  20.109  0.00  0.00    +0.000 C 
BRANCH  21  22
ATOM     22  C   UNL     1       2.090   2.676  21.474  0.00  0.00    +0.000 C 
ATOM     23  O   UNL     1       3.118   2.252  21.981  0.00  0.00    +0.000 OA
BRANCH  22  24
ATOM     24  O   UNL     1       0.909   2.607  22.114  0.00  0.00    +0.000 OA
ATOM     25  H   UNL     1       0.934   2.198  22.996  0.00  0.00    +0.000 HD
ENDBRANCH  22  24
ENDBRANCH  21  22
BRANCH  21  26
ATOM     26  C   UNL     1       1.393   2.404  19.093  0.00  0.00    +0.000 C 
BRANCH  26  28
ATOM     27  C   UNL     1       3.607   1.583  18.234  0.00  0.00    +0.000 C 
ATOM     28  C   UNL     1       2.223   2.092  17.848  0.00  0.00    +0.000 C 
ENDBRANCH  26  28
ENDBRANCH  21  26
ENDBRANCH  20  21
ENDBRANCH   1  20
TORSDOF 9
ENDMDL
MODEL 7
REMARK VINA RESULT:      -7.2      2.305      3.334
REMARK  Name = 
REMARK  10 active torsions:
REMARK  status: ('A' for Active; 'I' for Inactive)
REMARK    1  A    between atoms: C_1  and  C_2
REMARK    2  A    between atoms: C_2  and  C_3
REMARK    3  A    between atoms: C_3  and  C_4
REMARK    4  A    between atoms: C_4  and  C_5
REMARK    5  A    between atoms: C_4  and  C_22
REMARK    6  A    between atoms: C_5  and  C_6
REMARK    7  A    between atoms: C_6  and  C_7
REMARK    8  A    between atoms: N_9  and  C_10
REMARK    9  A    between atoms: C_13  and  C_14
REMARK   10  A    between atoms: C_22  and  O_24
REMARK                            x       y       z     vdW  Elec       q    Type
REMARK                         _______ _______ _______ _____ _____    ______ ____
ROOT
ATOM      1  C   UNL     1       4.348   5.523  18.208  0.00  0.00    +0.000 C 
ATOM      2  C   UNL     1       4.133   4.298  17.277  0.00  0.00    +0.000 C 
ATOM      3  C   UNL     1       3.783   3.154  18.228  0.00  0.00    +0.000 C 
ATOM      4  C   UNL     1       4.531   3.450  19.519  0.00  0.00    +0.000 C 
ATOM      5  C   UNL     1       5.113   4.848  19.354  0.00  0.00    +0.000 C 
ENDROOT
BRANCH   1   6
ATOM      6  C   UNL     1       2.941   6.084  18.482  0.00  0.00    +0.000 C 
ATOM      7  O   UNL     1       2.012   5.811  17.720  0.00  0.00    +0.000 OA
ATOM      8  N   UNL     1       2.785   6.907  19.569  0.00  0.00    +0.000 N 
ATOM      9  H   UNL     1       3.605   7.395  19.901  0.00  0.00    +0.000 HD
BRANCH   8  10
ATOM     10  C   UNL     1       1.518   7.575  19.822  0.00  0.00    +0.000 C 
ATOM     11  C   UNL     1       1.510   9.003  19.288  0.00  0.00    +0.000 C 
ATOM     12  C   UNL     1       0.411   9.719  20.071  0.00  0.00    +0.000 C 
ATOM     13  C   UNL     1       0.163   8.888  21.337  0.00  0.00    +0.000 C 
ATOM     14  C   UNL     1       1.215   7.775  21.305  0.00  0.00    +0.000 C 
BRANCH  13  15
ATOM     15  C   UNL     1       0.245   9.681  22.629  0.00  0.00    +0.000 C 
ATOM     16  N   UNL     1      -0.788  10.553  22.824  0.00  0.00    +0.000 N 
ATOM     17  O   UNL     1       1.153   9.602  23.447  0.00  0.00    +0.000 OA
ATOM     18  H   UNL     1      -0.781  11.117  23.664  0.00  0.00    +0.000 HD
ATOM     19  H   UNL     1      -1.546  10.671  22.165  0.00  0.00    +0.000 HD
ENDBRANCH  13  15
ENDBRANCH   8  10
ENDBRANCH   1   6
BRANCH   1  20
ATOM     20  C   UNL     1       5.185   6.615  17.482  0.00  0.00    +0.000 C 
BRANCH  20  21
ATOM     21  C   UNL     1       6.735   6.534  17.489  0.00  0.00    +0.000 C 
BRANCH  21  22
ATOM     22  C   UNL     1       7.305   5.514  16.495  0.00  0.00    +0.000 C 
ATOM     23  O   UNL     1       7.483   5.750  15.309  0.00  0.00    +0.000 OA
BRANCH  22  24
ATOM     24  O   UNL     1       7.655   4.335  17.039  0.00  0.00    +0.000 OA
ATOM     25  H   UNL     1       8.373   3.861  16.586  0.00  0.00    +0.000 HD
ENDBRANCH  22  24
ENDBRANCH  21  22
BRANCH  21  26
ATOM     26  C   UNL     1       7.497   7.867  17.305  0.00  0.00    +0.000 C 
BRANCH  26  28
ATOM     27  C   UNL     1       8.730   9.770  18.388  0.00  0.00    +0.000 C 
ATOM     28  C   UNL     1       8.400   8.284  18.466  0.00  0.00    +0.000 C 
ENDBRANCH  26  28
ENDBRANCH  21  26
ENDBRANCH  20  21
ENDBRANCH   1  20
TORSDOF 9
ENDMDL
MODEL 8
REMARK VINA RESULT:      -7.2      3.145      7.460
REMARK  Name = 
REMARK  10 active torsions:
REMARK  status: ('A' for Active; 'I' for Inactive)
REMARK    1  A    between atoms: C_1  and  C_2
REMARK    2  A    between atoms: C_2  and  C_3
REMARK    3  A    between atoms: C_3  and  C_4
REMARK    4  A    between atoms: C_4  and  C_5
REMARK    5  A    between atoms: C_4  and  C_22
REMARK    6  A    between atoms: C_5  and  C_6
REMARK    7  A    between atoms: C_6  and  C_7
REMARK    8  A    between atoms: N_9  and  C_10
REMARK    9  A    between atoms: C_13  and  C_14
REMARK   10  A    between atoms: C_22  and  O_24
REMARK                            x       y       z     vdW  Elec       q    Type
REMARK                         _______ _______ _______ _____ _____    ______ ____
ROOT
ATOM      1  C   UNL     1       6.535   5.731  18.011  0.00  0.00    +0.000 C 
ATOM      2  C   UNL     1       6.211   7.126  17.410  0.00  0.00    +0.000 C 
ATOM      3  C   UNL     1       7.550   7.862  17.412  0.00  0.00    +0.000 C 
ATOM      4  C   UNL     1       8.314   7.320  18.610  0.00  0.00    +0.000 C 
ATOM      5  C   UNL     1       7.494   6.148  19.134  0.00  0.00    +0.000 C 
ENDROOT
BRANCH   1   6
ATOM      6  C   UNL     1       7.081   4.894  16.839  0.00  0.00    +0.000 C 
ATOM      7  O   UNL     1       8.049   4.152  17.015  0.00  0.00    +0.000 OA
ATOM      8  N   UNL     1       6.473   5.036  15.618  0.00  0.00    +0.000 N 
ATOM      9  H   UNL     1       5.981   5.902  15.444  0.00  0.00    +0.000 HD
BRANCH   8  10
ATOM     10  C   UNL     1       7.008   4.376  14.437  0.00  0.00    +0.000 C 
ATOM     11  C   UNL     1       7.111   5.328  13.251  0.00  0.00    +0.000 C 
ATOM     12  C   UNL     1       7.145   4.429  12.017  0.00  0.00    +0.000 C 
ATOM     13  C   UNL     1       6.572   3.072  12.448  0.00  0.00    +0.000 C 
ATOM     14  C   UNL     1       6.111   3.266  13.895  0.00  0.00    +0.000 C 
BRANCH  13  15
ATOM     15  C   UNL     1       5.435   2.570  11.574  0.00  0.00    +0.000 C 
ATOM     16  N   UNL     1       4.375   3.425  11.480  0.00  0.00    +0.000 N 
ATOM     17  O   UNL     1       5.413   1.486  11.004  0.00  0.00    +0.000 OA
ATOM     18  H   UNL     1       3.583   3.138  10.918  0.00  0.00    +0.000 HD
ATOM     19  H   UNL     1       4.337   4.318  11.953  0.00  0.00    +0.000 HD
ENDBRANCH  13  15
ENDBRANCH   8  10
ENDBRANCH   1   6
BRANCH   1  20
ATOM     20  C   UNL     1       5.238   5.055  18.542  0.00  0.00    +0.000 C 
BRANCH  20  21
ATOM     21  C   UNL     1       3.973   4.997  17.647  0.00  0.00    +0.000 C 
BRANCH  21  22
ATOM     22  C   UNL     1       3.464   3.573  17.386  0.00  0.00    +0.000 C 
ATOM     23  O   UNL     1       2.335   3.318  16.996  0.00  0.00    +0.000 OA
BRANCH  22  24
ATOM     24  O   UNL     1       4.381   2.607  17.569  0.00  0.00    +0.000 OA
ATOM     25  H   UNL     1       4.821   2.287  16.761  0.00  0.00    +0.000 HD
ENDBRANCH  22  24
ENDBRANCH  21  22
BRANCH  21  26
ATOM     26  C   UNL     1       2.772   5.866  18.088  0.00  0.00    +0.000 C 
BRANCH  26  28
ATOM     27  C   UNL     1       2.098   7.375  19.981  0.00  0.00    +0.000 C 
ATOM     28  C   UNL     1       2.542   5.969  19.596  0.00  0.00    +0.000 C 
ENDBRANCH  26  28
ENDBRANCH  21  26
ENDBRANCH  20  21
ENDBRANCH   1  20
TORSDOF 9
ENDMDL
MODEL 9
REMARK VINA RESULT:      -7.2      3.583      5.123
REMARK  Name = 
REMARK  10 active torsions:
REMARK  status: ('A' for Active; 'I' for Inactive)
REMARK    1  A    between atoms: C_1  and  C_2
REMARK    2  A    between atoms: C_2  and  C_3
REMARK    3  A    between atoms: C_3  and  C_4
REMARK    4  A    between atoms: C_4  and  C_5
REMARK    5  A    between atoms: C_4  and  C_22
REMARK    6  A    between atoms: C_5  and  C_6
REMARK    7  A    between atoms: C_6  and  C_7
REMARK    8  A    between atoms: N_9  and  C_10
REMARK    9  A    between atoms: C_13  and  C_14
REMARK   10  A    between atoms: C_22  and  O_24
REMARK                            x       y       z     vdW  Elec       q    Type
REMARK                         _______ _______ _______ _____ _____    ______ ____
ROOT
ATOM      1  C   UNL     1       6.131   5.156  16.135  0.00  0.00    +0.000 C 
ATOM      2  C   UNL     1       7.201   6.060  16.807  0.00  0.00    +0.000 C 
ATOM      3  C   UNL     1       6.396   7.179  17.466  0.00  0.00    +0.000 C 
ATOM      4  C   UNL     1       5.171   7.375  16.585  0.00  0.00    +0.000 C 
ATOM      5  C   UNL     1       5.194   6.235  15.576  0.00  0.00    +0.000 C 
ENDROOT
BRANCH   1   6
ATOM      6  C   UNL     1       5.616   4.228  17.250  0.00  0.00    +0.000 C 
ATOM      7  O   UNL     1       6.379   3.865  18.147  0.00  0.00    +0.000 OA
ATOM      8  N   UNL     1       4.311   3.812  17.179  0.00  0.00    +0.000 N 
ATOM      9  H   UNL     1       3.876   3.807  16.267  0.00  0.00    +0.000 HD
BRANCH   8  10
ATOM     10  C   UNL     1       3.787   2.837  18.123  0.00  0.00    +0.000 C 
ATOM     11  C   UNL     1       2.338   2.473  17.820  0.00  0.00    +0.000 C 
ATOM     12  C   UNL     1       1.781   1.919  19.130  0.00  0.00    +0.000 C 
ATOM     13  C   UNL     1       2.705   2.423  20.247  0.00  0.00    +0.000 C 
ATOM     14  C   UNL     1       3.705   3.355  19.557  0.00  0.00    +0.000 C 
BRANCH  13  15
ATOM     15  C   UNL     1       1.985   3.134  21.379  0.00  0.00    +0.000 C 
ATOM     16  N   UNL     1       2.016   4.497  21.301  0.00  0.00    +0.000 N 
ATOM     17  O   UNL     1       1.431   2.577  22.319  0.00  0.00    +0.000 OA
ATOM     18  H   UNL     1       1.560   5.024  22.035  0.00  0.00    +0.000 HD
ATOM     19  H   UNL     1       2.482   5.000  20.559  0.00  0.00    +0.000 HD
ENDBRANCH  13  15
ENDBRANCH   8  10
ENDBRANCH   1   6
BRANCH   1  20
ATOM     20  C   UNL     1       6.781   4.283  15.023  0.00  0.00    +0.000 C 
BRANCH  20  21
ATOM     21  C   UNL     1       6.588   4.661  13.531  0.00  0.00    +0.000 C 
BRANCH  21  22
ATOM     22  C   UNL     1       7.805   5.356  12.907  0.00  0.00    +0.000 C 
ATOM     23  O   UNL     1       8.741   5.798  13.557  0.00  0.00    +0.000 OA
BRANCH  22  24
ATOM     24  O   UNL     1       7.799   5.400  11.563  0.00  0.00    +0.000 OA
ATOM     25  H   UNL     1       7.587   4.562  11.116  0.00  0.00    +0.000 HD
ENDBRANCH  22  24
ENDBRANCH  21  22
BRANCH  21  26
ATOM     26  C   UNL     1       6.141   3.525  12.582  0.00  0.00    +0.000 C 
BRANCH  26  28
ATOM     27  C   UNL     1       4.195   3.208  11.023  0.00  0.00    +0.000 C 
ATOM     28  C   UNL     1       4.632   3.296  12.481  0.00  0.00    +0.000 C 
ENDBRANCH  26  28
ENDBRANCH  21  26
ENDBRANCH  20  21
ENDBRANCH   1  20
TORSDOF 9
ENDMDL
