MODEL 1
REMARK VINA RESULT:      -7.2      0.000      0.000
REMARK  Name = 
REMARK  8 active torsions:
REMARK  status: ('A' for Active; 'I' for Inactive)
REMARK    1  A    between atoms: C_1  and  C_2
REMARK    2  A    between atoms: C_2  and  C_3
REMARK    3  A    between atoms: C_3  and  C_4
REMARK    4  A    between atoms: C_4  and  N_5
REMARK    5  A    between atoms: C_7  and  C_8
REMARK    6  A    between atoms: N_10  and  C_11
REMARK    7  A    between atoms: C_20  and  C_21
REMARK    8  A    between atoms: N_23  and  C_24
REMARK                            x       y       z     vdW  Elec       q    Type
REMARK                         _______ _______ _______ _____ _____    ______ ____
ROOT
ATOM      1  N   UNL     1      -0.496  10.876  18.733  0.00  0.00    +0.000 N 
ATOM      2  C   UNL     1       0.444   9.944  18.242  0.00  0.00    +0.000 A 
ATOM      3  C   UNL     1       1.162   9.067  18.982  0.00  0.00    +0.000 A 
ATOM      4  C   UNL     1       0.964   9.067  20.463  0.00  0.00    +0.000 A 
ATOM      5  O   UNL     1       1.558   8.288  21.202  0.00  0.00    +0.000 OA
ATOM      6  C   UNL     1       0.009  10.038  20.940  0.00  0.00    +0.000 A 
ATOM      7  C   UNL     1      -0.450  10.326  22.236  0.00  0.00    +0.000 A 
ATOM      8  C   UNL     1      -0.075   9.684  23.520  0.00  0.00    +0.000 C 
ATOM      9  N   UNL     1      -1.348  11.311  22.224  0.00  0.00    +0.000 NA
ATOM     10  N   UNL     1      -1.461  11.663  20.918  0.00  0.00    +0.000 N 
ATOM     11  C   UNL     1      -2.338  12.770  20.623  0.00  0.00    +0.000 C 
ATOM     12  C   UNL     1      -0.670  10.894  20.096  0.00  0.00    +0.000 A 
ENDROOT
BRANCH   3  13
ATOM     13  C   UNL     1       2.123   8.130  18.313  0.00  0.00    +0.000 C 
ATOM     14  O   UNL     1       2.756   8.467  17.318  0.00  0.00    +0.000 OA
ATOM     15  N   UNL     1       2.241   6.882  18.888  0.00  0.00    +0.000 N 
ATOM     16  H   UNL     1       1.588   6.631  19.630  0.00  0.00    +0.000 HD
BRANCH  15  17
ATOM     17  C   UNL     1       3.099   5.831  18.351  0.00  0.00    +0.000 C 
ATOM     18  C   UNL     1       3.941   5.178  19.457  0.00  0.00    +0.000 C 
ATOM     19  C   UNL     1       3.114   4.303  20.400  0.00  0.00    +0.000 C 
ATOM     20  C   UNL     1       2.284   3.275  19.636  0.00  0.00    +0.000 C 
ATOM     21  C   UNL     1       1.430   3.924  18.550  0.00  0.00    +0.000 C 
ATOM     22  C   UNL     1       2.272   4.778  17.603  0.00  0.00    +0.000 C 
ENDBRANCH  15  17
ENDBRANCH   3  13
BRANCH   1  23
ATOM     23  C   UNL     1      -1.328  11.666  17.811  0.00  0.00    +0.000 C 
BRANCH  23  24
ATOM     24  C   UNL     1      -2.644  10.956  17.486  0.00  0.00    +0.000 C 
BRANCH  24  26
ATOM     25  C   UNL     1      -2.844   9.866  15.218  0.00  0.00    +0.000 C 
ATOM     26  C   UNL     1      -3.025  11.149  16.017  0.00  0.00    +0.000 C 
ENDBRANCH  24  26
ENDBRANCH  23  24
ENDBRANCH   1  23
TORSDOF 5
ENDMDL
MODEL 2
REMARK VINA RESULT:      -6.8      2.174      7.515
REMARK  Name = 
REMARK  8 active torsions:
REMARK  status: ('A' for Active; 'I' for Inactive)
REMARK    1  A    between atoms: C_1  and  C_2
REMARK    2  A    between atoms: C_2  and  C_3
REMARK    3  A    between atoms: C_3  and  C_4
REMARK    4  A    between atoms: C_4  and  N_5
REMARK    5  A    between atoms: C_7  and  C_8
REMARK    6  A    between atoms: N_10  and  C_11
REMARK    7  A    between atoms: C_20  and  C_21
REMARK    8  A    between atoms: N_23  and  C_24
REMARK                            x       y       z     vdW  Elec       q    Type
REMARK                         _______ _______ _______ _____ _____    ______ ____
ROOT
ATOM      1  N   UNL     1       2.445   5.040  20.794  0.00  0.00    +0.000 N 
ATOM      2  C   UNL     1       1.647   6.158  21.119  0.00  0.00    +0.000 A 
ATOM      3  C   UNL     1       1.571   7.316  20.420  0.00  0.00    +0.000 A 
ATOM      4  C   UNL     1       2.404   7.451  19.187  0.00  0.00    +0.000 A 
ATOM      5  O   UNL     1       2.375   8.456  18.485  0.00  0.00    +0.000 OA
ATOM      6  C   UNL     1       3.219   6.299  18.886  0.00  0.00    +0.000 A 
ATOM      7  C   UNL     1       4.105   6.043  17.825  0.00  0.00    +0.000 A 
ATOM      8  C   UNL     1       4.455   6.912  16.675  0.00  0.00    +0.000 C 
ATOM      9  N   UNL     1       4.655   4.834  17.935  0.00  0.00    +0.000 NA
ATOM     10  N   UNL     1       4.128   4.313  19.073  0.00  0.00    +0.000 N 
ATOM     11  C   UNL     1       4.609   3.012  19.468  0.00  0.00    +0.000 C 
ATOM     12  C   UNL     1       3.227   5.162  19.671  0.00  0.00    +0.000 A 
ENDROOT
BRANCH   3  13
ATOM     13  C   UNL     1       0.670   8.418  20.890  0.00  0.00    +0.000 C 
ATOM     14  O   UNL     1      -0.342   8.183  21.542  0.00  0.00    +0.000 OA
ATOM     15  N   UNL     1       1.053   9.695  20.539  0.00  0.00    +0.000 N 
ATOM     16  H   UNL     1       1.830   9.802  19.885  0.00  0.00    +0.000 HD
BRANCH  15  17
ATOM     17  C   UNL     1       0.280  10.885  20.876  0.00  0.00    +0.000 C 
ATOM     18  C   UNL     1       1.153  12.149  20.840  0.00  0.00    +0.000 C 
ATOM     19  C   UNL     1       1.550  12.560  19.422  0.00  0.00    +0.000 C 
ATOM     20  C   UNL     1       0.335  12.683  18.507  0.00  0.00    +0.000 C 
ATOM     21  C   UNL     1      -0.524  11.422  18.524  0.00  0.00    +0.000 C 
ATOM     22  C   UNL     1      -0.931  11.034  19.945  0.00  0.00    +0.000 C 
ENDBRANCH  15  17
ENDBRANCH   3  13
BRANCH   1  23
ATOM     23  C   UNL     1       2.320   3.780  21.546  0.00  0.00    +0.000 C 
BRANCH  23  24
ATOM     24  C   UNL     1       1.106   2.967  21.091  0.00  0.00    +0.000 C 
BRANCH  24  26
ATOM     25  C   UNL     1       1.041   2.211  18.683  0.00  0.00    +0.000 C 
ATOM     26  C   UNL     1       0.706   3.330  19.659  0.00  0.00    +0.000 C 
ENDBRANCH  24  26
ENDBRANCH  23  24
ENDBRANCH   1  23
TORSDOF 5
ENDMDL
MODEL 3
REMARK VINA RESULT:      -6.7      2.628      7.587
REMARK  Name = 
REMARK  8 active torsions:
REMARK  status: ('A' for Active; 'I' for Inactive)
REMARK    1  A    between atoms: C_1  and  C_2
REMARK    2  A    between atoms: C_2  and  C_3
REMARK    3  A    between atoms: C_3  and  C_4
REMARK    4  A    between atoms: C_4  and  N_5
REMARK    5  A    between atoms: C_7  and  C_8
REMARK    6  A    between atoms: N_10  and  C_11
REMARK    7  A    between atoms: C_20  and  C_21
REMARK    8  A    between atoms: N_23  and  C_24
REMARK                            x       y       z     vdW  Elec       q    Type
REMARK                         _______ _______ _______ _____ _____    ______ ____
ROOT
ATOM      1  N   UNL     1       2.516   5.927  20.115  0.00  0.00    +0.000 N 
ATOM      2  C   UNL     1       1.767   7.115  20.257  0.00  0.00    +0.000 A 
ATOM      3  C   UNL     1       1.773   8.171  19.410  0.00  0.00    +0.000 A 
ATOM      4  C   UNL     1       2.651   8.100  18.201  0.00  0.00    +0.000 A 
ATOM      5  O   UNL     1       2.696   9.003  17.372  0.00  0.00    +0.000 OA
ATOM      6  C   UNL     1       3.415   6.881  18.087  0.00  0.00    +0.000 A 
ATOM      7  C   UNL     1       4.320   6.444  17.105  0.00  0.00    +0.000 A 
ATOM      8  C   UNL     1       4.750   7.134  15.864  0.00  0.00    +0.000 C 
ATOM      9  N   UNL     1       4.802   5.236  17.395  0.00  0.00    +0.000 NA
ATOM     10  N   UNL     1       4.213   4.898  18.570  0.00  0.00    +0.000 N 
ATOM     11  C   UNL     1       4.613   3.640  19.152  0.00  0.00    +0.000 C 
ATOM     12  C   UNL     1       3.338   5.861  19.016  0.00  0.00    +0.000 A 
ENDROOT
BRANCH   3  13
ATOM     13  C   UNL     1       0.916   9.368  19.694  0.00  0.00    +0.000 C 
ATOM     14  O   UNL     1      -0.144   9.264  20.303  0.00  0.00    +0.000 OA
ATOM     15  N   UNL     1       1.396  10.573  19.227  0.00  0.00    +0.000 N 
ATOM     16  H   UNL     1       2.214  10.561  18.616  0.00  0.00    +0.000 HD
BRANCH  15  17
ATOM     17  C   UNL     1       0.678  11.834  19.378  0.00  0.00    +0.000 C 
ATOM     18  C   UNL     1       1.091  12.562  20.666  0.00  0.00    +0.000 C 
ATOM     19  C   UNL     1       2.505  13.140  20.598  0.00  0.00    +0.000 C 
ATOM     20  C   UNL     1       2.699  14.016  19.364  0.00  0.00    +0.000 C 
ATOM     21  C   UNL     1       2.310  13.289  18.080  0.00  0.00    +0.000 C 
ATOM     22  C   UNL     1       0.888  12.734  18.154  0.00  0.00    +0.000 C 
ENDBRANCH  15  17
ENDBRANCH   3  13
BRANCH   1  23
ATOM     23  C   UNL     1       2.302   4.787  21.021  0.00  0.00    +0.000 C 
BRANCH  23  24
ATOM     24  C   UNL     1       1.023   4.021  20.675  0.00  0.00    +0.000 C 
BRANCH  24  26
ATOM     25  C   UNL     1       1.043   2.587  18.597  0.00  0.00    +0.000 C 
ATOM     26  C   UNL     1       1.347   2.646  20.088  0.00  0.00    +0.000 C 
ENDBRANCH  24  26
ENDBRANCH  23  24
ENDBRANCH   1  23
TORSDOF 5
ENDMDL
MODEL 4
REMARK VINA RESULT:      -6.7      2.447      7.766
REMARK  Name = 
REMARK  8 active torsions:
REMARK  status: ('A' for Active; 'I' for Inactive)
REMARK    1  A    between atoms: C_1  and  C_2
REMARK    2  A    between atoms: C_2  and  C_3
REMARK    3  A    between atoms: C_3  and  C_4
REMARK    4  A    between atoms: C_4  and  N_5
REMARK    5  A    between atoms: C_7  and  C_8
REMARK    6  A    between atoms: N_10  and  C_11
REMARK    7  A    between atoms: C_20  and  C_21
REMARK    8  A    between atoms: N_23  and  C_24
REMARK                            x       y       z     vdW  Elec       q    Type
REMARK                         _______ _______ _______ _____ _____    ______ ____
ROOT
ATOM      1  N   UNL     1       3.977   6.431  17.595  0.00  0.00    +0.000 N 
ATOM      2  C   UNL     1       3.274   7.293  18.464  0.00  0.00    +0.000 A 
ATOM      3  C   UNL     1       2.406   6.916  19.434  0.00  0.00    +0.000 A 
ATOM      4  C   UNL     1       2.147   5.456  19.620  0.00  0.00    +0.000 A 
ATOM      5  O   UNL     1       1.395   5.031  20.491  0.00  0.00    +0.000 OA
ATOM      6  C   UNL     1       2.868   4.599  18.710  0.00  0.00    +0.000 A 
ATOM      7  C   UNL     1       2.901   3.200  18.585  0.00  0.00    +0.000 A 
ATOM      8  C   UNL     1       2.185   2.177  19.387  0.00  0.00    +0.000 C 
ATOM      9  N   UNL     1       3.714   2.821  17.599  0.00  0.00    +0.000 NA
ATOM     10  N   UNL     1       4.200   3.979  17.083  0.00  0.00    +0.000 N 
ATOM     11  C   UNL     1       5.073   3.858  15.942  0.00  0.00    +0.000 C 
ATOM     12  C   UNL     1       3.731   5.088  17.748  0.00  0.00    +0.000 A 
ENDROOT
BRANCH   3  13
ATOM     13  C   UNL     1       1.736   7.952  20.285  0.00  0.00    +0.000 C 
ATOM     14  O   UNL     1       1.773   7.895  21.510  0.00  0.00    +0.000 OA
ATOM     15  N   UNL     1       1.084   8.958  19.604  0.00  0.00    +0.000 N 
ATOM     16  H   UNL     1       0.984   8.866  18.592  0.00  0.00    +0.000 HD
BRANCH  15  17
ATOM     17  C   UNL     1       0.346  10.028  20.266  0.00  0.00    +0.000 C 
ATOM     18  C   UNL     1       1.152  11.336  20.283  0.00  0.00    +0.000 C 
ATOM     19  C   UNL     1       1.260  11.988  18.905  0.00  0.00    +0.000 C 
ATOM     20  C   UNL     1      -0.108  12.173  18.257  0.00  0.00    +0.000 C 
ATOM     21  C   UNL     1      -0.904  10.871  18.219  0.00  0.00    +0.000 C 
ATOM     22  C   UNL     1      -1.022  10.241  19.607  0.00  0.00    +0.000 C 
ENDBRANCH  15  17
ENDBRANCH   3  13
BRANCH   1  23
ATOM     23  C   UNL     1       5.011   6.955  16.688  0.00  0.00    +0.000 C 
BRANCH  23  24
ATOM     24  C   UNL     1       6.269   7.381  17.449  0.00  0.00    +0.000 C 
BRANCH  24  26
ATOM     25  C   UNL     1       7.641   5.818  18.879  0.00  0.00    +0.000 C 
ATOM     26  C   UNL     1       7.311   6.261  17.461  0.00  0.00    +0.000 C 
ENDBRANCH  24  26
ENDBRANCH  23  24
ENDBRANCH   1  23
TORSDOF 5
ENDMDL
MODEL 5
REMARK VINA RESULT:      -6.7      2.521      7.630
REMARK  Name = 
REMARK  8 active torsions:
REMARK  status: ('A' for Active; 'I' for Inactive)
REMARK    1  A    between atoms: C_1  and  C_2
REMARK    2  A    between atoms: C_2  and  C_3
REMARK    3  A    between atoms: C_3  and  C_4
REMARK    4  A    between atoms: C_4  and  N_5
REMARK    5  A    between atoms: C_7  and  C_8
REMARK    6  A    between atoms: N_10  and  C_11
REMARK    7  A    between atoms: C_20  and  C_21
REMARK    8  A    between atoms: N_23  and  C_24
REMARK                            x       y       z     vdW  Elec       q    Type
REMARK                         _______ _______ _______ _____ _____    ______ ____
ROOT
ATOM      1  N   UNL     1       2.835   5.345  19.955  0.00  0.00    +0.000 N 
ATOM      2  C   UNL     1       2.314   6.577  19.504  0.00  0.00    +0.000 A 
ATOM      3  C   UNL     1       2.779   7.309  18.464  0.00  0.00    +0.000 A 
ATOM      4  C   UNL     1       3.957   6.788  17.706  0.00  0.00    +0.000 A 
ATOM      5  O   UNL     1       4.423   7.378  16.736  0.00  0.00    +0.000 OA
ATOM      6  C   UNL     1       4.477   5.535  18.196  0.00  0.00    +0.000 A 
ATOM      7  C   UNL     1       5.543   4.737  17.748  0.00  0.00    +0.000 A 
ATOM      8  C   UNL     1       6.457   4.963  16.601  0.00  0.00    +0.000 C 
ATOM      9  N   UNL     1       5.679   3.644  18.499  0.00  0.00    +0.000 NA
ATOM     10  N   UNL     1       4.703   3.743  19.438  0.00  0.00    +0.000 N 
ATOM     11  C   UNL     1       4.662   2.703  20.436  0.00  0.00    +0.000 C 
ATOM     12  C   UNL     1       3.929   4.868  19.274  0.00  0.00    +0.000 A 
ENDROOT
BRANCH   3  13
ATOM     13  C   UNL     1       2.114   8.603  18.099  0.00  0.00    +0.000 C 
ATOM     14  O   UNL     1       2.341   9.159  17.030  0.00  0.00    +0.000 OA
ATOM     15  N   UNL     1       1.244   9.115  19.039  0.00  0.00    +0.000 N 
ATOM     16  H   UNL     1       1.208   8.667  19.956  0.00  0.00    +0.000 HD
BRANCH  15  17
ATOM     17  C   UNL     1       0.539  10.381  18.872  0.00  0.00    +0.000 C 
ATOM     18  C   UNL     1      -0.877  10.314  19.464  0.00  0.00    +0.000 C 
ATOM     19  C   UNL     1      -0.884  10.279  20.992  0.00  0.00    +0.000 C 
ATOM     20  C   UNL     1      -0.073  11.425  21.589  0.00  0.00    +0.000 C 
ATOM     21  C   UNL     1       1.341  11.481  21.019  0.00  0.00    +0.000 C 
ATOM     22  C   UNL     1       1.333  11.537  19.491  0.00  0.00    +0.000 C 
ENDBRANCH  15  17
ENDBRANCH   3  13
BRANCH   1  23
ATOM     23  C   UNL     1       2.143   4.570  20.997  0.00  0.00    +0.000 C 
BRANCH  23  24
ATOM     24  C   UNL     1       0.839   3.959  20.478  0.00  0.00    +0.000 C 
BRANCH  24  26
ATOM     25  C   UNL     1       1.211   2.425  18.508  0.00  0.00    +0.000 C 
ATOM     26  C   UNL     1       1.054   2.515  20.019  0.00  0.00    +0.000 C 
ENDBRANCH  24  26
ENDBRANCH  23  24
ENDBRANCH   1  23
TORSDOF 5
ENDMDL
MODEL 6
REMARK VINA RESULT:      -6.4      2.610      7.646
REMARK  Name = 
REMARK  8 active torsions:
REMARK  status: ('A' for Active; 'I' for Inactive)
REMARK    1  A    between atoms: C_1  and  C_2
REMARK    2  A    between atoms: C_2  and  C_3
REMARK    3  A    between atoms: C_3  and  C_4
REMARK    4  A    between atoms: C_4  and  N_5
REMARK    5  A    between atoms: C_7  and  C_8
REMARK    6  A    between atoms: N_10  and  C_11
REMARK    7  A    between atoms: C_20  and  C_21
REMARK    8  A    between atoms: N_23  and  C_24
REMARK                            x       y       z     vdW  Elec       q    Type
REMARK                         _______ _______ _______ _____ _____    ______ ____
ROOT
ATOM      1  N   UNL     1       3.839   4.493  17.422  0.00  0.00    +0.000 N 
ATOM      2  C   UNL     1       3.525   5.869  17.432  0.00  0.00    +0.000 A 
ATOM      3  C   UNL     1       2.800   6.517  18.374  0.00  0.00    +0.000 A 
ATOM      4  C   UNL     1       2.267   5.723  19.523  0.00  0.00    +0.000 A 
ATOM      5  O   UNL     1       1.622   6.238  20.431  0.00  0.00    +0.000 OA
ATOM      6  C   UNL     1       2.592   4.318  19.481  0.00  0.00    +0.000 A 
ATOM      7  C   UNL     1       2.291   3.271  20.369  0.00  0.00    +0.000 A 
ATOM      8  C   UNL     1       1.537   3.323  21.646  0.00  0.00    +0.000 C 
ATOM      9  N   UNL     1       2.795   2.114  19.942  0.00  0.00    +0.000 NA
ATOM     10  N   UNL     1       3.414   2.415  18.772  0.00  0.00    +0.000 N 
ATOM     11  C   UNL     1       4.002   1.311  18.053  0.00  0.00    +0.000 C 
ATOM     12  C   UNL     1       3.338   3.753  18.466  0.00  0.00    +0.000 A 
ENDROOT
BRANCH   3  13
ATOM     13  C   UNL     1       2.552   7.991  18.250  0.00  0.00    +0.000 C 
ATOM     14  O   UNL     1       2.972   8.631  17.291  0.00  0.00    +0.000 OA
ATOM     15  N   UNL     1       1.831   8.565  19.275  0.00  0.00    +0.000 N 
ATOM     16  H   UNL     1       1.631   7.998  20.099  0.00  0.00    +0.000 HD
BRANCH  15  17
ATOM     17  C   UNL     1       1.527   9.991  19.340  0.00  0.00    +0.000 C 
ATOM     18  C   UNL     1       0.756  10.456  18.096  0.00  0.00    +0.000 C 
ATOM     19  C   UNL     1      -0.685   9.944  18.061  0.00  0.00    +0.000 C 
ATOM     20  C   UNL     1      -1.434  10.272  19.349  0.00  0.00    +0.000 C 
ATOM     21  C   UNL     1      -0.680   9.792  20.586  0.00  0.00    +0.000 C 
ATOM     22  C   UNL     1       0.751  10.328  20.619  0.00  0.00    +0.000 C 
ENDBRANCH  15  17
ENDBRANCH   3  13
BRANCH   1  23
ATOM     23  C   UNL     1       4.769   3.939  16.424  0.00  0.00    +0.000 C 
BRANCH  23  24
ATOM     24  C   UNL     1       5.762   4.993  15.928  0.00  0.00    +0.000 C 
BRANCH  24  26
ATOM     25  C   UNL     1       5.905   3.820  13.697  0.00  0.00    +0.000 C 
ATOM     26  C   UNL     1       6.690   4.412  14.859  0.00  0.00    +0.000 C 
ENDBRANCH  24  26
ENDBRANCH  23  24
ENDBRANCH   1  23
TORSDOF 5
ENDMDL
MODEL 7
REMARK VINA RESULT:      -6.4      2.419      7.634
REMARK  Name = 
REMARK  8 active torsions:
REMARK  status: ('A' for Active; 'I' for Inactive)
REMARK    1  A    between atoms: C_1  and  C_2
REMARK    2  A    between atoms: C_2  and  C_3
REMARK    3  A    between atoms: C_3  and  C_4
REMARK    4  A    between atoms: C_4  and  N_5
REMARK    5  A    between atoms: C_7  and  C_8
REMARK    6  A    between atoms: N_10  and  C_11
REMARK    7  A    between atoms: C_20  and  C_21
REMARK    8  A    between atoms: N_23  and  C_24
REMARK                            x       y       z     vdW  Elec       q    Type
REMARK                         _______ _______ _______ _____ _____    ______ ____
ROOT
ATOM      1  N   UNL     1       3.822   4.507  17.421  0.00  0.00    +0.000 N 
ATOM      2  C   UNL     1       3.519   5.886  17.429  0.00  0.00    +0.000 A 
ATOM      3  C   UNL     1       2.813   6.545  18.378  0.00  0.00    +0.000 A 
ATOM      4  C   UNL     1       2.289   5.761  19.538  0.00  0.00    +0.000 A 
ATOM      5  O   UNL     1       1.662   6.286  20.452  0.00  0.00    +0.000 OA
ATOM      6  C   UNL     1       2.602   4.353  19.499  0.00  0.00    +0.000 A 
ATOM      7  C   UNL     1       2.304   3.313  20.396  0.00  0.00    +0.000 A 
ATOM      8  C   UNL     1       1.568   3.377  21.683  0.00  0.00    +0.000 C 
ATOM      9  N   UNL     1       2.792   2.149  19.967  0.00  0.00    +0.000 NA
ATOM     10  N   UNL     1       3.398   2.439  18.787  0.00  0.00    +0.000 N 
ATOM     11  C   UNL     1       3.966   1.327  18.066  0.00  0.00    +0.000 C 
ATOM     12  C   UNL     1       3.329   3.777  18.475  0.00  0.00    +0.000 A 
ENDROOT
BRANCH   3  13
ATOM     13  C   UNL     1       2.576   8.020  18.249  0.00  0.00    +0.000 C 
ATOM     14  O   UNL     1       3.030   8.660  17.307  0.00  0.00    +0.000 OA
ATOM     15  N   UNL     1       1.825   8.595  19.253  0.00  0.00    +0.000 N 
ATOM     16  H   UNL     1       1.597   8.027  20.069  0.00  0.00    +0.000 HD
BRANCH  15  17
ATOM     17  C   UNL     1       1.527  10.022  19.312  0.00  0.00    +0.000 C 
ATOM     18  C   UNL     1       0.731  10.479  18.080  0.00  0.00    +0.000 C 
ATOM     19  C   UNL     1      -0.711   9.970  18.079  0.00  0.00    +0.000 C 
ATOM     20  C   UNL     1      -1.433  10.310  19.379  0.00  0.00    +0.000 C 
ATOM     21  C   UNL     1      -0.655   9.839  20.604  0.00  0.00    +0.000 C 
ATOM     22  C   UNL     1       0.778  10.372  20.604  0.00  0.00    +0.000 C 
ENDBRANCH  15  17
ENDBRANCH   3  13
BRANCH   1  23
ATOM     23  C   UNL     1       4.732   3.940  16.413  0.00  0.00    +0.000 C 
BRANCH  23  24
ATOM     24  C   UNL     1       5.731   4.981  15.902  0.00  0.00    +0.000 C 
BRANCH  24  26
ATOM     25  C   UNL     1       7.242   6.449  17.294  0.00  0.00    +0.000 C 
ATOM     26  C   UNL     1       6.973   5.036  16.794  0.00  0.00    +0.000 C 
ENDBRANCH  24  26
ENDBRANCH  23  24
ENDBRANCH   1  23
TORSDOF 5
ENDMDL
MODEL 8
REMARK VINA RESULT:      -6.4      1.973      2.721
REMARK  Name = 
REMARK  8 active torsions:
REMARK  status: ('A' for Active; 'I' for Inactive)
REMARK    1  A    between atoms: C_1  and  C_2
REMARK    2  A    between atoms: C_2  and  C_3
REMARK    3  A    between atoms: C_3  and  C_4
REMARK    4  A    between atoms: C_4  and  N_5
REMARK    5  A    between atoms: C_7  and  C_8
REMARK    6  A    between atoms: N_10  and  C_11
REMARK    7  A    between atoms: C_20  and  C_21
REMARK    8  A    between atoms: N_23  and  C_24
REMARK                            x       y       z     vdW  Elec       q    Type
REMARK                         _______ _______ _______ _____ _____    ______ ____
ROOT
ATOM      1  N   UNL     1       1.016  11.579  19.253  0.00  0.00    +0.000 N 
ATOM      2  C   UNL     1       1.565  10.449  18.609  0.00  0.00    +0.000 A 
ATOM      3  C   UNL     1       1.654   9.200  19.124  0.00  0.00    +0.000 A 
ATOM      4  C   UNL     1       1.131   8.968  20.505  0.00  0.00    +0.000 A 
ATOM      5  O   UNL     1       1.152   7.862  21.035  0.00  0.00    +0.000 OA
ATOM      6  C   UNL     1       0.588  10.143  21.145  0.00  0.00    +0.000 A 
ATOM      7  C   UNL     1       0.000  10.320  22.409  0.00  0.00    +0.000 A 
ATOM      8  C   UNL     1      -0.242   9.314  23.472  0.00  0.00    +0.000 C 
ATOM      9  N   UNL     1      -0.372  11.586  22.596  0.00  0.00    +0.000 NA
ATOM     10  N   UNL     1      -0.016  12.226  21.453  0.00  0.00    +0.000 N 
ATOM     11  C   UNL     1      -0.252  13.649  21.412  0.00  0.00    +0.000 C 
ATOM     12  C   UNL     1       0.549  11.378  20.529  0.00  0.00    +0.000 A 
ENDROOT
BRANCH   3  13
ATOM     13  C   UNL     1       2.262   8.095  18.314  0.00  0.00    +0.000 C 
ATOM     14  O   UNL     1       2.516   8.241  17.123  0.00  0.00    +0.000 OA
ATOM     15  N   UNL     1       2.509   6.921  18.993  0.00  0.00    +0.000 N 
ATOM     16  H   UNL     1       2.150   6.830  19.944  0.00  0.00    +0.000 HD
BRANCH  15  17
ATOM     17  C   UNL     1       3.062   5.729  18.358  0.00  0.00    +0.000 C 
ATOM     18  C   UNL     1       4.009   4.978  19.307  0.00  0.00    +0.000 C 
ATOM     19  C   UNL     1       3.276   4.277  20.451  0.00  0.00    +0.000 C 
ATOM     20  C   UNL     1       2.155   3.378  19.938  0.00  0.00    +0.000 C 
ATOM     21  C   UNL     1       1.201   4.125  19.012  0.00  0.00    +0.000 C 
ATOM     22  C   UNL     1       1.944   4.804  17.862  0.00  0.00    +0.000 C 
ENDBRANCH  15  17
ENDBRANCH   3  13
BRANCH   1  23
ATOM     23  C   UNL     1       0.834  12.847  18.526  0.00  0.00    +0.000 C 
BRANCH  23  24
ATOM     24  C   UNL     1       2.174  13.475  18.139  0.00  0.00    +0.000 C 
BRANCH  24  26
ATOM     25  C   UNL     1       2.283  15.853  18.980  0.00  0.00    +0.000 C 
ATOM     26  C   UNL     1       2.683  14.408  19.241  0.00  0.00    +0.000 C 
ENDBRANCH  24  26
ENDBRANCH  23  24
ENDBRANCH   1  23
TORSDOF 5
ENDMDL
MODEL 9
REMARK VINA RESULT:      -6.4      1.399      2.151
REMARK  Name = 
REMARK  8 active torsions:
REMARK  status: ('A' for Active; 'I' for Inactive)
REMARK    1  A    between atoms: C_1  and  C_2
REMARK    2  A    between atoms: C_2  and  C_3
REMARK    3  A    between atoms: C_3  and  C_4
REMARK    4  A    between atoms: C_4  and  N_5
REMARK    5  A    between atoms: C_7  and  C_8
REMARK    6  A    between atoms: N_10  and  C_11
REMARK    7  A    between atoms: C_20  and  C_21
REMARK    8  A    between atoms: N_23  and  C_24
REMARK                            x       y       z     vdW  Elec       q    Type
REMARK                         _______ _______ _______ _____ _____    ______ ____
ROOT
ATOM      1  N   UNL     1      -0.421  11.329  19.386  0.00  0.00    +0.000 N 
ATOM      2  C   UNL     1       0.391  10.438  18.652  0.00  0.00    +0.000 A 
ATOM      3  C   UNL     1       1.085   9.390  19.155  0.00  0.00    +0.000 A 
ATOM      4  C   UNL     1       1.005   9.131  20.625  0.00  0.00    +0.000 A 
ATOM      5  O   UNL     1       1.583   8.189  21.155  0.00  0.00    +0.000 OA
ATOM      6  C   UNL     1       0.179  10.065  21.352  0.00  0.00    +0.000 A 
ATOM      7  C   UNL     1      -0.150  10.141  22.716  0.00  0.00    +0.000 A 
ATOM      8  C   UNL     1       0.267   9.248  23.826  0.00  0.00    +0.000 C 
ATOM      9  N   UNL     1      -0.956  11.174  22.963  0.00  0.00    +0.000 NA
ATOM     10  N   UNL     1      -1.139  11.768  21.755  0.00  0.00    +0.000 N 
ATOM     11  C   UNL     1      -1.935  12.971  21.745  0.00  0.00    +0.000 C 
ATOM     12  C   UNL     1      -0.486  11.109  20.740  0.00  0.00    +0.000 A 
ENDROOT
BRANCH   3  13
ATOM     13  C   UNL     1       1.904   8.525  18.244  0.00  0.00    +0.000 C 
ATOM     14  O   UNL     1       2.476   8.991  17.264  0.00  0.00    +0.000 OA
ATOM     15  N   UNL     1       1.966   7.190  18.582  0.00  0.00    +0.000 N 
ATOM     16  H   UNL     1       1.359   6.854  19.331  0.00  0.00    +0.000 HD
BRANCH  15  17
ATOM     17  C   UNL     1       2.684   6.196  17.791  0.00  0.00    +0.000 C 
ATOM     18  C   UNL     1       4.136   6.043  18.269  0.00  0.00    +0.000 C 
ATOM     19  C   UNL     1       4.248   5.344  19.624  0.00  0.00    +0.000 C 
ATOM     20  C   UNL     1       3.503   4.012  19.638  0.00  0.00    +0.000 C 
ATOM     21  C   UNL     1       2.054   4.163  19.183  0.00  0.00    +0.000 C 
ATOM     22  C   UNL     1       1.958   4.845  17.818  0.00  0.00    +0.000 C 
ENDBRANCH  15  17
ENDBRANCH   3  13
BRANCH   1  23
ATOM     23  C   UNL     1      -1.250  12.334  18.700  0.00  0.00    +0.000 C 
BRANCH  23  24
ATOM     24  C   UNL     1      -0.398  13.442  18.076  0.00  0.00    +0.000 C 
BRANCH  24  26
ATOM     25  C   UNL     1       1.125  15.296  18.860  0.00  0.00    +0.000 C 
ATOM     26  C   UNL     1      -0.222  14.611  19.047  0.00  0.00    +0.000 C 
ENDBRANCH  24  26
ENDBRANCH  23  24
ENDBRANCH   1  23
TORSDOF 5
ENDMDL
