MODEL 1
REMARK VINA RESULT:      -7.6      0.000      0.000
REMARK  Name = 
REMARK  8 active torsions:
REMARK  status: ('A' for Active; 'I' for Inactive)
REMARK    1  A    between atoms: C_1  and  N_2
REMARK    2  A    between atoms: N_2  and  C_3
REMARK    3  A    between atoms: N_2  and  C_6
REMARK    4  A    between atoms: C_3  and  C_4
REMARK    5  A    between atoms: C_4  and  O_5
REMARK    6  A    between atoms: C_9  and  C_11
REMARK    7  A    between atoms: C_16  and  C_17
REMARK    8  A    between atoms: C_24  and  O_25
REMARK                            x       y       z     vdW  Elec       q    Type
REMARK                         _______ _______ _______ _____ _____    ______ ____
ROOT
ATOM      1  C   UNL     1       6.786   5.278  16.005  0.00  0.00    +0.000 C 
ATOM      2  C   UNL     1       6.658   4.544  17.370  0.00  0.00    +0.000 C 
ATOM      3  N   UNL     1       5.265   4.121  17.480  0.00  0.00    +0.000 N 
ATOM      4  C   UNL     1       4.721   3.858  18.739  0.00  0.00    +0.000 C 
ATOM      5  O   UNL     1       5.388   4.052  19.754  0.00  0.00    +0.000 OA
ATOM      6  C   UNL     1       4.623   4.209  16.170  0.00  0.00    +0.000 C 
ATOM      7  C   UNL     1       5.770   4.436  15.180  0.00  0.00    +0.000 C 
ENDROOT
BRANCH   4   8
ATOM      8  C   UNL     1       3.326   3.314  18.885  0.00  0.00    +0.000 A 
ATOM      9  C   UNL     1       3.139   1.931  18.688  0.00  0.00    +0.000 A 
ATOM     10  C   UNL     1       1.889   1.329  18.814  0.00  0.00    +0.000 A 
ATOM     11  C   UNL     1       0.782   2.110  19.088  0.00  0.00    +0.000 A 
ATOM     12  C   UNL     1       0.931   3.493  19.219  0.00  0.00    +0.000 A 
ATOM     13  C   UNL     1       2.188   4.145  19.104  0.00  0.00    +0.000 A 
BRANCH  13  14
ATOM     14  C   UNL     1       2.192   5.640  19.166  0.00  0.00    +0.000 A 
ATOM     15  C   UNL     1       2.481   6.450  18.061  0.00  0.00    +0.000 A 
ATOM     16  C   UNL     1       2.369   7.847  18.123  0.00  0.00    +0.000 A 
ATOM     17  C   UNL     1       2.035   8.471  19.319  0.00  0.00    +0.000 A 
ATOM     18  C   UNL     1       1.812   7.701  20.456  0.00  0.00    +0.000 A 
ATOM     19  C   UNL     1       1.881   6.306  20.374  0.00  0.00    +0.000 A 
ENDBRANCH  13  14
ENDBRANCH   4   8
BRANCH   1  21
ATOM     20  C   UNL     1       5.094   7.006  15.532  0.00  0.00    +0.000 C 
ATOM     21  N   UNL     1       6.433   6.726  16.063  0.00  0.00    +0.000 NA
BRANCH  21  22
ATOM     22  C   UNL     1       6.566   7.320  17.411  0.00  0.00    +0.000 C 
BRANCH  22  23
ATOM     23  C   UNL     1       7.870   8.073  17.728  0.00  0.00    +0.000 C 
BRANCH  23  24
ATOM     24  O   UNL     1       8.512   7.493  18.861  0.00  0.00    +0.000 OA
ATOM     25  H   UNL     1       7.839   6.987  19.347  0.00  0.00    +0.000 HD
ENDBRANCH  23  24
ENDBRANCH  22  23
ENDBRANCH  21  22
ENDBRANCH   1  21
BRANCH   7  26
ATOM     26  O   UNL     1       6.366   3.200  14.757  0.00  0.00    +0.000 OA
ATOM     27  H   UNL     1       5.872   2.887  13.978  0.00  0.00    +0.000 HD
ENDBRANCH   7  26
TORSDOF 7
ENDMDL
MODEL 2
REMARK VINA RESULT:      -6.9      3.700      5.932
REMARK  Name = 
REMARK  8 active torsions:
REMARK  status: ('A' for Active; 'I' for Inactive)
REMARK    1  A    between atoms: C_1  and  N_2
REMARK    2  A    between atoms: N_2  and  C_3
REMARK    3  A    between atoms: N_2  and  C_6
REMARK    4  A    between atoms: C_3  and  C_4
REMARK    5  A    between atoms: C_4  and  O_5
REMARK    6  A    between atoms: C_9  and  C_11
REMARK    7  A    between atoms: C_16  and  C_17
REMARK    8  A    between atoms: C_24  and  O_25
REMARK                            x       y       z     vdW  Elec       q    Type
REMARK                         _______ _______ _______ _____ _____    ______ ____
ROOT
ATOM      1  C   UNL     1       1.221   9.691  19.223  0.00  0.00    +0.000 C 
ATOM      2  C   UNL     1       2.032   8.633  20.024  0.00  0.00    +0.000 C 
ATOM      3  N   UNL     1       2.013   7.411  19.226  0.00  0.00    +0.000 N 
ATOM      4  C   UNL     1       2.237   6.179  19.844  0.00  0.00    +0.000 C 
ATOM      5  O   UNL     1       2.378   6.116  21.064  0.00  0.00    +0.000 OA
ATOM      6  C   UNL     1       1.580   7.723  17.865  0.00  0.00    +0.000 C 
ATOM      7  C   UNL     1       1.607   9.252  17.780  0.00  0.00    +0.000 C 
ENDROOT
BRANCH   4   8
ATOM      8  C   UNL     1       2.337   4.912  19.039  0.00  0.00    +0.000 A 
ATOM      9  C   UNL     1       1.265   3.999  19.119  0.00  0.00    +0.000 A 
ATOM     10  C   UNL     1       1.257   2.805  18.402  0.00  0.00    +0.000 A 
ATOM     11  C   UNL     1       2.350   2.469  17.625  0.00  0.00    +0.000 A 
ATOM     12  C   UNL     1       3.453   3.325  17.584  0.00  0.00    +0.000 A 
ATOM     13  C   UNL     1       3.500   4.554  18.295  0.00  0.00    +0.000 A 
BRANCH  13  14
ATOM     14  C   UNL     1       4.781   5.327  18.244  0.00  0.00    +0.000 A 
ATOM     15  C   UNL     1       5.851   5.091  19.116  0.00  0.00    +0.000 A 
ATOM     16  C   UNL     1       7.078   5.756  18.972  0.00  0.00    +0.000 A 
ATOM     17  C   UNL     1       7.237   6.729  17.993  0.00  0.00    +0.000 A 
ATOM     18  C   UNL     1       6.170   7.041  17.156  0.00  0.00    +0.000 A 
ATOM     19  C   UNL     1       4.965   6.341  17.277  0.00  0.00    +0.000 A 
ENDBRANCH  13  14
ENDBRANCH   4   8
BRANCH   1  21
ATOM     20  C   UNL     1      -0.615  10.168  20.796  0.00  0.00    +0.000 C 
ATOM     21  N   UNL     1      -0.248   9.643  19.475  0.00  0.00    +0.000 NA
BRANCH  21  22
ATOM     22  C   UNL     1      -1.055  10.316  18.434  0.00  0.00    +0.000 C 
BRANCH  22  23
ATOM     23  C   UNL     1      -1.317  11.823  18.603  0.00  0.00    +0.000 C 
BRANCH  23  24
ATOM     24  O   UNL     1      -1.344  12.465  17.331  0.00  0.00    +0.000 OA
ATOM     25  H   UNL     1      -1.220  13.417  17.485  0.00  0.00    +0.000 HD
ENDBRANCH  23  24
ENDBRANCH  22  23
ENDBRANCH  21  22
ENDBRANCH   1  21
BRANCH   7  26
ATOM     26  O   UNL     1       2.909   9.747  17.434  0.00  0.00    +0.000 OA
ATOM     27  H   UNL     1       3.289   9.139  16.775  0.00  0.00    +0.000 HD
ENDBRANCH   7  26
TORSDOF 7
ENDMDL
MODEL 3
REMARK VINA RESULT:      -6.7      3.593      5.806
REMARK  Name = 
REMARK  8 active torsions:
REMARK  status: ('A' for Active; 'I' for Inactive)
REMARK    1  A    between atoms: C_1  and  N_2
REMARK    2  A    between atoms: N_2  and  C_3
REMARK    3  A    between atoms: N_2  and  C_6
REMARK    4  A    between atoms: C_3  and  C_4
REMARK    5  A    between atoms: C_4  and  O_5
REMARK    6  A    between atoms: C_9  and  C_11
REMARK    7  A    between atoms: C_16  and  C_17
REMARK    8  A    between atoms: C_24  and  O_25
REMARK                            x       y       z     vdW  Elec       q    Type
REMARK                         _______ _______ _______ _____ _____    ______ ____
ROOT
ATOM      1  C   UNL     1       1.287   9.517  19.307  0.00  0.00    +0.000 C 
ATOM      2  C   UNL     1       2.096   8.443  20.087  0.00  0.00    +0.000 C 
ATOM      3  N   UNL     1       2.037   7.223  19.287  0.00  0.00    +0.000 N 
ATOM      4  C   UNL     1       2.254   5.986  19.897  0.00  0.00    +0.000 C 
ATOM      5  O   UNL     1       2.421   5.916  21.113  0.00  0.00    +0.000 OA
ATOM      6  C   UNL     1       1.580   7.547  17.937  0.00  0.00    +0.000 C 
ATOM      7  C   UNL     1       1.632   9.076  17.855  0.00  0.00    +0.000 C 
ENDROOT
BRANCH   4   8
ATOM      8  C   UNL     1       2.312   4.719  19.087  0.00  0.00    +0.000 A 
ATOM      9  C   UNL     1       1.258   3.796  19.236  0.00  0.00    +0.000 A 
ATOM     10  C   UNL     1       1.214   2.602  18.521  0.00  0.00    +0.000 A 
ATOM     11  C   UNL     1       2.257   2.277  17.674  0.00  0.00    +0.000 A 
ATOM     12  C   UNL     1       3.346   3.143  17.561  0.00  0.00    +0.000 A 
ATOM     13  C   UNL     1       3.428   4.373  18.268  0.00  0.00    +0.000 A 
BRANCH  13  14
ATOM     14  C   UNL     1       4.695   5.159  18.133  0.00  0.00    +0.000 A 
ATOM     15  C   UNL     1       4.884   6.138  17.150  0.00  0.00    +0.000 A 
ATOM     16  C   UNL     1       6.040   6.934  17.118  0.00  0.00    +0.000 A 
ATOM     17  C   UNL     1       7.066   6.716  18.029  0.00  0.00    +0.000 A 
ATOM     18  C   UNL     1       6.942   5.702  18.974  0.00  0.00    +0.000 A 
ATOM     19  C   UNL     1       5.768   4.943  19.027  0.00  0.00    +0.000 A 
ENDBRANCH  13  14
ENDBRANCH   4   8
BRANCH   1  21
ATOM     20  C   UNL     1      -0.476   9.258  21.010  0.00  0.00    +0.000 C 
ATOM     21  N   UNL     1      -0.176   9.495  19.592  0.00  0.00    +0.000 NA
BRANCH  21  22
ATOM     22  C   UNL     1      -0.894  10.703  19.130  0.00  0.00    +0.000 C 
BRANCH  22  23
ATOM     23  C   UNL     1      -1.689  10.597  17.817  0.00  0.00    +0.000 C 
BRANCH  23  24
ATOM     24  O   UNL     1      -1.675  11.844  17.128  0.00  0.00    +0.000 OA
ATOM     25  H   UNL     1      -2.283  11.765  16.373  0.00  0.00    +0.000 HD
ENDBRANCH  23  24
ENDBRANCH  22  23
ENDBRANCH  21  22
ENDBRANCH   1  21
BRANCH   7  26
ATOM     26  O   UNL     1       2.935   9.549  17.481  0.00  0.00    +0.000 OA
ATOM     27  H   UNL     1       2.905  10.522  17.480  0.00  0.00    +0.000 HD
ENDBRANCH   7  26
TORSDOF 7
ENDMDL
MODEL 4
REMARK VINA RESULT:      -6.7      2.501      5.927
REMARK  Name = 
REMARK  8 active torsions:
REMARK  status: ('A' for Active; 'I' for Inactive)
REMARK    1  A    between atoms: C_1  and  N_2
REMARK    2  A    between atoms: N_2  and  C_3
REMARK    3  A    between atoms: N_2  and  C_6
REMARK    4  A    between atoms: C_3  and  C_4
REMARK    5  A    between atoms: C_4  and  O_5
REMARK    6  A    between atoms: C_9  and  C_11
REMARK    7  A    between atoms: C_16  and  C_17
REMARK    8  A    between atoms: C_24  and  O_25
REMARK                            x       y       z     vdW  Elec       q    Type
REMARK                         _______ _______ _______ _____ _____    ______ ____
ROOT
ATOM      1  C   UNL     1       2.253   3.373  19.316  0.00  0.00    +0.000 C 
ATOM      2  C   UNL     1       2.380   4.574  18.337  0.00  0.00    +0.000 C 
ATOM      3  N   UNL     1       3.466   4.243  17.420  0.00  0.00    +0.000 N 
ATOM      4  C   UNL     1       4.129   5.264  16.736  0.00  0.00    +0.000 C 
ATOM      5  O   UNL     1       3.849   6.441  16.959  0.00  0.00    +0.000 OA
ATOM      6  C   UNL     1       3.771   2.816  17.519  0.00  0.00    +0.000 C 
ATOM      7  C   UNL     1       2.622   2.221  18.338  0.00  0.00    +0.000 C 
ENDROOT
BRANCH   4   8
ATOM      8  C   UNL     1       5.176   4.955  15.701  0.00  0.00    +0.000 A 
ATOM      9  C   UNL     1       4.790   4.180  14.589  0.00  0.00    +0.000 A 
ATOM     10  C   UNL     1       5.682   3.852  13.571  0.00  0.00    +0.000 A 
ATOM     11  C   UNL     1       7.002   4.249  13.668  0.00  0.00    +0.000 A 
ATOM     12  C   UNL     1       7.425   4.959  14.794  0.00  0.00    +0.000 A 
ATOM     13  C   UNL     1       6.547   5.319  15.851  0.00  0.00    +0.000 A 
BRANCH  13  14
ATOM     14  C   UNL     1       7.150   5.992  17.044  0.00  0.00    +0.000 A 
ATOM     15  C   UNL     1       7.464   5.311  18.227  0.00  0.00    +0.000 A 
ATOM     16  C   UNL     1       8.130   5.947  19.287  0.00  0.00    +0.000 A 
ATOM     17  C   UNL     1       8.431   7.302  19.214  0.00  0.00    +0.000 A 
ATOM     18  C   UNL     1       8.068   8.025  18.082  0.00  0.00    +0.000 A 
ATOM     19  C   UNL     1       7.446   7.374  17.012  0.00  0.00    +0.000 A 
ENDBRANCH  13  14
ENDBRANCH   4   8
BRANCH   1  21
ATOM     20  C   UNL     1       2.600   4.241  21.597  0.00  0.00    +0.000 C 
ATOM     21  N   UNL     1       3.165   3.456  20.493  0.00  0.00    +0.000 NA
BRANCH  21  22
ATOM     22  C   UNL     1       3.609   2.138  20.999  0.00  0.00    +0.000 C 
BRANCH  22  23
ATOM     23  C   UNL     1       5.046   1.699  20.669  0.00  0.00    +0.000 C 
BRANCH  23  24
ATOM     24  O   UNL     1       5.650   1.088  21.806  0.00  0.00    +0.000 OA
ATOM     25  H   UNL     1       6.613   1.142  21.686  0.00  0.00    +0.000 HD
ENDBRANCH  23  24
ENDBRANCH  22  23
ENDBRANCH  21  22
ENDBRANCH   1  21
BRANCH   7  26
ATOM     26  O   UNL     1       1.497   1.879  17.515  0.00  0.00    +0.000 OA
ATOM     27  H   UNL     1       1.282   2.660  16.973  0.00  0.00    +0.000 HD
ENDBRANCH   7  26
TORSDOF 7
ENDMDL
MODEL 5
REMARK VINA RESULT:      -6.3      3.560      5.931
REMARK  Name = 
REMARK  8 active torsions:
REMARK  status: ('A' for Active; 'I' for Inactive)
REMARK    1  A    between atoms: C_1  and  N_2
REMARK    2  A    between atoms: N_2  and  C_3
REMARK    3  A    between atoms: N_2  and  C_6
REMARK    4  A    between atoms: C_3  and  C_4
REMARK    5  A    between atoms: C_4  and  O_5
REMARK    6  A    between atoms: C_9  and  C_11
REMARK    7  A    between atoms: C_16  and  C_17
REMARK    8  A    between atoms: C_24  and  O_25
REMARK                            x       y       z     vdW  Elec       q    Type
REMARK                         _______ _______ _______ _____ _____    ______ ____
ROOT
ATOM      1  C   UNL     1       1.219   9.631  19.582  0.00  0.00    +0.000 C 
ATOM      2  C   UNL     1       2.109   8.550  20.259  0.00  0.00    +0.000 C 
ATOM      3  N   UNL     1       2.036   7.367  19.407  0.00  0.00    +0.000 N 
ATOM      4  C   UNL     1       2.329   6.111  19.944  0.00  0.00    +0.000 C 
ATOM      5  O   UNL     1       2.575   5.993  21.143  0.00  0.00    +0.000 OA
ATOM      6  C   UNL     1       1.483   7.735  18.105  0.00  0.00    +0.000 C 
ATOM      7  C   UNL     1       1.483   9.267  18.092  0.00  0.00    +0.000 C 
ENDROOT
BRANCH   4   8
ATOM      8  C   UNL     1       2.373   4.885  19.073  0.00  0.00    +0.000 A 
ATOM      9  C   UNL     1       1.293   3.984  19.154  0.00  0.00    +0.000 A 
ATOM     10  C   UNL     1       1.235   2.828  18.380  0.00  0.00    +0.000 A 
ATOM     11  C   UNL     1       2.288   2.517  17.540  0.00  0.00    +0.000 A 
ATOM     12  C   UNL     1       3.401   3.359  17.493  0.00  0.00    +0.000 A 
ATOM     13  C   UNL     1       3.497   4.550  18.261  0.00  0.00    +0.000 A 
BRANCH  13  14
ATOM     14  C   UNL     1       4.786   5.308  18.192  0.00  0.00    +0.000 A 
ATOM     15  C   UNL     1       5.864   5.063  19.053  0.00  0.00    +0.000 A 
ATOM     16  C   UNL     1       7.097   5.714  18.892  0.00  0.00    +0.000 A 
ATOM     17  C   UNL     1       7.255   6.681  17.907  0.00  0.00    +0.000 A 
ATOM     18  C   UNL     1       6.183   7.002  17.080  0.00  0.00    +0.000 A 
ATOM     19  C   UNL     1       4.971   6.316  17.218  0.00  0.00    +0.000 A 
ENDBRANCH  13  14
ENDBRANCH   4   8
BRANCH   1  21
ATOM     20  C   UNL     1      -0.446   8.776  21.186  0.00  0.00    +0.000 C 
ATOM     21  N   UNL     1      -0.222   9.548  19.957  0.00  0.00    +0.000 NA
BRANCH  21  22
ATOM     22  C   UNL     1      -0.888  10.864  20.071  0.00  0.00    +0.000 C 
BRANCH  22  23
ATOM     23  C   UNL     1      -1.083  11.439  21.485  0.00  0.00    +0.000 C 
BRANCH  23  24
ATOM     24  O   UNL     1       0.064  12.188  21.877  0.00  0.00    +0.000 OA
ATOM     25  H   UNL     1       0.458  11.734  22.641  0.00  0.00    +0.000 HD
ENDBRANCH  23  24
ENDBRANCH  22  23
ENDBRANCH  21  22
ENDBRANCH   1  21
BRANCH   7  26
ATOM     26  O   UNL     1       2.744   9.800  17.660  0.00  0.00    +0.000 OA
ATOM     27  H   UNL     1       2.566  10.423  16.933  0.00  0.00    +0.000 HD
ENDBRANCH   7  26
TORSDOF 7
ENDMDL
MODEL 6
REMARK VINA RESULT:      -6.2      1.966      5.901
REMARK  Name = 
REMARK  8 active torsions:
REMARK  status: ('A' for Active; 'I' for Inactive)
REMARK    1  A    between atoms: C_1  and  N_2
REMARK    2  A    between atoms: N_2  and  C_3
REMARK    3  A    between atoms: N_2  and  C_6
REMARK    4  A    between atoms: C_3  and  C_4
REMARK    5  A    between atoms: C_4  and  O_5
REMARK    6  A    between atoms: C_9  and  C_11
REMARK    7  A    between atoms: C_16  and  C_17
REMARK    8  A    between atoms: C_24  and  O_25
REMARK                            x       y       z     vdW  Elec       q    Type
REMARK                         _______ _______ _______ _____ _____    ______ ____
ROOT
ATOM      1  C   UNL     1       2.173   5.030  19.981  0.00  0.00    +0.000 C 
ATOM      2  C   UNL     1       3.724   4.911  19.977  0.00  0.00    +0.000 C 
ATOM      3  N   UNL     1       4.137   4.983  18.579  0.00  0.00    +0.000 N 
ATOM      4  C   UNL     1       5.373   4.458  18.196  0.00  0.00    +0.000 C 
ATOM      5  O   UNL     1       6.078   3.873  19.017  0.00  0.00    +0.000 OA
ATOM      6  C   UNL     1       3.032   5.491  17.768  0.00  0.00    +0.000 C 
ATOM      7  C   UNL     1       2.000   6.003  18.778  0.00  0.00    +0.000 C 
ENDROOT
BRANCH   4   8
ATOM      8  C   UNL     1       5.882   4.613  16.789  0.00  0.00    +0.000 A 
ATOM      9  C   UNL     1       5.544   3.613  15.855  0.00  0.00    +0.000 A 
ATOM     10  C   UNL     1       5.955   3.673  14.526  0.00  0.00    +0.000 A 
ATOM     11  C   UNL     1       6.763   4.714  14.110  0.00  0.00    +0.000 A 
ATOM     12  C   UNL     1       7.169   5.681  15.032  0.00  0.00    +0.000 A 
ATOM     13  C   UNL     1       6.767   5.660  16.394  0.00  0.00    +0.000 A 
BRANCH  13  14
ATOM     14  C   UNL     1       7.354   6.700  17.298  0.00  0.00    +0.000 A 
ATOM     15  C   UNL     1       7.986   6.390  18.509  0.00  0.00    +0.000 A 
ATOM     16  C   UNL     1       8.623   7.376  19.279  0.00  0.00    +0.000 A 
ATOM     17  C   UNL     1       8.576   8.709  18.889  0.00  0.00    +0.000 A 
ATOM     18  C   UNL     1       7.893   9.061  17.729  0.00  0.00    +0.000 A 
ATOM     19  C   UNL     1       7.301   8.067  16.943  0.00  0.00    +0.000 A 
ENDBRANCH  13  14
ENDBRANCH   4   8
BRANCH   1  21
ATOM     20  C   UNL     1       0.836   3.618  18.467  0.00  0.00    +0.000 C 
ATOM     21  N   UNL     1       1.468   3.731  19.787  0.00  0.00    +0.000 NA
BRANCH  21  22
ATOM     22  C   UNL     1       2.319   2.546  20.031  0.00  0.00    +0.000 C 
BRANCH  22  23
ATOM     23  C   UNL     1       2.704   1.687  18.813  0.00  0.00    +0.000 C 
BRANCH  23  24
ATOM     24  O   UNL     1       4.112   1.474  18.786  0.00  0.00    +0.000 OA
ATOM     25  H   UNL     1       4.401   1.567  17.862  0.00  0.00    +0.000 HD
ENDBRANCH  23  24
ENDBRANCH  22  23
ENDBRANCH  21  22
ENDBRANCH   1  21
BRANCH   7  26
ATOM     26  O   UNL     1       2.269   7.354  19.181  0.00  0.00    +0.000 OA
ATOM     27  H   UNL     1       2.710   7.801  18.435  0.00  0.00    +0.000 HD
ENDBRANCH   7  26
TORSDOF 7
ENDMDL
MODEL 7
REMARK VINA RESULT:      -6.1      4.239      6.889
REMARK  Name = 
REMARK  8 active torsions:
REMARK  status: ('A' for Active; 'I' for Inactive)
REMARK    1  A    between atoms: C_1  and  N_2
REMARK    2  A    between atoms: N_2  and  C_3
REMARK    3  A    between atoms: N_2  and  C_6
REMARK    4  A    between atoms: C_3  and  C_4
REMARK    5  A    between atoms: C_4  and  O_5
REMARK    6  A    between atoms: C_9  and  C_11
REMARK    7  A    between atoms: C_16  and  C_17
REMARK    8  A    between atoms: C_24  and  O_25
REMARK                            x       y       z     vdW  Elec       q    Type
REMARK                         _______ _______ _______ _____ _____    ______ ____
ROOT
ATOM      1  C   UNL     1       0.163  10.668  19.314  0.00  0.00    +0.000 C 
ATOM      2  C   UNL     1       0.949   9.588  20.110  0.00  0.00    +0.000 C 
ATOM      3  N   UNL     1       1.726   8.839  19.127  0.00  0.00    +0.000 N 
ATOM      4  C   UNL     1       2.163   7.548  19.432  0.00  0.00    +0.000 C 
ATOM      5  O   UNL     1       1.835   7.017  20.492  0.00  0.00    +0.000 OA
ATOM      6  C   UNL     1       1.767   9.581  17.868  0.00  0.00    +0.000 C 
ATOM      7  C   UNL     1       1.214  10.969  18.207  0.00  0.00    +0.000 C 
ENDROOT
BRANCH   4   8
ATOM      8  C   UNL     1       3.059   6.789  18.492  0.00  0.00    +0.000 A 
ATOM      9  C   UNL     1       3.701   7.515  17.468  0.00  0.00    +0.000 A 
ATOM     10  C   UNL     1       4.560   6.905  16.557  0.00  0.00    +0.000 A 
ATOM     11  C   UNL     1       4.756   5.539  16.615  0.00  0.00    +0.000 A 
ATOM     12  C   UNL     1       4.078   4.787  17.577  0.00  0.00    +0.000 A 
ATOM     13  C   UNL     1       3.199   5.370  18.529  0.00  0.00    +0.000 A 
BRANCH  13  14
ATOM     14  C   UNL     1       2.459   4.439  19.439  0.00  0.00    +0.000 A 
ATOM     15  C   UNL     1       1.269   3.798  19.073  0.00  0.00    +0.000 A 
ATOM     16  C   UNL     1       0.660   2.847  19.906  0.00  0.00    +0.000 A 
ATOM     17  C   UNL     1       1.191   2.571  21.160  0.00  0.00    +0.000 A 
ATOM     18  C   UNL     1       2.332   3.244  21.585  0.00  0.00    +0.000 A 
ATOM     19  C   UNL     1       2.959   4.156  20.731  0.00  0.00    +0.000 A 
ENDBRANCH  13  14
ENDBRANCH   4   8
BRANCH   1  21
ATOM     20  C   UNL     1      -2.282  10.972  19.251  0.00  0.00    +0.000 C 
ATOM     21  N   UNL     1      -1.139  10.188  18.768  0.00  0.00    +0.000 NA
BRANCH  21  22
ATOM     22  C   UNL     1      -1.178  10.114  17.291  0.00  0.00    +0.000 C 
BRANCH  22  23
ATOM     23  C   UNL     1      -2.547  10.281  16.609  0.00  0.00    +0.000 C 
BRANCH  23  24
ATOM     24  O   UNL     1      -2.496  11.337  15.653  0.00  0.00    +0.000 OA
ATOM     25  H   UNL     1      -3.404  11.488  15.340  0.00  0.00    +0.000 HD
ENDBRANCH  23  24
ENDBRANCH  22  23
ENDBRANCH  21  22
ENDBRANCH   1  21
BRANCH   7  26
ATOM     26  O   UNL     1       2.236  11.845  18.707  0.00  0.00    +0.000 OA
ATOM     27  H   UNL     1       2.849  11.307  19.239  0.00  0.00    +0.000 HD
ENDBRANCH   7  26
TORSDOF 7
ENDMDL
MODEL 8
REMARK VINA RESULT:      -6.0      7.958     11.433
REMARK  Name = 
REMARK  8 active torsions:
REMARK  status: ('A' for Active; 'I' for Inactive)
REMARK    1  A    between atoms: C_1  and  N_2
REMARK    2  A    between atoms: N_2  and  C_3
REMARK    3  A    between atoms: N_2  and  C_6
REMARK    4  A    between atoms: C_3  and  C_4
REMARK    5  A    between atoms: C_4  and  O_5
REMARK    6  A    between atoms: C_9  and  C_11
REMARK    7  A    between atoms: C_16  and  C_17
REMARK    8  A    between atoms: C_24  and  O_25
REMARK                            x       y       z     vdW  Elec       q    Type
REMARK                         _______ _______ _______ _____ _____    ______ ____
ROOT
ATOM      1  C   UNL     1      -0.700  11.907  19.616  0.00  0.00    +0.000 C 
ATOM      2  C   UNL     1      -0.838  13.307  20.278  0.00  0.00    +0.000 C 
ATOM      3  N   UNL     1      -0.454  14.282  19.262  0.00  0.00    +0.000 N 
ATOM      4  C   UNL     1      -0.030  15.554  19.651  0.00  0.00    +0.000 C 
ATOM      5  O   UNL     1       0.088  15.829  20.844  0.00  0.00    +0.000 OA
ATOM      6  C   UNL     1      -0.441  13.639  17.949  0.00  0.00    +0.000 C 
ATOM      7  C   UNL     1      -1.117  12.282  18.164  0.00  0.00    +0.000 C 
ENDROOT
BRANCH   4   8
ATOM      8  C   UNL     1       0.266  16.620  18.632  0.00  0.00    +0.000 A 
ATOM      9  C   UNL     1      -0.827  17.292  18.048  0.00  0.00    +0.000 A 
ATOM     10  C   UNL     1      -0.656  18.302  17.105  0.00  0.00    +0.000 A 
ATOM     11  C   UNL     1       0.619  18.631  16.683  0.00  0.00    +0.000 A 
ATOM     12  C   UNL     1       1.715  17.933  17.195  0.00  0.00    +0.000 A 
ATOM     13  C   UNL     1       1.584  16.900  18.162  0.00  0.00    +0.000 A 
BRANCH  13  14
ATOM     14  C   UNL     1       2.829  16.166  18.553  0.00  0.00    +0.000 A 
ATOM     15  C   UNL     1       3.397  15.154  17.768  0.00  0.00    +0.000 A 
ATOM     16  C   UNL     1       4.623  14.562  18.107  0.00  0.00    +0.000 A 
ATOM     17  C   UNL     1       5.273  14.919  19.282  0.00  0.00    +0.000 A 
ATOM     18  C   UNL     1       4.700  15.869  20.122  0.00  0.00    +0.000 A 
ATOM     19  C   UNL     1       3.500  16.487  19.755  0.00  0.00    +0.000 A 
ENDBRANCH  13  14
ENDBRANCH   4   8
BRANCH   1  21
ATOM     20  C   UNL     1       1.282  11.504  21.024  0.00  0.00    +0.000 C 
ATOM     21  N   UNL     1       0.674  11.333  19.699  0.00  0.00    +0.000 NA
BRANCH  21  22
ATOM     22  C   UNL     1       0.754   9.912  19.297  0.00  0.00    +0.000 C 
BRANCH  22  23
ATOM     23  C   UNL     1       1.671   9.561  18.112  0.00  0.00    +0.000 C 
BRANCH  23  24
ATOM     24  O   UNL     1       2.078  10.746  17.435  0.00  0.00    +0.000 OA
ATOM     25  H   UNL     1       2.992  10.609  17.134  0.00  0.00    +0.000 HD
ENDBRANCH  23  24
ENDBRANCH  22  23
ENDBRANCH  21  22
ENDBRANCH   1  21
BRANCH   7  26
ATOM     26  O   UNL     1      -2.546  12.372  18.058  0.00  0.00    +0.000 OA
ATOM     27  H   UNL     1      -2.919  12.171  18.935  0.00  0.00    +0.000 HD
ENDBRANCH   7  26
TORSDOF 7
ENDMDL
MODEL 9
REMARK VINA RESULT:      -6.0      1.686      3.169
REMARK  Name = 
REMARK  8 active torsions:
REMARK  status: ('A' for Active; 'I' for Inactive)
REMARK    1  A    between atoms: C_1  and  N_2
REMARK    2  A    between atoms: N_2  and  C_3
REMARK    3  A    between atoms: N_2  and  C_6
REMARK    4  A    between atoms: C_3  and  C_4
REMARK    5  A    between atoms: C_4  and  O_5
REMARK    6  A    between atoms: C_9  and  C_11
REMARK    7  A    between atoms: C_16  and  C_17
REMARK    8  A    between atoms: C_24  and  O_25
REMARK                            x       y       z     vdW  Elec       q    Type
REMARK                         _______ _______ _______ _____ _____    ______ ____
ROOT
ATOM      1  C   UNL     1       6.571   6.084  16.194  0.00  0.00    +0.000 C 
ATOM      2  C   UNL     1       5.044   5.794  16.162  0.00  0.00    +0.000 C 
ATOM      3  N   UNL     1       4.670   5.411  17.520  0.00  0.00    +0.000 N 
ATOM      4  C   UNL     1       3.511   4.661  17.732  0.00  0.00    +0.000 C 
ATOM      5  O   UNL     1       2.849   4.263  16.775  0.00  0.00    +0.000 OA
ATOM      6  C   UNL     1       5.740   5.784  18.444  0.00  0.00    +0.000 C 
ATOM      7  C   UNL     1       6.677   6.679  17.628  0.00  0.00    +0.000 C 
ENDROOT
BRANCH   4   8
ATOM      8  C   UNL     1       3.034   4.344  19.123  0.00  0.00    +0.000 A 
ATOM      9  C   UNL     1       3.108   3.003  19.551  0.00  0.00    +0.000 A 
ATOM     10  C   UNL     1       2.704   2.610  20.825  0.00  0.00    +0.000 A 
ATOM     11  C   UNL     1       2.164   3.546  21.686  0.00  0.00    +0.000 A 
ATOM     12  C   UNL     1       2.016   4.868  21.260  0.00  0.00    +0.000 A 
ATOM     13  C   UNL     1       2.421   5.311  19.973  0.00  0.00    +0.000 A 
BRANCH  13  14
ATOM     14  C   UNL     1       2.114   6.730  19.608  0.00  0.00    +0.000 A 
ATOM     15  C   UNL     1       2.320   7.250  18.324  0.00  0.00    +0.000 A 
ATOM     16  C   UNL     1       1.920   8.552  17.985  0.00  0.00    +0.000 A 
ATOM     17  C   UNL     1       1.371   9.390  18.948  0.00  0.00    +0.000 A 
ATOM     18  C   UNL     1       1.219   8.929  20.252  0.00  0.00    +0.000 A 
ATOM     19  C   UNL     1       1.578   7.616  20.571  0.00  0.00    +0.000 A 
ENDBRANCH  13  14
ENDBRANCH   4   8
BRANCH   1  21
ATOM     20  C   UNL     1       7.852   4.274  17.270  0.00  0.00    +0.000 C 
ATOM     21  N   UNL     1       7.420   4.873  16.001  0.00  0.00    +0.000 NA
BRANCH  21  22
ATOM     22  C   UNL     1       6.796   3.835  15.151  0.00  0.00    +0.000 C 
BRANCH  22  23
ATOM     23  C   UNL     1       6.698   4.119  13.642  0.00  0.00    +0.000 C 
BRANCH  23  24
ATOM     24  O   UNL     1       6.123   3.005  12.966  0.00  0.00    +0.000 OA
ATOM     25  H   UNL     1       5.157   3.087  13.041  0.00  0.00    +0.000 HD
ENDBRANCH  23  24
ENDBRANCH  22  23
ENDBRANCH  21  22
ENDBRANCH   1  21
BRANCH   7  26
ATOM     26  O   UNL     1       6.250   8.050  17.636  0.00  0.00    +0.000 OA
ATOM     27  H   UNL     1       5.284   8.058  17.511  0.00  0.00    +0.000 HD
ENDBRANCH   7  26
TORSDOF 7
ENDMDL
