MODEL 1
REMARK VINA RESULT:      -6.4      0.000      0.000
REMARK  Name = 
REMARK  7 active torsions:
REMARK  status: ('A' for Active; 'I' for Inactive)
REMARK    1  A    between atoms: C_1  and  C_2
REMARK    2  A    between atoms: C_11  and  C_12
REMARK    3  A    between atoms: C_11  and  C_13
REMARK    4  A    between atoms: N_15  and  C_16
REMARK    5  A    between atoms: N_15  and  C_25
REMARK    6  A    between atoms: C_16  and  C_17
REMARK    7  A    between atoms: N_19  and  C_20
REMARK                            x       y       z     vdW  Elec       q    Type
REMARK                         _______ _______ _______ _____ _____    ______ ____
ROOT
ATOM      1  C   UNL     1      -0.308  14.301  21.949  0.00  0.00    +0.000 C 
ATOM      2  O   UNL     1       0.613  14.827  22.592  0.00  0.00    +0.000 OA
ATOM      3  N   UNL     1      -0.143  13.926  20.586  0.00  0.00    +0.000 N 
ENDROOT
BRANCH   1  14
ATOM      4  C   UNL     1      -2.198  17.139  22.462  0.00  0.00    +0.000 C 
ATOM      5  C   UNL     1      -3.019  16.063  21.801  0.00  0.00    +0.000 C 
ATOM      6  C   UNL     1      -4.031  16.473  21.001  0.00  0.00    +0.000 C 
ATOM      7  C   UNL     1      -4.938  15.533  20.392  0.00  0.00    +0.000 C 
ATOM      8  C   UNL     1      -4.943  14.249  20.759  0.00  0.00    +0.000 C 
ATOM      9  C   UNL     1      -3.923  13.815  21.763  0.00  0.00    +0.000 C 
ATOM     10  N   UNL     1      -4.110  12.624  22.248  0.00  0.00    +0.000 NA
ATOM     11  C   UNL     1      -3.218  12.229  23.204  0.00  0.00    +0.000 C 
ATOM     12  O   UNL     1      -3.534  11.646  24.231  0.00  0.00    +0.000 OA
ATOM     13  C   UNL     1      -1.790  12.514  22.876  0.00  0.00    +0.000 C 
ATOM     14  C   UNL     1      -1.648  14.038  22.745  0.00  0.00    +0.000 C 
ATOM     15  C   UNL     1      -1.532  14.576  24.198  0.00  0.00    +0.000 C 
ATOM     16  N   UNL     1      -2.848  14.676  22.086  0.00  0.00    +0.000 N 
ENDBRANCH   1  14
BRANCH   3  17
ATOM     17  C   UNL     1       0.990  14.436  19.811  0.00  0.00    +0.000 A 
ATOM     18  C   UNL     1       0.980  15.689  19.170  0.00  0.00    +0.000 A 
ATOM     19  C   UNL     1       2.037  16.106  18.345  0.00  0.00    +0.000 A 
ATOM     20  C   UNL     1       3.133  15.281  18.163  0.00  0.00    +0.000 A 
ATOM     21  F   UNL     1       4.123  15.655  17.343  0.00  0.00    +0.000 F 
ATOM     22  C   UNL     1       3.213  14.070  18.825  0.00  0.00    +0.000 A 
ATOM     23  C   UNL     1       2.160  13.662  19.654  0.00  0.00    +0.000 A 
ENDBRANCH   3  17
BRANCH   3  24
ATOM     24  C   UNL     1      -1.198  13.236  19.807  0.00  0.00    +0.000 C 
BRANCH  24  25
ATOM     25  C   UNL     1      -0.977  11.786  19.325  0.00  0.00    +0.000 C 
ATOM     26  O   UNL     1      -1.790  11.262  18.562  0.00  0.00    +0.000 OA
ATOM     27  N   UNL     1       0.129  11.120  19.793  0.00  0.00    +0.000 N 
ATOM     28  H   UNL     1       0.711  11.567  20.491  0.00  0.00    +0.000 HD
BRANCH  27  29
ATOM     29  C   UNL     1       0.459   9.768  19.367  0.00  0.00    +0.000 C 
ATOM     30  C   UNL     1       1.497   9.762  18.250  0.00  0.00    +0.000 C 
ATOM     31  C   UNL     1       2.099   8.363  18.289  0.00  0.00    +0.000 C 
ATOM     32  C   UNL     1       1.898   7.853  19.715  0.00  0.00    +0.000 C 
ATOM     33  C   UNL     1       1.129   8.942  20.461  0.00  0.00    +0.000 C 
ENDBRANCH  27  29
ENDBRANCH  24  25
ENDBRANCH   3  24
TORSDOF 5
ENDMDL
MODEL 2
REMARK VINA RESULT:      -6.4      3.399      6.360
REMARK  Name = 
REMARK  7 active torsions:
REMARK  status: ('A' for Active; 'I' for Inactive)
REMARK    1  A    between atoms: C_1  and  C_2
REMARK    2  A    between atoms: C_11  and  C_12
REMARK    3  A    between atoms: C_11  and  C_13
REMARK    4  A    between atoms: N_15  and  C_16
REMARK    5  A    between atoms: N_15  and  C_25
REMARK    6  A    between atoms: C_16  and  C_17
REMARK    7  A    between atoms: N_19  and  C_20
REMARK                            x       y       z     vdW  Elec       q    Type
REMARK                         _______ _______ _______ _____ _____    ______ ____
ROOT
ATOM      1  C   UNL     1      -0.290  16.182  20.469  0.00  0.00    +0.000 C 
ATOM      2  O   UNL     1      -0.974  16.728  21.347  0.00  0.00    +0.000 OA
ATOM      3  N   UNL     1      -0.460  14.806  20.141  0.00  0.00    +0.000 N 
ENDROOT
BRANCH   1  14
ATOM      4  C   UNL     1       2.397  17.135  22.409  0.00  0.00    +0.000 C 
ATOM      5  C   UNL     1       2.863  16.499  21.125  0.00  0.00    +0.000 C 
ATOM      6  C   UNL     1       4.056  15.862  21.161  0.00  0.00    +0.000 C 
ATOM      7  C   UNL     1       4.644  15.297  19.971  0.00  0.00    +0.000 C 
ATOM      8  C   UNL     1       4.139  15.564  18.764  0.00  0.00    +0.000 C 
ATOM      9  C   UNL     1       2.900  16.399  18.705  0.00  0.00    +0.000 C 
ATOM     10  N   UNL     1       2.579  16.811  17.514  0.00  0.00    +0.000 NA
ATOM     11  C   UNL     1       1.481  17.619  17.446  0.00  0.00    +0.000 C 
ATOM     12  O   UNL     1       1.419  18.630  16.761  0.00  0.00    +0.000 OA
ATOM     13  C   UNL     1       0.310  17.143  18.240  0.00  0.00    +0.000 C 
ATOM     14  C   UNL     1       0.741  17.112  19.714  0.00  0.00    +0.000 C 
ATOM     15  C   UNL     1       0.621  18.577  20.218  0.00  0.00    +0.000 C 
ATOM     16  N   UNL     1       2.170  16.655  19.889  0.00  0.00    +0.000 N 
ENDBRANCH   1  14
BRANCH   3  17
ATOM     17  C   UNL     1      -1.205  13.920  21.037  0.00  0.00    +0.000 A 
ATOM     18  C   UNL     1      -2.593  13.714  20.933  0.00  0.00    +0.000 A 
ATOM     19  C   UNL     1      -3.298  12.943  21.872  0.00  0.00    +0.000 A 
ATOM     20  C   UNL     1      -2.621  12.349  22.922  0.00  0.00    +0.000 A 
ATOM     21  F   UNL     1      -3.295  11.650  23.844  0.00  0.00    +0.000 F 
ATOM     22  C   UNL     1      -1.247  12.474  23.025  0.00  0.00    +0.000 A 
ATOM     23  C   UNL     1      -0.547  13.235  22.081  0.00  0.00    +0.000 A 
ENDBRANCH   3  17
BRANCH   3  24
ATOM     24  C   UNL     1       0.292  14.139  19.053  0.00  0.00    +0.000 C 
BRANCH  24  25
ATOM     25  C   UNL     1      -0.105  12.717  18.600  0.00  0.00    +0.000 C 
ATOM     26  O   UNL     1       0.565  11.748  18.960  0.00  0.00    +0.000 OA
ATOM     27  N   UNL     1      -1.201  12.591  17.781  0.00  0.00    +0.000 N 
ATOM     28  H   UNL     1      -1.657  13.429  17.441  0.00  0.00    +0.000 HD
BRANCH  27  29
ATOM     29  C   UNL     1      -1.692  11.297  17.335  0.00  0.00    +0.000 C 
ATOM     30  C   UNL     1      -2.622  10.657  18.359  0.00  0.00    +0.000 C 
ATOM     31  C   UNL     1      -3.427   9.635  17.566  0.00  0.00    +0.000 C 
ATOM     32  C   UNL     1      -3.424  10.122  16.118  0.00  0.00    +0.000 C 
ATOM     33  C   UNL     1      -2.566  11.386  16.087  0.00  0.00    +0.000 C 
ENDBRANCH  27  29
ENDBRANCH  24  25
ENDBRANCH   3  24
TORSDOF 5
ENDMDL
MODEL 3
REMARK VINA RESULT:      -6.4      2.507      5.463
REMARK  Name = 
REMARK  7 active torsions:
REMARK  status: ('A' for Active; 'I' for Inactive)
REMARK    1  A    between atoms: C_1  and  C_2
REMARK    2  A    between atoms: C_11  and  C_12
REMARK    3  A    between atoms: C_11  and  C_13
REMARK    4  A    between atoms: N_15  and  C_16
REMARK    5  A    between atoms: N_15  and  C_25
REMARK    6  A    between atoms: C_16  and  C_17
REMARK    7  A    between atoms: N_19  and  C_20
REMARK                            x       y       z     vdW  Elec       q    Type
REMARK                         _______ _______ _______ _____ _____    ______ ____
ROOT
ATOM      1  C   UNL     1      -2.230  13.367  21.198  0.00  0.00    +0.000 C 
ATOM      2  O   UNL     1      -2.924  12.565  20.556  0.00  0.00    +0.000 OA
ATOM      3  N   UNL     1      -0.895  13.056  21.580  0.00  0.00    +0.000 N 
ENDROOT
BRANCH   1  14
ATOM      4  C   UNL     1      -4.304  13.299  23.952  0.00  0.00    +0.000 C 
ATOM      5  C   UNL     1      -3.267  14.383  24.091  0.00  0.00    +0.000 C 
ATOM      6  C   UNL     1      -2.892  14.709  25.350  0.00  0.00    +0.000 C 
ATOM      7  C   UNL     1      -1.977  15.793  25.606  0.00  0.00    +0.000 C 
ATOM      8  C   UNL     1      -1.632  16.643  24.635  0.00  0.00    +0.000 C 
ATOM      9  C   UNL     1      -2.168  16.378  23.265  0.00  0.00    +0.000 C 
ATOM     10  N   UNL     1      -1.989  17.344  22.415  0.00  0.00    +0.000 NA
ATOM     11  C   UNL     1      -2.517  17.143  21.172  0.00  0.00    +0.000 C 
ATOM     12  O   UNL     1      -3.125  17.997  20.543  0.00  0.00    +0.000 OA
ATOM     13  C   UNL     1      -2.246  15.793  20.594  0.00  0.00    +0.000 C 
ATOM     14  C   UNL     1      -2.902  14.760  21.523  0.00  0.00    +0.000 C 
ATOM     15  C   UNL     1      -4.407  14.742  21.135  0.00  0.00    +0.000 C 
ATOM     16  N   UNL     1      -2.783  15.135  22.981  0.00  0.00    +0.000 N 
ENDBRANCH   1  14
BRANCH   3  17
ATOM     17  C   UNL     1      -0.411  11.675  21.517  0.00  0.00    +0.000 A 
ATOM     18  C   UNL     1       0.271  11.152  20.402  0.00  0.00    +0.000 A 
ATOM     19  C   UNL     1       0.628   9.796  20.325  0.00  0.00    +0.000 A 
ATOM     20  C   UNL     1       0.325   8.944  21.373  0.00  0.00    +0.000 A 
ATOM     21  F   UNL     1       0.625   7.642  21.285  0.00  0.00    +0.000 F 
ATOM     22  C   UNL     1      -0.285   9.432  22.514  0.00  0.00    +0.000 A 
ATOM     23  C   UNL     1      -0.631  10.786  22.590  0.00  0.00    +0.000 A 
ENDBRANCH   3  17
BRANCH   3  24
ATOM     24  C   UNL     1      -0.016  14.015  22.290  0.00  0.00    +0.000 C 
BRANCH  24  25
ATOM     25  C   UNL     1       1.250  14.561  21.593  0.00  0.00    +0.000 C 
ATOM     26  O   UNL     1       2.323  14.579  22.196  0.00  0.00    +0.000 OA
ATOM     27  N   UNL     1       1.118  15.034  20.310  0.00  0.00    +0.000 N 
ATOM     28  H   UNL     1       0.194  15.082  19.898  0.00  0.00    +0.000 HD
BRANCH  27  29
ATOM     29  C   UNL     1       2.252  15.526  19.544  0.00  0.00    +0.000 C 
ATOM     30  C   UNL     1       2.789  14.472  18.582  0.00  0.00    +0.000 C 
ATOM     31  C   UNL     1       3.568  15.262  17.538  0.00  0.00    +0.000 C 
ATOM     32  C   UNL     1       2.968  16.667  17.532  0.00  0.00    +0.000 C 
ATOM     33  C   UNL     1       1.892  16.684  18.617  0.00  0.00    +0.000 C 
ENDBRANCH  27  29
ENDBRANCH  24  25
ENDBRANCH   3  24
TORSDOF 5
ENDMDL
MODEL 4
REMARK VINA RESULT:      -6.3      3.226      4.913
REMARK  Name = 
REMARK  7 active torsions:
REMARK  status: ('A' for Active; 'I' for Inactive)
REMARK    1  A    between atoms: C_1  and  C_2
REMARK    2  A    between atoms: C_11  and  C_12
REMARK    3  A    between atoms: C_11  and  C_13
REMARK    4  A    between atoms: N_15  and  C_16
REMARK    5  A    between atoms: N_15  and  C_25
REMARK    6  A    between atoms: C_16  and  C_17
REMARK    7  A    between atoms: N_19  and  C_20
REMARK                            x       y       z     vdW  Elec       q    Type
REMARK                         _______ _______ _______ _____ _____    ______ ____
ROOT
ATOM      1  C   UNL     1      -2.968  12.635  22.330  0.00  0.00    +0.000 C 
ATOM      2  O   UNL     1      -3.264  11.790  23.188  0.00  0.00    +0.000 OA
ATOM      3  N   UNL     1      -1.915  12.411  21.398  0.00  0.00    +0.000 N 
ENDROOT
BRANCH   1  14
ATOM      4  C   UNL     1      -5.690  12.433  20.222  0.00  0.00    +0.000 C 
ATOM      5  C   UNL     1      -6.119  12.820  21.614  0.00  0.00    +0.000 C 
ATOM      6  C   UNL     1      -7.364  12.449  21.992  0.00  0.00    +0.000 C 
ATOM      7  C   UNL     1      -7.914  12.844  23.265  0.00  0.00    +0.000 C 
ATOM      8  C   UNL     1      -7.301  13.758  24.022  0.00  0.00    +0.000 C 
ATOM      9  C   UNL     1      -5.992  14.291  23.535  0.00  0.00    +0.000 C 
ATOM     10  N   UNL     1      -5.551  15.326  24.185  0.00  0.00    +0.000 NA
ATOM     11  C   UNL     1      -4.382  15.859  23.722  0.00  0.00    +0.000 C 
ATOM     12  O   UNL     1      -4.181  17.059  23.600  0.00  0.00    +0.000 OA
ATOM     13  C   UNL     1      -3.319  14.856  23.421  0.00  0.00    +0.000 C 
ATOM     14  C   UNL     1      -3.855  13.943  22.309  0.00  0.00    +0.000 C 
ATOM     15  C   UNL     1      -3.641  14.724  20.983  0.00  0.00    +0.000 C 
ATOM     16  N   UNL     1      -5.328  13.647  22.464  0.00  0.00    +0.000 N 
ENDBRANCH   1  14
BRANCH   3  17
ATOM     17  C   UNL     1      -0.945  11.338  21.623  0.00  0.00    +0.000 A 
ATOM     18  C   UNL     1      -0.110  10.834  20.608  0.00  0.00    +0.000 A 
ATOM     19  C   UNL     1       0.734   9.732  20.826  0.00  0.00    +0.000 A 
ATOM     20  C   UNL     1       0.770   9.129  22.070  0.00  0.00    +0.000 A 
ATOM     21  F   UNL     1       1.540   8.051  22.269  0.00  0.00    +0.000 F 
ATOM     22  C   UNL     1       0.014   9.633  23.112  0.00  0.00    +0.000 A 
ATOM     23  C   UNL     1      -0.818  10.737  22.894  0.00  0.00    +0.000 A 
ENDBRANCH   3  17
BRANCH   3  24
ATOM     24  C   UNL     1      -1.578  13.369  20.319  0.00  0.00    +0.000 C 
BRANCH  24  25
ATOM     25  C   UNL     1      -1.534  12.892  18.851  0.00  0.00    +0.000 C 
ATOM     26  O   UNL     1      -0.614  13.253  18.116  0.00  0.00    +0.000 OA
ATOM     27  N   UNL     1      -2.555  12.085  18.411  0.00  0.00    +0.000 N 
ATOM     28  H   UNL     1      -3.333  11.899  19.032  0.00  0.00    +0.000 HD
BRANCH  27  29
ATOM     29  C   UNL     1      -2.588  11.540  17.063  0.00  0.00    +0.000 C 
ATOM     30  C   UNL     1      -2.064  10.110  17.015  0.00  0.00    +0.000 C 
ATOM     31  C   UNL     1      -2.634   9.532  15.726  0.00  0.00    +0.000 C 
ATOM     32  C   UNL     1      -3.896  10.336  15.420  0.00  0.00    +0.000 C 
ATOM     33  C   UNL     1      -4.003  11.406  16.505  0.00  0.00    +0.000 C 
ENDBRANCH  27  29
ENDBRANCH  24  25
ENDBRANCH   3  24
TORSDOF 5
ENDMDL
MODEL 5
REMARK VINA RESULT:      -6.3      2.855      4.776
REMARK  Name = 
REMARK  7 active torsions:
REMARK  status: ('A' for Active; 'I' for Inactive)
REMARK    1  A    between atoms: C_1  and  C_2
REMARK    2  A    between atoms: C_11  and  C_12
REMARK    3  A    between atoms: C_11  and  C_13
REMARK    4  A    between atoms: N_15  and  C_16
REMARK    5  A    between atoms: N_15  and  C_25
REMARK    6  A    between atoms: C_16  and  C_17
REMARK    7  A    between atoms: N_19  and  C_20
REMARK                            x       y       z     vdW  Elec       q    Type
REMARK                         _______ _______ _______ _____ _____    ______ ____
ROOT
ATOM      1  C   UNL     1       1.432  13.872  21.050  0.00  0.00    +0.000 C 
ATOM      2  O   UNL     1       2.499  13.415  21.486  0.00  0.00    +0.000 OA
ATOM      3  N   UNL     1       0.535  13.070  20.289  0.00  0.00    +0.000 N 
ENDROOT
BRANCH   1  14
ATOM      4  C   UNL     1       3.194  16.170  19.177  0.00  0.00    +0.000 C 
ATOM      5  C   UNL     1       1.715  16.448  19.109  0.00  0.00    +0.000 C 
ATOM      6  C   UNL     1       1.257  17.040  17.982  0.00  0.00    +0.000 C 
ATOM      7  C   UNL     1      -0.123  17.436  17.845  0.00  0.00    +0.000 C 
ATOM      8  C   UNL     1      -0.946  17.424  18.897  0.00  0.00    +0.000 C 
ATOM      9  C   UNL     1      -0.402  16.912  20.192  0.00  0.00    +0.000 C 
ATOM     10  N   UNL     1      -1.164  17.126  21.224  0.00  0.00    +0.000 NA
ATOM     11  C   UNL     1      -0.661  16.712  22.424  0.00  0.00    +0.000 C 
ATOM     12  O   UNL     1      -0.726  17.369  23.453  0.00  0.00    +0.000 OA
ATOM     13  C   UNL     1      -0.063  15.345  22.408  0.00  0.00    +0.000 C 
ATOM     14  C   UNL     1       1.117  15.374  21.425  0.00  0.00    +0.000 C 
ATOM     15  C   UNL     1       2.303  15.999  22.210  0.00  0.00    +0.000 C 
ATOM     16  N   UNL     1       0.836  16.229  20.211  0.00  0.00    +0.000 N 
ENDBRANCH   1  14
BRANCH   3  17
ATOM     17  C   UNL     1       0.980  11.795  19.725  0.00  0.00    +0.000 A 
ATOM     18  C   UNL     1       1.717  11.700  18.529  0.00  0.00    +0.000 A 
ATOM     19  C   UNL     1       2.038  10.459  17.956  0.00  0.00    +0.000 A 
ATOM     20  C   UNL     1       1.642   9.290  18.580  0.00  0.00    +0.000 A 
ATOM     21  F   UNL     1       1.907   8.106  18.014  0.00  0.00    +0.000 F 
ATOM     22  C   UNL     1       0.972   9.337  19.789  0.00  0.00    +0.000 A 
ATOM     23  C   UNL     1       0.663  10.576  20.362  0.00  0.00    +0.000 A 
ENDBRANCH   3  17
BRANCH   3  24
ATOM     24  C   UNL     1      -0.777  13.565  19.809  0.00  0.00    +0.000 C 
BRANCH  24  25
ATOM     25  C   UNL     1      -1.822  12.569  19.258  0.00  0.00    +0.000 C 
ATOM     26  O   UNL     1      -2.670  12.090  20.012  0.00  0.00    +0.000 OA
ATOM     27  N   UNL     1      -1.747  12.237  17.927  0.00  0.00    +0.000 N 
ATOM     28  H   UNL     1      -0.972  12.588  17.378  0.00  0.00    +0.000 HD
BRANCH  27  29
ATOM     29  C   UNL     1      -2.708  11.347  17.294  0.00  0.00    +0.000 C 
ATOM     30  C   UNL     1      -2.869  11.649  15.808  0.00  0.00    +0.000 C 
ATOM     31  C   UNL     1      -3.453  10.373  15.215  0.00  0.00    +0.000 C 
ATOM     32  C   UNL     1      -3.034   9.239  16.150  0.00  0.00    +0.000 C 
ATOM     33  C   UNL     1      -2.266   9.886  17.301  0.00  0.00    +0.000 C 
ENDBRANCH  27  29
ENDBRANCH  24  25
ENDBRANCH   3  24
TORSDOF 5
ENDMDL
MODEL 6
REMARK VINA RESULT:      -6.2      1.814      5.684
REMARK  Name = 
REMARK  7 active torsions:
REMARK  status: ('A' for Active; 'I' for Inactive)
REMARK    1  A    between atoms: C_1  and  C_2
REMARK    2  A    between atoms: C_11  and  C_12
REMARK    3  A    between atoms: C_11  and  C_13
REMARK    4  A    between atoms: N_15  and  C_16
REMARK    5  A    between atoms: N_15  and  C_25
REMARK    6  A    between atoms: C_16  and  C_17
REMARK    7  A    between atoms: N_19  and  C_20
REMARK                            x       y       z     vdW  Elec       q    Type
REMARK                         _______ _______ _______ _____ _____    ______ ____
ROOT
ATOM      1  C   UNL     1      -0.542  13.292  19.196  0.00  0.00    +0.000 C 
ATOM      2  O   UNL     1      -0.663  13.503  17.980  0.00  0.00    +0.000 OA
ATOM      3  N   UNL     1       0.575  13.785  19.929  0.00  0.00    +0.000 N 
ENDROOT
BRANCH   1  14
ATOM      4  C   UNL     1      -0.175   9.868  19.001  0.00  0.00    +0.000 C 
ATOM      5  C   UNL     1      -0.371  10.304  20.429  0.00  0.00    +0.000 C 
ATOM      6  C   UNL     1       0.196   9.531  21.384  0.00  0.00    +0.000 C 
ATOM      7  C   UNL     1      -0.004   9.800  22.787  0.00  0.00    +0.000 C 
ATOM      8  C   UNL     1      -0.918  10.686  23.192  0.00  0.00    +0.000 C 
ATOM      9  C   UNL     1      -1.662  11.439  22.137  0.00  0.00    +0.000 C 
ATOM     10  N   UNL     1      -2.683  12.117  22.571  0.00  0.00    +0.000 NA
ATOM     11  C   UNL     1      -3.407  12.769  21.615  0.00  0.00    +0.000 C 
ATOM     12  O   UNL     1      -4.630  12.796  21.585  0.00  0.00    +0.000 OA
ATOM     13  C   UNL     1      -2.586  13.516  20.617  0.00  0.00    +0.000 C 
ATOM     14  C   UNL     1      -1.717  12.486  19.881  0.00  0.00    +0.000 C 
ATOM     15  C   UNL     1      -2.638  11.849  18.805  0.00  0.00    +0.000 C 
ATOM     16  N   UNL     1      -1.214  11.395  20.796  0.00  0.00    +0.000 N 
ENDBRANCH   1  14
BRANCH   3  17
ATOM     17  C   UNL     1       1.764  14.269  19.226  0.00  0.00    +0.000 A 
ATOM     18  C   UNL     1       2.786  13.415  18.769  0.00  0.00    +0.000 A 
ATOM     19  C   UNL     1       3.966  13.917  18.194  0.00  0.00    +0.000 A 
ATOM     20  C   UNL     1       4.134  15.282  18.049  0.00  0.00    +0.000 A 
ATOM     21  F   UNL     1       5.275  15.766  17.542  0.00  0.00    +0.000 F 
ATOM     22  C   UNL     1       3.127  16.152  18.425  0.00  0.00    +0.000 A 
ATOM     23  C   UNL     1       1.949  15.648  18.989  0.00  0.00    +0.000 A 
ENDBRANCH   3  17
BRANCH   3  24
ATOM     24  C   UNL     1       0.719  13.608  21.393  0.00  0.00    +0.000 C 
BRANCH  24  25
ATOM     25  C   UNL     1       0.483  14.805  22.340  0.00  0.00    +0.000 C 
ATOM     26  O   UNL     1       1.379  15.630  22.523  0.00  0.00    +0.000 OA
ATOM     27  N   UNL     1      -0.736  14.890  22.970  0.00  0.00    +0.000 N 
ATOM     28  H   UNL     1      -1.399  14.133  22.856  0.00  0.00    +0.000 HD
BRANCH  27  29
ATOM     29  C   UNL     1      -1.082  15.999  23.845  0.00  0.00    +0.000 C 
ATOM     30  C   UNL     1      -2.557  16.368  23.738  0.00  0.00    +0.000 C 
ATOM     31  C   UNL     1      -2.860  17.128  25.023  0.00  0.00    +0.000 C 
ATOM     32  C   UNL     1      -1.834  16.651  26.051  0.00  0.00    +0.000 C 
ATOM     33  C   UNL     1      -0.918  15.668  25.326  0.00  0.00    +0.000 C 
ENDBRANCH  27  29
ENDBRANCH  24  25
ENDBRANCH   3  24
TORSDOF 5
ENDMDL
MODEL 7
REMARK VINA RESULT:      -6.2      2.947      6.013
REMARK  Name = 
REMARK  7 active torsions:
REMARK  status: ('A' for Active; 'I' for Inactive)
REMARK    1  A    between atoms: C_1  and  C_2
REMARK    2  A    between atoms: C_11  and  C_12
REMARK    3  A    between atoms: C_11  and  C_13
REMARK    4  A    between atoms: N_15  and  C_16
REMARK    5  A    between atoms: N_15  and  C_25
REMARK    6  A    between atoms: C_16  and  C_17
REMARK    7  A    between atoms: N_19  and  C_20
REMARK                            x       y       z     vdW  Elec       q    Type
REMARK                         _______ _______ _______ _____ _____    ______ ____
ROOT
ATOM      1  C   UNL     1      -0.875  10.621  18.919  0.00  0.00    +0.000 C 
ATOM      2  O   UNL     1      -1.473   9.672  18.391  0.00  0.00    +0.000 OA
ATOM      3  N   UNL     1       0.476  10.500  19.352  0.00  0.00    +0.000 N 
ENDROOT
BRANCH   1  14
ATOM      4  C   UNL     1      -2.638  11.439  16.071  0.00  0.00    +0.000 C 
ATOM      5  C   UNL     1      -3.545  11.422  17.274  0.00  0.00    +0.000 C 
ATOM      6  C   UNL     1      -4.844  11.113  17.053  0.00  0.00    +0.000 C 
ATOM      7  C   UNL     1      -5.819  11.156  18.114  0.00  0.00    +0.000 C 
ATOM      8  C   UNL     1      -5.522  11.700  19.296  0.00  0.00    +0.000 C 
ATOM      9  C   UNL     1      -4.123  12.187  19.499  0.00  0.00    +0.000 C 
ATOM     10  N   UNL     1      -3.946  12.901  20.570  0.00  0.00    +0.000 NA
ATOM     11  C   UNL     1      -2.687  13.399  20.746  0.00  0.00    +0.000 C 
ATOM     12  O   UNL     1      -2.450  14.541  21.115  0.00  0.00    +0.000 OA
ATOM     13  C   UNL     1      -1.591  12.413  20.508  0.00  0.00    +0.000 C 
ATOM     14  C   UNL     1      -1.687  11.971  19.040  0.00  0.00    +0.000 C 
ATOM     15  C   UNL     1      -1.000  13.095  18.216  0.00  0.00    +0.000 C 
ATOM     16  N   UNL     1      -3.116  11.832  18.571  0.00  0.00    +0.000 N 
ENDBRANCH   1  14
BRANCH   3  17
ATOM     17  C   UNL     1       1.094   9.180  19.487  0.00  0.00    +0.000 A 
ATOM     18  C   UNL     1       1.027   8.419  20.669  0.00  0.00    +0.000 A 
ATOM     19  C   UNL     1       1.719   7.204  20.805  0.00  0.00    +0.000 A 
ATOM     20  C   UNL     1       2.477   6.722  19.753  0.00  0.00    +0.000 A 
ATOM     21  F   UNL     1       3.174   5.588  19.894  0.00  0.00    +0.000 F 
ATOM     22  C   UNL     1       2.517   7.407  18.552  0.00  0.00    +0.000 A 
ATOM     23  C   UNL     1       1.817   8.612  18.417  0.00  0.00    +0.000 A 
ENDBRANCH   3  17
BRANCH   3  24
ATOM     24  C   UNL     1       1.241  11.632  19.926  0.00  0.00    +0.000 C 
BRANCH  24  25
ATOM     25  C   UNL     1       2.181  12.463  19.026  0.00  0.00    +0.000 C 
ATOM     26  O   UNL     1       2.532  12.021  17.931  0.00  0.00    +0.000 OA
ATOM     27  N   UNL     1       2.611  13.678  19.502  0.00  0.00    +0.000 N 
ATOM     28  H   UNL     1       2.367  13.948  20.447  0.00  0.00    +0.000 HD
BRANCH  27  29
ATOM     29  C   UNL     1       3.459  14.563  18.718  0.00  0.00    +0.000 C 
ATOM     30  C   UNL     1       2.652  15.652  18.021  0.00  0.00    +0.000 C 
ATOM     31  C   UNL     1       3.666  16.745  17.708  0.00  0.00    +0.000 C 
ATOM     32  C   UNL     1       4.796  16.581  18.724  0.00  0.00    +0.000 C 
ATOM     33  C   UNL     1       4.444  15.358  19.570  0.00  0.00    +0.000 C 
ENDBRANCH  27  29
ENDBRANCH  24  25
ENDBRANCH   3  24
TORSDOF 5
ENDMDL
MODEL 8
REMARK VINA RESULT:      -6.2      2.645      5.228
REMARK  Name = 
REMARK  7 active torsions:
REMARK  status: ('A' for Active; 'I' for Inactive)
REMARK    1  A    between atoms: C_1  and  C_2
REMARK    2  A    between atoms: C_11  and  C_12
REMARK    3  A    between atoms: C_11  and  C_13
REMARK    4  A    between atoms: N_15  and  C_16
REMARK    5  A    between atoms: N_15  and  C_25
REMARK    6  A    between atoms: C_16  and  C_17
REMARK    7  A    between atoms: N_19  and  C_20
REMARK                            x       y       z     vdW  Elec       q    Type
REMARK                         _______ _______ _______ _____ _____    ______ ____
ROOT
ATOM      1  C   UNL     1       0.826  13.942  21.142  0.00  0.00    +0.000 C 
ATOM      2  O   UNL     1       1.864  13.533  21.683  0.00  0.00    +0.000 OA
ATOM      3  N   UNL     1       0.045  13.102  20.299  0.00  0.00    +0.000 N 
ENDROOT
BRANCH   1  14
ATOM      4  C   UNL     1       2.746  16.320  19.544  0.00  0.00    +0.000 C 
ATOM      5  C   UNL     1       1.281  16.547  19.274  0.00  0.00    +0.000 C 
ATOM      6  C   UNL     1       0.963  17.135  18.098  0.00  0.00    +0.000 C 
ATOM      7  C   UNL     1      -0.399  17.484  17.775  0.00  0.00    +0.000 C 
ATOM      8  C   UNL     1      -1.358  17.432  18.702  0.00  0.00    +0.000 C 
ATOM      9  C   UNL     1      -0.980  16.925  20.057  0.00  0.00    +0.000 C 
ATOM     10  N   UNL     1      -1.884  17.102  20.975  0.00  0.00    +0.000 NA
ATOM     11  C   UNL     1      -1.537  16.693  22.230  0.00  0.00    +0.000 C 
ATOM     12  O   UNL     1      -1.766  17.336  23.245  0.00  0.00    +0.000 OA
ATOM     13  C   UNL     1      -0.894  15.347  22.289  0.00  0.00    +0.000 C 
ATOM     14  C   UNL     1       0.408  15.429  21.479  0.00  0.00    +0.000 C 
ATOM     15  C   UNL     1       1.452  16.086  22.424  0.00  0.00    +0.000 C 
ATOM     16  N   UNL     1       0.268  16.286  20.243  0.00  0.00    +0.000 N 
ENDBRANCH   1  14
BRANCH   3  17
ATOM     17  C   UNL     1       0.601  11.848  19.786  0.00  0.00    +0.000 A 
ATOM     18  C   UNL     1       1.410  11.781  18.637  0.00  0.00    +0.000 A 
ATOM     19  C   UNL     1       1.840  10.554  18.107  0.00  0.00    +0.000 A 
ATOM     20  C   UNL     1       1.482   9.372  18.730  0.00  0.00    +0.000 A 
ATOM     21  F   UNL     1       1.852   8.198  18.203  0.00  0.00    +0.000 F 
ATOM     22  C   UNL     1       0.741   9.396  19.898  0.00  0.00    +0.000 A 
ATOM     23  C   UNL     1       0.323  10.622  20.429  0.00  0.00    +0.000 A 
ENDBRANCH   3  17
BRANCH   3  24
ATOM     24  C   UNL     1      -1.234  13.537  19.690  0.00  0.00    +0.000 C 
BRANCH  24  25
ATOM     25  C   UNL     1      -2.551  12.828  20.074  0.00  0.00    +0.000 C 
ATOM     26  O   UNL     1      -2.713  12.411  21.222  0.00  0.00    +0.000 OA
ATOM     27  N   UNL     1      -3.499  12.669  19.092  0.00  0.00    +0.000 N 
ATOM     28  H   UNL     1      -3.274  12.946  18.145  0.00  0.00    +0.000 HD
BRANCH  27  29
ATOM     29  C   UNL     1      -4.794  12.059  19.355  0.00  0.00    +0.000 C 
ATOM     30  C   UNL     1      -5.924  13.080  19.302  0.00  0.00    +0.000 C 
ATOM     31  C   UNL     1      -7.182  12.252  19.071  0.00  0.00    +0.000 C 
ATOM     32  C   UNL     1      -6.724  10.963  18.390  0.00  0.00    +0.000 C 
ATOM     33  C   UNL     1      -5.202  11.040  18.294  0.00  0.00    +0.000 C 
ENDBRANCH  27  29
ENDBRANCH  24  25
ENDBRANCH   3  24
TORSDOF 5
ENDMDL
MODEL 9
REMARK VINA RESULT:      -6.1      2.341      3.102
REMARK  Name = 
REMARK  7 active torsions:
REMARK  status: ('A' for Active; 'I' for Inactive)
REMARK    1  A    between atoms: C_1  and  C_2
REMARK    2  A    between atoms: C_11  and  C_12
REMARK    3  A    between atoms: C_11  and  C_13
REMARK    4  A    between atoms: N_15  and  C_16
REMARK    5  A    between atoms: N_15  and  C_25
REMARK    6  A    between atoms: C_16  and  C_17
REMARK    7  A    between atoms: N_19  and  C_20
REMARK                            x       y       z     vdW  Elec       q    Type
REMARK                         _______ _______ _______ _____ _____    ______ ____
ROOT
ATOM      1  C   UNL     1      -2.105  15.477  21.888  0.00  0.00    +0.000 C 
ATOM      2  O   UNL     1      -1.902  16.679  22.116  0.00  0.00    +0.000 OA
ATOM      3  N   UNL     1      -1.258  14.731  21.020  0.00  0.00    +0.000 N 
ENDROOT
BRANCH   1  14
ATOM      4  C   UNL     1      -5.172  16.706  20.899  0.00  0.00    +0.000 C 
ATOM      5  C   UNL     1      -5.138  15.203  20.791  0.00  0.00    +0.000 C 
ATOM      6  C   UNL     1      -5.927  14.643  19.845  0.00  0.00    +0.000 C 
ATOM      7  C   UNL     1      -6.045  13.212  19.713  0.00  0.00    +0.000 C 
ATOM      8  C   UNL     1      -5.549  12.395  20.646  0.00  0.00    +0.000 C 
ATOM      9  C   UNL     1      -4.803  13.018  21.782  0.00  0.00    +0.000 C 
ATOM     10  N   UNL     1      -4.538  12.211  22.766  0.00  0.00    +0.000 NA
ATOM     11  C   UNL     1      -3.903  12.774  23.836  0.00  0.00    +0.000 C 
ATOM     12  O   UNL     1      -4.197  12.545  25.001  0.00  0.00    +0.000 OA
ATOM     13  C   UNL     1      -2.760  13.665  23.481  0.00  0.00    +0.000 C 
ATOM     14  C   UNL     1      -3.327  14.824  22.648  0.00  0.00    +0.000 C 
ATOM     15  C   UNL     1      -3.927  15.825  23.674  0.00  0.00    +0.000 C 
ATOM     16  N   UNL     1      -4.423  14.379  21.709  0.00  0.00    +0.000 N 
ENDBRANCH   1  14
BRANCH   3  17
ATOM     17  C   UNL     1      -0.327  15.420  20.125  0.00  0.00    +0.000 A 
ATOM     18  C   UNL     1       1.071  15.368  20.284  0.00  0.00    +0.000 A 
ATOM     19  C   UNL     1       1.935  16.125  19.476  0.00  0.00    +0.000 A 
ATOM     20  C   UNL     1       1.415  16.932  18.481  0.00  0.00    +0.000 A 
ATOM     21  F   UNL     1       2.232  17.689  17.737  0.00  0.00    +0.000 F 
ATOM     22  C   UNL     1       0.052  16.963  18.249  0.00  0.00    +0.000 A 
ATOM     23  C   UNL     1      -0.806  16.199  19.050  0.00  0.00    +0.000 A 
ENDBRANCH   3  17
BRANCH   3  24
ATOM     24  C   UNL     1      -1.433  13.280  20.777  0.00  0.00    +0.000 C 
BRANCH  24  25
ATOM     25  C   UNL     1      -1.395  12.730  19.334  0.00  0.00    +0.000 C 
ATOM     26  O   UNL     1      -0.346  12.770  18.689  0.00  0.00    +0.000 OA
ATOM     27  N   UNL     1      -2.562  12.228  18.812  0.00  0.00    +0.000 N 
ATOM     28  H   UNL     1      -3.414  12.307  19.353  0.00  0.00    +0.000 HD
BRANCH  27  29
ATOM     29  C   UNL     1      -2.629  11.642  17.482  0.00  0.00    +0.000 C 
ATOM     30  C   UNL     1      -2.199  10.179  17.484  0.00  0.00    +0.000 C 
ATOM     31  C   UNL     1      -2.803   9.598  16.212  0.00  0.00    +0.000 C 
ATOM     32  C   UNL     1      -4.010  10.472  15.875  0.00  0.00    +0.000 C 
ATOM     33  C   UNL     1      -4.048  11.582  16.925  0.00  0.00    +0.000 C 
ENDBRANCH  27  29
ENDBRANCH  24  25
ENDBRANCH   3  24
TORSDOF 5
ENDMDL
