MODEL 1
REMARK VINA RESULT:      -7.2      0.000      0.000
REMARK  Name = 
REMARK  6 active torsions:
REMARK  status: ('A' for Active; 'I' for Inactive)
REMARK    1  A    between atoms: C_1  and  O_2
REMARK    2  A    between atoms: O_2  and  C_3
REMARK    3  A    between atoms: C_6  and  C_7
REMARK    4  A    between atoms: C_7  and  C_9
REMARK    5  A    between atoms: C_10  and  C_11
REMARK    6  A    between atoms: C_14  and  C_15
REMARK                            x       y       z     vdW  Elec       q    Type
REMARK                         _______ _______ _______ _____ _____    ______ ____
ROOT
ATOM      1  C   UNL     1       7.210   6.810  17.309  0.00  0.00    +0.000 C 
ATOM      2  O   UNL     1       7.682   6.330  16.284  0.00  0.00    +0.000 OA
ENDROOT
BRANCH   1   6
ATOM      3  C   UNL     1       3.468   5.346  18.843  0.00  0.00    +0.000 A 
ATOM      4  C   UNL     1       3.510   6.336  17.859  0.00  0.00    +0.000 A 
ATOM      5  C   UNL     1       4.733   6.798  17.368  0.00  0.00    +0.000 A 
ATOM      6  C   UNL     1       5.934   6.278  17.864  0.00  0.00    +0.000 A 
ATOM      7  C   UNL     1       5.893   5.311  18.875  0.00  0.00    +0.000 A 
ATOM      8  C   UNL     1       4.663   4.845  19.360  0.00  0.00    +0.000 A 
BRANCH   3  10
ATOM      9  C   UNL     1       1.861   5.334  20.580  0.00  0.00    +0.000 C 
ATOM     10  O   UNL     1       2.214   4.982  19.248  0.00  0.00    +0.000 OA
ENDBRANCH   3  10
ENDBRANCH   1   6
BRANCH   1  11
ATOM     11  C   UNL     1       7.911   7.881  18.069  0.00  0.00    +0.000 C 
ATOM     12  C   UNL     1       7.947   9.132  17.588  0.00  0.00    +0.000 C 
BRANCH  12  13
ATOM     13  C   UNL     1       8.708  10.169  18.280  0.00  0.00    +0.000 A 
ATOM     14  C   UNL     1       9.258   9.896  19.538  0.00  0.00    +0.000 A 
ATOM     15  C   UNL     1       9.938  10.894  20.242  0.00  0.00    +0.000 A 
ATOM     16  C   UNL     1      10.075  12.175  19.699  0.00  0.00    +0.000 A 
ATOM     17  C   UNL     1      10.786  13.258  20.457  0.00  0.00    +0.000 C 
ATOM     18  C   UNL     1       9.538  12.440  18.433  0.00  0.00    +0.000 A 
ATOM     19  C   UNL     1       8.858  11.444  17.727  0.00  0.00    +0.000 A 
ENDBRANCH  12  13
ENDBRANCH   1  11
TORSDOF 4
ENDMDL
MODEL 2
REMARK VINA RESULT:      -7.2      0.299      1.591
REMARK  Name = 
REMARK  6 active torsions:
REMARK  status: ('A' for Active; 'I' for Inactive)
REMARK    1  A    between atoms: C_1  and  O_2
REMARK    2  A    between atoms: O_2  and  C_3
REMARK    3  A    between atoms: C_6  and  C_7
REMARK    4  A    between atoms: C_7  and  C_9
REMARK    5  A    between atoms: C_10  and  C_11
REMARK    6  A    between atoms: C_14  and  C_15
REMARK                            x       y       z     vdW  Elec       q    Type
REMARK                         _______ _______ _______ _____ _____    ______ ____
ROOT
ATOM      1  C   UNL     1       7.274   7.001  17.271  0.00  0.00    +0.000 C 
ATOM      2  O   UNL     1       7.767   6.592  16.225  0.00  0.00    +0.000 OA
ENDROOT
BRANCH   1   6
ATOM      3  C   UNL     1       3.757   5.125  18.885  0.00  0.00    +0.000 A 
ATOM      4  C   UNL     1       5.034   4.768  19.324  0.00  0.00    +0.000 A 
ATOM      5  C   UNL     1       6.166   5.390  18.793  0.00  0.00    +0.000 A 
ATOM      6  C   UNL     1       6.034   6.374  17.807  0.00  0.00    +0.000 A 
ATOM      7  C   UNL     1       4.755   6.708  17.342  0.00  0.00    +0.000 A 
ATOM      8  C   UNL     1       3.621   6.086  17.883  0.00  0.00    +0.000 A 
BRANCH   3  10
ATOM      9  C   UNL     1       2.073   5.104  20.547  0.00  0.00    +0.000 C 
ATOM     10  O   UNL     1       2.729   4.442  19.473  0.00  0.00    +0.000 OA
ENDBRANCH   3  10
ENDBRANCH   1   6
BRANCH   1  11
ATOM     11  C   UNL     1       7.917   8.078  18.072  0.00  0.00    +0.000 C 
ATOM     12  C   UNL     1       8.015   9.319  17.573  0.00  0.00    +0.000 C 
BRANCH  12  13
ATOM     13  C   UNL     1       8.723  10.360  18.314  0.00  0.00    +0.000 A 
ATOM     14  C   UNL     1       8.856  11.635  17.754  0.00  0.00    +0.000 A 
ATOM     15  C   UNL     1       9.582  12.626  18.420  0.00  0.00    +0.000 A 
ATOM     16  C   UNL     1      10.184  12.355  19.653  0.00  0.00    +0.000 A 
ATOM     17  C   UNL     1      10.982  13.407  20.366  0.00  0.00    +0.000 C 
ATOM     18  C   UNL     1      10.035  11.082  20.218  0.00  0.00    +0.000 A 
ATOM     19  C   UNL     1       9.309  10.090  19.553  0.00  0.00    +0.000 A 
ENDBRANCH  12  13
ENDBRANCH   1  11
TORSDOF 4
ENDMDL
MODEL 3
REMARK VINA RESULT:      -7.2      0.572      1.237
REMARK  Name = 
REMARK  6 active torsions:
REMARK  status: ('A' for Active; 'I' for Inactive)
REMARK    1  A    between atoms: C_1  and  O_2
REMARK    2  A    between atoms: O_2  and  C_3
REMARK    3  A    between atoms: C_6  and  C_7
REMARK    4  A    between atoms: C_7  and  C_9
REMARK    5  A    between atoms: C_10  and  C_11
REMARK    6  A    between atoms: C_14  and  C_15
REMARK                            x       y       z     vdW  Elec       q    Type
REMARK                         _______ _______ _______ _____ _____    ______ ____
ROOT
ATOM      1  C   UNL     1       7.375   6.958  17.275  0.00  0.00    +0.000 C 
ATOM      2  O   UNL     1       7.823   6.573  16.200  0.00  0.00    +0.000 OA
ENDROOT
BRANCH   1   6
ATOM      3  C   UNL     1       3.971   5.006  19.035  0.00  0.00    +0.000 A 
ATOM      4  C   UNL     1       5.268   4.733  19.473  0.00  0.00    +0.000 A 
ATOM      5  C   UNL     1       6.363   5.379  18.894  0.00  0.00    +0.000 A 
ATOM      6  C   UNL     1       6.172   6.303  17.861  0.00  0.00    +0.000 A 
ATOM      7  C   UNL     1       4.874   6.550  17.397  0.00  0.00    +0.000 A 
ATOM      8  C   UNL     1       3.777   5.905  17.986  0.00  0.00    +0.000 A 
BRANCH   3  10
ATOM      9  C   UNL     1       1.680   4.418  19.115  0.00  0.00    +0.000 C 
ATOM     10  O   UNL     1       2.984   4.307  19.672  0.00  0.00    +0.000 OA
ENDBRANCH   3  10
ENDBRANCH   1   6
BRANCH   1  11
ATOM     11  C   UNL     1       8.038   8.034  18.061  0.00  0.00    +0.000 C 
ATOM     12  C   UNL     1       8.010   9.301  17.622  0.00  0.00    +0.000 C 
BRANCH  12  13
ATOM     13  C   UNL     1       8.734  10.348  18.339  0.00  0.00    +0.000 A 
ATOM     14  C   UNL     1       9.282  10.069  19.596  0.00  0.00    +0.000 A 
ATOM     15  C   UNL     1       9.926  11.074  20.324  0.00  0.00    +0.000 A 
ATOM     16  C   UNL     1      10.029  12.369  19.804  0.00  0.00    +0.000 A 
ATOM     17  C   UNL     1      10.701  13.459  20.586  0.00  0.00    +0.000 C 
ATOM     18  C   UNL     1       9.494  12.640  18.538  0.00  0.00    +0.000 A 
ATOM     19  C   UNL     1       8.850  11.636  17.810  0.00  0.00    +0.000 A 
ENDBRANCH  12  13
ENDBRANCH   1  11
TORSDOF 4
ENDMDL
MODEL 4
REMARK VINA RESULT:      -7.2      0.358      1.162
REMARK  Name = 
REMARK  6 active torsions:
REMARK  status: ('A' for Active; 'I' for Inactive)
REMARK    1  A    between atoms: C_1  and  O_2
REMARK    2  A    between atoms: O_2  and  C_3
REMARK    3  A    between atoms: C_6  and  C_7
REMARK    4  A    between atoms: C_7  and  C_9
REMARK    5  A    between atoms: C_10  and  C_11
REMARK    6  A    between atoms: C_14  and  C_15
REMARK                            x       y       z     vdW  Elec       q    Type
REMARK                         _______ _______ _______ _____ _____    ______ ____
ROOT
ATOM      1  C   UNL     1       7.299   6.993  17.314  0.00  0.00    +0.000 C 
ATOM      2  O   UNL     1       7.787   6.604  16.258  0.00  0.00    +0.000 OA
ENDROOT
BRANCH   1   6
ATOM      3  C   UNL     1       3.731   5.137  18.835  0.00  0.00    +0.000 A 
ATOM      4  C   UNL     1       3.672   6.094  17.820  0.00  0.00    +0.000 A 
ATOM      5  C   UNL     1       4.841   6.685  17.334  0.00  0.00    +0.000 A 
ATOM      6  C   UNL     1       6.086   6.328  17.865  0.00  0.00    +0.000 A 
ATOM      7  C   UNL     1       6.141   5.393  18.907  0.00  0.00    +0.000 A 
ATOM      8  C   UNL     1       4.967   4.798  19.387  0.00  0.00    +0.000 A 
BRANCH   3  10
ATOM      9  C   UNL     1       2.379   4.376  20.623  0.00  0.00    +0.000 C 
ATOM     10  O   UNL     1       2.522   4.637  19.232  0.00  0.00    +0.000 OA
ENDBRANCH   3  10
ENDBRANCH   1   6
BRANCH   1  11
ATOM     11  C   UNL     1       7.925   8.082  18.113  0.00  0.00    +0.000 C 
ATOM     12  C   UNL     1       8.023   9.318  17.602  0.00  0.00    +0.000 C 
BRANCH  12  13
ATOM     13  C   UNL     1       8.715  10.371  18.341  0.00  0.00    +0.000 A 
ATOM     14  C   UNL     1       8.763  11.666  17.814  0.00  0.00    +0.000 A 
ATOM     15  C   UNL     1       9.471  12.672  18.477  0.00  0.00    +0.000 A 
ATOM     16  C   UNL     1      10.140  12.396  19.674  0.00  0.00    +0.000 A 
ATOM     17  C   UNL     1      10.920  13.464  20.382  0.00  0.00    +0.000 C 
ATOM     18  C   UNL     1      10.077  11.102  20.207  0.00  0.00    +0.000 A 
ATOM     19  C   UNL     1       9.369  10.095  19.545  0.00  0.00    +0.000 A 
ENDBRANCH  12  13
ENDBRANCH   1  11
TORSDOF 4
ENDMDL
MODEL 5
REMARK VINA RESULT:      -7.0      4.940      6.730
REMARK  Name = 
REMARK  6 active torsions:
REMARK  status: ('A' for Active; 'I' for Inactive)
REMARK    1  A    between atoms: C_1  and  O_2
REMARK    2  A    between atoms: O_2  and  C_3
REMARK    3  A    between atoms: C_6  and  C_7
REMARK    4  A    between atoms: C_7  and  C_9
REMARK    5  A    between atoms: C_10  and  C_11
REMARK    6  A    between atoms: C_14  and  C_15
REMARK                            x       y       z     vdW  Elec       q    Type
REMARK                         _______ _______ _______ _____ _____    ______ ____
ROOT
ATOM      1  C   UNL     1       5.174   4.513  18.725  0.00  0.00    +0.000 C 
ATOM      2  O   UNL     1       5.576   3.645  19.492  0.00  0.00    +0.000 OA
ENDROOT
BRANCH   1   6
ATOM      3  C   UNL     1       6.525   4.556  14.642  0.00  0.00    +0.000 A 
ATOM      4  C   UNL     1       7.316   5.070  15.671  0.00  0.00    +0.000 A 
ATOM      5  C   UNL     1       6.865   5.045  16.993  0.00  0.00    +0.000 A 
ATOM      6  C   UNL     1       5.609   4.510  17.300  0.00  0.00    +0.000 A 
ATOM      7  C   UNL     1       4.801   4.026  16.264  0.00  0.00    +0.000 A 
ATOM      8  C   UNL     1       5.261   4.047  14.939  0.00  0.00    +0.000 A 
BRANCH   3  10
ATOM      9  C   UNL     1       6.578   3.720  12.429  0.00  0.00    +0.000 C 
ATOM     10  O   UNL     1       7.071   4.644  13.392  0.00  0.00    +0.000 OA
ENDBRANCH   3  10
ENDBRANCH   1   6
BRANCH   1  11
ATOM     11  C   UNL     1       4.200   5.551  19.158  0.00  0.00    +0.000 C 
ATOM     12  C   UNL     1       3.520   6.257  18.243  0.00  0.00    +0.000 C 
BRANCH  12  13
ATOM     13  C   UNL     1       2.629   7.339  18.656  0.00  0.00    +0.000 A 
ATOM     14  C   UNL     1       2.322   8.362  17.753  0.00  0.00    +0.000 A 
ATOM     15  C   UNL     1       1.520   9.436  18.150  0.00  0.00    +0.000 A 
ATOM     16  C   UNL     1       1.016   9.500  19.453  0.00  0.00    +0.000 A 
ATOM     17  C   UNL     1       0.171  10.659  19.893  0.00  0.00    +0.000 C 
ATOM     18  C   UNL     1       1.312   8.465  20.350  0.00  0.00    +0.000 A 
ATOM     19  C   UNL     1       2.113   7.391  19.954  0.00  0.00    +0.000 A 
ENDBRANCH  12  13
ENDBRANCH   1  11
TORSDOF 4
ENDMDL
MODEL 6
REMARK VINA RESULT:      -7.0      4.738      6.737
REMARK  Name = 
REMARK  6 active torsions:
REMARK  status: ('A' for Active; 'I' for Inactive)
REMARK    1  A    between atoms: C_1  and  O_2
REMARK    2  A    between atoms: O_2  and  C_3
REMARK    3  A    between atoms: C_6  and  C_7
REMARK    4  A    between atoms: C_7  and  C_9
REMARK    5  A    between atoms: C_10  and  C_11
REMARK    6  A    between atoms: C_14  and  C_15
REMARK                            x       y       z     vdW  Elec       q    Type
REMARK                         _______ _______ _______ _____ _____    ______ ____
ROOT
ATOM      1  C   UNL     1       4.079   4.279  19.284  0.00  0.00    +0.000 C 
ATOM      2  O   UNL     1       4.019   3.231  19.919  0.00  0.00    +0.000 OA
ENDROOT
BRANCH   1   6
ATOM      3  C   UNL     1       6.764   4.643  15.945  0.00  0.00    +0.000 A 
ATOM      4  C   UNL     1       7.127   5.089  17.218  0.00  0.00    +0.000 A 
ATOM      5  C   UNL     1       6.245   4.960  18.294  0.00  0.00    +0.000 A 
ATOM      6  C   UNL     1       4.982   4.388  18.105  0.00  0.00    +0.000 A 
ATOM      7  C   UNL     1       4.605   3.972  16.822  0.00  0.00    +0.000 A 
ATOM      8  C   UNL     1       5.496   4.097  15.747  0.00  0.00    +0.000 A 
BRANCH   3  10
ATOM      9  C   UNL     1       7.237   4.801  13.632  0.00  0.00    +0.000 C 
ATOM     10  O   UNL     1       7.708   4.830  14.974  0.00  0.00    +0.000 OA
ENDBRANCH   3  10
ENDBRANCH   1   6
BRANCH   1  11
ATOM     11  C   UNL     1       3.217   5.447  19.617  0.00  0.00    +0.000 C 
ATOM     12  C   UNL     1       3.020   6.416  18.711  0.00  0.00    +0.000 C 
BRANCH  12  13
ATOM     13  C   UNL     1       2.250   7.607  19.059  0.00  0.00    +0.000 A 
ATOM     14  C   UNL     1       1.745   7.747  20.356  0.00  0.00    +0.000 A 
ATOM     15  C   UNL     1       0.955   8.850  20.691  0.00  0.00    +0.000 A 
ATOM     16  C   UNL     1       0.661   9.827  19.733  0.00  0.00    +0.000 A 
ATOM     17  C   UNL     1      -0.202  11.004  20.078  0.00  0.00    +0.000 C 
ATOM     18  C   UNL     1       1.182   9.692  18.440  0.00  0.00    +0.000 A 
ATOM     19  C   UNL     1       1.972   8.589  18.104  0.00  0.00    +0.000 A 
ENDBRANCH  12  13
ENDBRANCH   1  11
TORSDOF 4
ENDMDL
MODEL 7
REMARK VINA RESULT:      -7.0      4.808      6.761
REMARK  Name = 
REMARK  6 active torsions:
REMARK  status: ('A' for Active; 'I' for Inactive)
REMARK    1  A    between atoms: C_1  and  O_2
REMARK    2  A    between atoms: O_2  and  C_3
REMARK    3  A    between atoms: C_6  and  C_7
REMARK    4  A    between atoms: C_7  and  C_9
REMARK    5  A    between atoms: C_10  and  C_11
REMARK    6  A    between atoms: C_14  and  C_15
REMARK                            x       y       z     vdW  Elec       q    Type
REMARK                         _______ _______ _______ _____ _____    ______ ____
ROOT
ATOM      1  C   UNL     1       4.062   3.973  18.565  0.00  0.00    +0.000 C 
ATOM      2  O   UNL     1       3.835   2.799  18.840  0.00  0.00    +0.000 OA
ENDROOT
BRANCH   1   6
ATOM      3  C   UNL     1       6.985   4.934  15.560  0.00  0.00    +0.000 A 
ATOM      4  C   UNL     1       5.706   4.495  15.212  0.00  0.00    +0.000 A 
ATOM      5  C   UNL     1       4.766   4.191  16.200  0.00  0.00    +0.000 A 
ATOM      6  C   UNL     1       5.100   4.316  17.553  0.00  0.00    +0.000 A 
ATOM      7  C   UNL     1       6.393   4.723  17.903  0.00  0.00    +0.000 A 
ATOM      8  C   UNL     1       7.331   5.034  16.908  0.00  0.00    +0.000 A 
BRANCH   3  10
ATOM      9  C   UNL     1       7.333   4.818  13.223  0.00  0.00    +0.000 C 
ATOM     10  O   UNL     1       7.817   5.193  14.507  0.00  0.00    +0.000 OA
ENDBRANCH   3  10
ENDBRANCH   1   6
BRANCH   1  11
ATOM     11  C   UNL     1       3.279   5.085  19.170  0.00  0.00    +0.000 C 
ATOM     12  C   UNL     1       2.975   6.167  18.439  0.00  0.00    +0.000 C 
BRANCH  12  13
ATOM     13  C   UNL     1       2.285   7.301  19.049  0.00  0.00    +0.000 A 
ATOM     14  C   UNL     1       1.878   7.223  20.385  0.00  0.00    +0.000 A 
ATOM     15  C   UNL     1       1.164   8.273  20.968  0.00  0.00    +0.000 A 
ATOM     16  C   UNL     1       0.848   9.414  20.223  0.00  0.00    +0.000 A 
ATOM     17  C   UNL     1       0.064  10.537  20.835  0.00  0.00    +0.000 C 
ATOM     18  C   UNL     1       1.271   9.496  18.890  0.00  0.00    +0.000 A 
ATOM     19  C   UNL     1       1.986   8.447  18.306  0.00  0.00    +0.000 A 
ENDBRANCH  12  13
ENDBRANCH   1  11
TORSDOF 4
ENDMDL
MODEL 8
REMARK VINA RESULT:      -6.9      4.876      6.887
REMARK  Name = 
REMARK  6 active torsions:
REMARK  status: ('A' for Active; 'I' for Inactive)
REMARK    1  A    between atoms: C_1  and  O_2
REMARK    2  A    between atoms: O_2  and  C_3
REMARK    3  A    between atoms: C_6  and  C_7
REMARK    4  A    between atoms: C_7  and  C_9
REMARK    5  A    between atoms: C_10  and  C_11
REMARK    6  A    between atoms: C_14  and  C_15
REMARK                            x       y       z     vdW  Elec       q    Type
REMARK                         _______ _______ _______ _____ _____    ______ ____
ROOT
ATOM      1  C   UNL     1       3.329   4.288  19.462  0.00  0.00    +0.000 C 
ATOM      2  O   UNL     1       3.150   3.256  20.102  0.00  0.00    +0.000 OA
ENDROOT
BRANCH   1   6
ATOM      3  C   UNL     1       6.561   4.546  16.638  0.00  0.00    +0.000 A 
ATOM      4  C   UNL     1       5.284   4.145  16.241  0.00  0.00    +0.000 A 
ATOM      5  C   UNL     1       4.243   4.070  17.170  0.00  0.00    +0.000 A 
ATOM      6  C   UNL     1       4.472   4.390  18.513  0.00  0.00    +0.000 A 
ATOM      7  C   UNL     1       5.761   4.759  18.917  0.00  0.00    +0.000 A 
ATOM      8  C   UNL     1       6.800   4.840  17.980  0.00  0.00    +0.000 A 
BRANCH   3  10
ATOM      9  C   UNL     1       7.018   4.909  14.344  0.00  0.00    +0.000 C 
ATOM     10  O   UNL     1       7.496   4.574  15.641  0.00  0.00    +0.000 OA
ENDBRANCH   3  10
ENDBRANCH   1   6
BRANCH   1  11
ATOM     11  C   UNL     1       2.390   5.439  19.555  0.00  0.00    +0.000 C 
ATOM     12  C   UNL     1       2.849   6.692  19.426  0.00  0.00    +0.000 C 
BRANCH  12  13
ATOM     13  C   UNL     1       1.951   7.830  19.604  0.00  0.00    +0.000 A 
ATOM     14  C   UNL     1       1.736   8.712  18.539  0.00  0.00    +0.000 A 
ATOM     15  C   UNL     1       0.928   9.839  18.708  0.00  0.00    +0.000 A 
ATOM     16  C   UNL     1       0.326  10.100  19.944  0.00  0.00    +0.000 A 
ATOM     17  C   UNL     1      -0.527  11.319  20.141  0.00  0.00    +0.000 C 
ATOM     18  C   UNL     1       0.530   9.206  21.003  0.00  0.00    +0.000 A 
ATOM     19  C   UNL     1       1.337   8.078  20.835  0.00  0.00    +0.000 A 
ENDBRANCH  12  13
ENDBRANCH   1  11
TORSDOF 4
ENDMDL
MODEL 9
REMARK VINA RESULT:      -6.8      2.600      3.593
REMARK  Name = 
REMARK  6 active torsions:
REMARK  status: ('A' for Active; 'I' for Inactive)
REMARK    1  A    between atoms: C_1  and  O_2
REMARK    2  A    between atoms: O_2  and  C_3
REMARK    3  A    between atoms: C_6  and  C_7
REMARK    4  A    between atoms: C_7  and  C_9
REMARK    5  A    between atoms: C_10  and  C_11
REMARK    6  A    between atoms: C_14  and  C_15
REMARK                            x       y       z     vdW  Elec       q    Type
REMARK                         _______ _______ _______ _____ _____    ______ ____
ROOT
ATOM      1  C   UNL     1       7.687   6.822  18.098  0.00  0.00    +0.000 C 
ATOM      2  O   UNL     1       8.003   6.189  19.100  0.00  0.00    +0.000 OA
ENDROOT
BRANCH   1   6
ATOM      3  C   UNL     1       5.702   4.783  14.874  0.00  0.00    +0.000 A 
ATOM      4  C   UNL     1       6.847   4.252  15.469  0.00  0.00    +0.000 A 
ATOM      5  C   UNL     1       7.479   4.925  16.519  0.00  0.00    +0.000 A 
ATOM      6  C   UNL     1       6.972   6.145  16.981  0.00  0.00    +0.000 A 
ATOM      7  C   UNL     1       5.843   6.694  16.361  0.00  0.00    +0.000 A 
ATOM      8  C   UNL     1       5.209   6.013  15.313  0.00  0.00    +0.000 A 
BRANCH   3  10
ATOM      9  C   UNL     1       6.106   3.584  12.875  0.00  0.00    +0.000 C 
ATOM     10  O   UNL     1       5.180   4.039  13.853  0.00  0.00    +0.000 OA
ENDBRANCH   3  10
ENDBRANCH   1   6
BRANCH   1  11
ATOM     11  C   UNL     1       7.940   8.284  17.984  0.00  0.00    +0.000 C 
ATOM     12  C   UNL     1       8.847   8.873  18.777  0.00  0.00    +0.000 C 
BRANCH  12  13
ATOM     13  C   UNL     1       9.037  10.321  18.734  0.00  0.00    +0.000 A 
ATOM     14  C   UNL     1       8.425  11.067  17.722  0.00  0.00    +0.000 A 
ATOM     15  C   UNL     1       8.644  12.444  17.629  0.00  0.00    +0.000 A 
ATOM     16  C   UNL     1       9.478  13.091  18.546  0.00  0.00    +0.000 A 
ATOM     17  C   UNL     1       9.735  14.566  18.442  0.00  0.00    +0.000 C 
ATOM     18  C   UNL     1      10.077  12.344  19.568  0.00  0.00    +0.000 A 
ATOM     19  C   UNL     1       9.859  10.967  19.663  0.00  0.00    +0.000 A 
ENDBRANCH  12  13
ENDBRANCH   1  11
TORSDOF 4
ENDMDL
