MODEL 1
REMARK VINA RESULT:      -7.7      0.000      0.000
REMARK  Name = 
REMARK  6 active torsions:
REMARK  status: ('A' for Active; 'I' for Inactive)
REMARK    1  A    between atoms: C_2  and  O_3
REMARK    2  A    between atoms: C_2  and  C_4
REMARK    3  A    between atoms: C_9  and  C_10
REMARK    4  A    between atoms: C_16  and  C_17
REMARK    5  A    between atoms: N_25  and  C_26
REMARK    6  A    between atoms: C_26  and  C_27
REMARK                            x       y       z     vdW  Elec       q    Type
REMARK                         _______ _______ _______ _____ _____    ______ ____
ROOT
ATOM      1  C   UNL     1      -4.696  12.668  20.359  0.00  0.00    +0.000 A 
ATOM      2  C   UNL     1      -5.246  13.927  20.149  0.00  0.00    +0.000 A 
ATOM      3  C   UNL     1      -4.435  15.007  20.512  0.00  0.00    +0.000 A 
ATOM      4  C   UNL     1      -3.140  14.783  21.080  0.00  0.00    +0.000 A 
ATOM      5  C   UNL     1      -2.857  13.443  21.498  0.00  0.00    +0.000 A 
ATOM      6  C   UNL     1      -4.009  12.657  21.631  0.00  0.00    +0.000 A 
ATOM      7  C   UNL     1      -4.181  13.016  23.130  0.00  0.00    +0.000 A 
ATOM      8  C   UNL     1      -2.952  12.475  23.530  0.00  0.00    +0.000 A 
ATOM      9  N   UNL     1      -2.075  12.777  22.458  0.00  0.00    +0.000 N 
ENDROOT
BRANCH   7  10
ATOM     10  C   UNL     1      -4.368  14.285  24.027  0.00  0.00    +0.000 A 
ATOM     11  C   UNL     1      -3.307  14.785  24.792  0.00  0.00    +0.000 A 
ATOM     12  C   UNL     1      -3.313  16.117  25.294  0.00  0.00    +0.000 A 
ATOM     13  C   UNL     1      -4.381  16.988  25.032  0.00  0.00    +0.000 A 
ATOM     14  C   UNL     1      -5.448  16.520  24.280  0.00  0.00    +0.000 A 
ATOM     15 CL   UNL     1      -6.731  17.584  23.852  0.00  0.00    +0.000 Cl
ATOM     16  C   UNL     1      -5.439  15.199  23.801  0.00  0.00    +0.000 A 
ENDBRANCH   7  10
BRANCH   1  22
ATOM     17  C   UNL     1      -4.794  11.415  17.975  0.00  0.00    +0.000 A 
ATOM     18  C   UNL     1      -4.124  10.952  16.798  0.00  0.00    +0.000 A 
ATOM     19  C   UNL     1      -2.750  11.008  16.669  0.00  0.00    +0.000 A 
ATOM     20  C   UNL     1      -2.015  11.516  17.729  0.00  0.00    +0.000 A 
ATOM     21  C   UNL     1      -2.675  11.978  18.890  0.00  0.00    +0.000 A 
ATOM     22  C   UNL     1      -4.096  11.987  19.066  0.00  0.00    +0.000 A 
BRANCH  17  24
ATOM     23  O   UNL     1      -6.871  10.435  18.604  0.00  0.00    +0.000 OA
ATOM     24  C   UNL     1      -6.263  11.221  17.895  0.00  0.00    +0.000 C 
BRANCH  24  25
ATOM     25  O   UNL     1      -6.878  12.146  17.136  0.00  0.00    +0.000 OA
ATOM     26  H   UNL     1      -7.390  12.780  17.664  0.00  0.00    +0.000 HD
ENDBRANCH  24  25
ENDBRANCH  17  24
ENDBRANCH   1  22
BRANCH   9  27
ATOM     27  C   UNL     1      -1.058  11.758  22.143  0.00  0.00    +0.000 C 
BRANCH  27  28
ATOM     28  C   UNL     1       0.064  12.315  21.303  0.00  0.00    +0.000 A 
ATOM     29  C   UNL     1       0.452  13.649  21.486  0.00  0.00    +0.000 A 
ATOM     30  C   UNL     1       1.440  14.225  20.688  0.00  0.00    +0.000 A 
ATOM     31  C   UNL     1       1.999  13.488  19.651  0.00  0.00    +0.000 A 
ATOM     32  C   UNL     1       1.591  12.165  19.418  0.00  0.00    +0.000 A 
ATOM     33  C   UNL     1       2.072  11.460  18.303  0.00  0.00    +0.000 A 
ATOM     34  C   UNL     1       1.698  10.134  18.074  0.00  0.00    +0.000 A 
ATOM     35  C   UNL     1       0.903   9.476  18.996  0.00  0.00    +0.000 A 
ATOM     36  C   UNL     1       0.391  10.166  20.096  0.00  0.00    +0.000 A 
ATOM     37  C   UNL     1       0.673  11.531  20.287  0.00  0.00    +0.000 A 
ENDBRANCH  27  28
ENDBRANCH   9  27
TORSDOF 6
ENDMDL
MODEL 2
REMARK VINA RESULT:      -7.4      3.782      7.691
REMARK  Name = 
REMARK  6 active torsions:
REMARK  status: ('A' for Active; 'I' for Inactive)
REMARK    1  A    between atoms: C_2  and  O_3
REMARK    2  A    between atoms: C_2  and  C_4
REMARK    3  A    between atoms: C_9  and  C_10
REMARK    4  A    between atoms: C_16  and  C_17
REMARK    5  A    between atoms: N_25  and  C_26
REMARK    6  A    between atoms: C_26  and  C_27
REMARK                            x       y       z     vdW  Elec       q    Type
REMARK                         _______ _______ _______ _____ _____    ______ ____
ROOT
ATOM      1  C   UNL     1      -0.798  10.284  20.408  0.00  0.00    +0.000 A 
ATOM      2  C   UNL     1      -0.502   9.351  21.395  0.00  0.00    +0.000 A 
ATOM      3  C   UNL     1       0.831   9.321  21.816  0.00  0.00    +0.000 A 
ATOM      4  C   UNL     1       1.798  10.196  21.225  0.00  0.00    +0.000 A 
ATOM      5  C   UNL     1       1.392  10.872  20.030  0.00  0.00    +0.000 A 
ATOM      6  C   UNL     1       0.267  10.292  19.430  0.00  0.00    +0.000 A 
ATOM      7  C   UNL     1       1.124   9.364  18.530  0.00  0.00    +0.000 A 
ATOM      8  C   UNL     1       1.777  10.407  17.860  0.00  0.00    +0.000 A 
ATOM      9  N   UNL     1       1.969  11.393  18.860  0.00  0.00    +0.000 N 
ENDROOT
BRANCH   7  10
ATOM     10  C   UNL     1       2.209   8.246  18.681  0.00  0.00    +0.000 A 
ATOM     11  C   UNL     1       2.027   7.187  19.579  0.00  0.00    +0.000 A 
ATOM     12  C   UNL     1       2.772   5.979  19.468  0.00  0.00    +0.000 A 
ATOM     13  C   UNL     1       3.713   5.797  18.443  0.00  0.00    +0.000 A 
ATOM     14  C   UNL     1       3.918   6.830  17.542  0.00  0.00    +0.000 A 
ATOM     15 CL   UNL     1       4.990   6.612  16.213  0.00  0.00    +0.000 Cl
ATOM     16  C   UNL     1       3.188   8.024  17.668  0.00  0.00    +0.000 A 
ENDBRANCH   7  10
BRANCH   1  22
ATOM     17  C   UNL     1      -2.510  12.364  20.333  0.00  0.00    +0.000 A 
ATOM     18  C   UNL     1      -3.127  13.476  20.989  0.00  0.00    +0.000 A 
ATOM     19  C   UNL     1      -2.725  13.901  22.241  0.00  0.00    +0.000 A 
ATOM     20  C   UNL     1      -1.681  13.226  22.856  0.00  0.00    +0.000 A 
ATOM     21  C   UNL     1      -1.075  12.125  22.211  0.00  0.00    +0.000 A 
ATOM     22  C   UNL     1      -1.473  11.610  20.936  0.00  0.00    +0.000 A 
BRANCH  17  24
ATOM     23  O   UNL     1      -4.268  11.873  18.804  0.00  0.00    +0.000 OA
ATOM     24  C   UNL     1      -3.086  12.119  18.988  0.00  0.00    +0.000 C 
BRANCH  24  25
ATOM     25  O   UNL     1      -2.237  12.412  17.987  0.00  0.00    +0.000 OA
ATOM     26  H   UNL     1      -2.125  11.673  17.367  0.00  0.00    +0.000 HD
ENDBRANCH  24  25
ENDBRANCH  17  24
ENDBRANCH   1  22
BRANCH   9  27
ATOM     27  C   UNL     1       1.847  12.795  18.421  0.00  0.00    +0.000 C 
BRANCH  27  28
ATOM     28  C   UNL     1       1.965  13.763  19.572  0.00  0.00    +0.000 A 
ATOM     29  C   UNL     1       3.026  13.618  20.476  0.00  0.00    +0.000 A 
ATOM     30  C   UNL     1       3.139  14.449  21.590  0.00  0.00    +0.000 A 
ATOM     31  C   UNL     1       2.147  15.389  21.848  0.00  0.00    +0.000 A 
ATOM     32  C   UNL     1       1.050  15.519  20.983  0.00  0.00    +0.000 A 
ATOM     33  C   UNL     1      -0.007  16.387  21.302  0.00  0.00    +0.000 A 
ATOM     34  C   UNL     1      -1.091  16.549  20.438  0.00  0.00    +0.000 A 
ATOM     35  C   UNL     1      -1.095  15.906  19.213  0.00  0.00    +0.000 A 
ATOM     36  C   UNL     1      -0.070  15.017  18.888  0.00  0.00    +0.000 A 
ATOM     37  C   UNL     1       0.978  14.762  19.790  0.00  0.00    +0.000 A 
ENDBRANCH  27  28
ENDBRANCH   9  27
TORSDOF 6
ENDMDL
MODEL 3
REMARK VINA RESULT:      -7.4      3.881      7.858
REMARK  Name = 
REMARK  6 active torsions:
REMARK  status: ('A' for Active; 'I' for Inactive)
REMARK    1  A    between atoms: C_2  and  O_3
REMARK    2  A    between atoms: C_2  and  C_4
REMARK    3  A    between atoms: C_9  and  C_10
REMARK    4  A    between atoms: C_16  and  C_17
REMARK    5  A    between atoms: N_25  and  C_26
REMARK    6  A    between atoms: C_26  and  C_27
REMARK                            x       y       z     vdW  Elec       q    Type
REMARK                         _______ _______ _______ _____ _____    ______ ____
ROOT
ATOM      1  C   UNL     1       0.063  14.231  20.444  0.00  0.00    +0.000 A 
ATOM      2  C   UNL     1       0.170  14.125  19.062  0.00  0.00    +0.000 A 
ATOM      3  C   UNL     1      -0.663  13.175  18.463  0.00  0.00    +0.000 A 
ATOM      4  C   UNL     1      -1.536  12.370  19.262  0.00  0.00    +0.000 A 
ATOM      5  C   UNL     1      -1.305  12.398  20.675  0.00  0.00    +0.000 A 
ATOM      6  C   UNL     1      -0.044  12.906  21.013  0.00  0.00    +0.000 A 
ATOM      7  C   UNL     1       0.615  11.502  21.003  0.00  0.00    +0.000 A 
ATOM      8  C   UNL     1      -0.190  10.979  22.024  0.00  0.00    +0.000 A 
ATOM      9  N   UNL     1      -1.463  11.559  21.791  0.00  0.00    +0.000 N 
ENDROOT
BRANCH   7  10
ATOM     10  C   UNL     1       0.835  10.307  20.017  0.00  0.00    +0.000 A 
ATOM     11  C   UNL     1       1.280  10.531  18.708  0.00  0.00    +0.000 A 
ATOM     12  C   UNL     1       1.856   9.488  17.928  0.00  0.00    +0.000 A 
ATOM     13  C   UNL     1       2.010   8.194  18.446  0.00  0.00    +0.000 A 
ATOM     14  C   UNL     1       1.575   7.941  19.738  0.00  0.00    +0.000 A 
ATOM     15 CL   UNL     1       1.835   6.394  20.447  0.00  0.00    +0.000 Cl
ATOM     16  C   UNL     1       0.995   8.973  20.495  0.00  0.00    +0.000 A 
ENDBRANCH   7  10
BRANCH   1  22
ATOM     17  C   UNL     1      -0.608  16.268  22.077  0.00  0.00    +0.000 A 
ATOM     18  C   UNL     1      -1.411  17.422  22.341  0.00  0.00    +0.000 A 
ATOM     19  C   UNL     1      -2.464  17.782  21.523  0.00  0.00    +0.000 A 
ATOM     20  C   UNL     1      -2.744  16.979  20.427  0.00  0.00    +0.000 A 
ATOM     21  C   UNL     1      -1.948  15.843  20.162  0.00  0.00    +0.000 A 
ATOM     22  C   UNL     1      -0.819  15.442  20.946  0.00  0.00    +0.000 A 
BRANCH  17  24
ATOM     23  O   UNL     1       0.192  16.006  24.304  0.00  0.00    +0.000 OA
ATOM     24  C   UNL     1       0.438  16.066  23.110  0.00  0.00    +0.000 C 
BRANCH  24  25
ATOM     25  O   UNL     1       1.635  15.735  22.594  0.00  0.00    +0.000 OA
ATOM     26  H   UNL     1       2.131  15.128  23.168  0.00  0.00    +0.000 HD
ENDBRANCH  24  25
ENDBRANCH  17  24
ENDBRANCH   1  22
BRANCH   9  27
ATOM     27  C   UNL     1      -2.249  11.902  22.989  0.00  0.00    +0.000 C 
BRANCH  27  28
ATOM     28  C   UNL     1      -3.376  12.854  22.677  0.00  0.00    +0.000 A 
ATOM     29  C   UNL     1      -4.166  12.623  21.542  0.00  0.00    +0.000 A 
ATOM     30  C   UNL     1      -5.177  13.511  21.178  0.00  0.00    +0.000 A 
ATOM     31  C   UNL     1      -5.360  14.679  21.909  0.00  0.00    +0.000 A 
ATOM     32  C   UNL     1      -4.548  14.957  23.020  0.00  0.00    +0.000 A 
ATOM     33  C   UNL     1      -4.657  16.186  23.689  0.00  0.00    +0.000 A 
ATOM     34  C   UNL     1      -3.877  16.465  24.813  0.00  0.00    +0.000 A 
ATOM     35  C   UNL     1      -3.039  15.491  25.326  0.00  0.00    +0.000 A 
ATOM     36  C   UNL     1      -2.895  14.272  24.661  0.00  0.00    +0.000 A 
ATOM     37  C   UNL     1      -3.595  14.014  23.468  0.00  0.00    +0.000 A 
ENDBRANCH  27  28
ENDBRANCH   9  27
TORSDOF 6
ENDMDL
MODEL 4
REMARK VINA RESULT:      -7.1      3.793      7.721
REMARK  Name = 
REMARK  6 active torsions:
REMARK  status: ('A' for Active; 'I' for Inactive)
REMARK    1  A    between atoms: C_2  and  O_3
REMARK    2  A    between atoms: C_2  and  C_4
REMARK    3  A    between atoms: C_9  and  C_10
REMARK    4  A    between atoms: C_16  and  C_17
REMARK    5  A    between atoms: N_25  and  C_26
REMARK    6  A    between atoms: C_26  and  C_27
REMARK                            x       y       z     vdW  Elec       q    Type
REMARK                         _______ _______ _______ _____ _____    ______ ____
ROOT
ATOM      1  C   UNL     1      -0.804  10.030  20.639  0.00  0.00    +0.000 A 
ATOM      2  C   UNL     1      -0.327   9.204  21.651  0.00  0.00    +0.000 A 
ATOM      3  C   UNL     1       1.036   9.324  21.935  0.00  0.00    +0.000 A 
ATOM      4  C   UNL     1       1.854  10.235  21.193  0.00  0.00    +0.000 A 
ATOM      5  C   UNL     1       1.273  10.781  20.003  0.00  0.00    +0.000 A 
ATOM      6  C   UNL     1       0.157  10.059  19.560  0.00  0.00    +0.000 A 
ATOM      7  C   UNL     1       1.009   9.146  18.641  0.00  0.00    +0.000 A 
ATOM      8  C   UNL     1       1.493  10.190  17.840  0.00  0.00    +0.000 A 
ATOM      9  N   UNL     1       1.684  11.262  18.748  0.00  0.00    +0.000 N 
ENDROOT
BRANCH   7  10
ATOM     10  C   UNL     1       2.206   8.144  18.754  0.00  0.00    +0.000 A 
ATOM     11  C   UNL     1       2.178   7.096  19.683  0.00  0.00    +0.000 A 
ATOM     12  C   UNL     1       3.032   5.963  19.555  0.00  0.00    +0.000 A 
ATOM     13  C   UNL     1       3.929   5.848  18.483  0.00  0.00    +0.000 A 
ATOM     14  C   UNL     1       3.983   6.872  17.550  0.00  0.00    +0.000 A 
ATOM     15 CL   UNL     1       4.998   6.725  16.168  0.00  0.00    +0.000 Cl
ATOM     16  C   UNL     1       3.147   7.992  17.693  0.00  0.00    +0.000 A 
ENDBRANCH   7  10
BRANCH   1  22
ATOM     17  C   UNL     1      -2.446  12.157  20.427  0.00  0.00    +0.000 A 
ATOM     18  C   UNL     1      -3.161  13.228  21.050  0.00  0.00    +0.000 A 
ATOM     19  C   UNL     1      -2.996  13.538  22.386  0.00  0.00    +0.000 A 
ATOM     20  C   UNL     1      -2.094  12.786  23.124  0.00  0.00    +0.000 A 
ATOM     21  C   UNL     1      -1.391  11.725  22.512  0.00  0.00    +0.000 A 
ATOM     22  C   UNL     1      -1.550  11.328  21.145  0.00  0.00    +0.000 A 
BRANCH  17  24
ATOM     23  O   UNL     1      -3.807  11.561  18.566  0.00  0.00    +0.000 OA
ATOM     24  C   UNL     1      -2.763  12.039  18.982  0.00  0.00    +0.000 C 
BRANCH  24  25
ATOM     25  O   UNL     1      -1.900  12.706  18.195  0.00  0.00    +0.000 OA
ATOM     26  H   UNL     1      -2.338  13.388  17.659  0.00  0.00    +0.000 HD
ENDBRANCH  24  25
ENDBRANCH  17  24
ENDBRANCH   1  22
BRANCH   9  27
ATOM     27  C   UNL     1       1.386  12.610  18.233  0.00  0.00    +0.000 C 
BRANCH  27  28
ATOM     28  C   UNL     1       2.304  13.657  18.815  0.00  0.00    +0.000 A 
ATOM     29  C   UNL     1       3.580  13.826  18.261  0.00  0.00    +0.000 A 
ATOM     30  C   UNL     1       4.485  14.735  18.807  0.00  0.00    +0.000 A 
ATOM     31  C   UNL     1       4.144  15.433  19.960  0.00  0.00    +0.000 A 
ATOM     32  C   UNL     1       2.890  15.244  20.561  0.00  0.00    +0.000 A 
ATOM     33  C   UNL     1       2.589  15.862  21.786  0.00  0.00    +0.000 A 
ATOM     34  C   UNL     1       1.336  15.705  22.381  0.00  0.00    +0.000 A 
ATOM     35  C   UNL     1       0.347  14.996  21.724  0.00  0.00    +0.000 A 
ATOM     36  C   UNL     1       0.633  14.350  20.520  0.00  0.00    +0.000 A 
ATOM     37  C   UNL     1       1.920  14.410  19.957  0.00  0.00    +0.000 A 
ENDBRANCH  27  28
ENDBRANCH   9  27
TORSDOF 6
ENDMDL
MODEL 5
REMARK VINA RESULT:      -7.1      2.929      7.087
REMARK  Name = 
REMARK  6 active torsions:
REMARK  status: ('A' for Active; 'I' for Inactive)
REMARK    1  A    between atoms: C_2  and  O_3
REMARK    2  A    between atoms: C_2  and  C_4
REMARK    3  A    between atoms: C_9  and  C_10
REMARK    4  A    between atoms: C_16  and  C_17
REMARK    5  A    between atoms: N_25  and  C_26
REMARK    6  A    between atoms: C_26  and  C_27
REMARK                            x       y       z     vdW  Elec       q    Type
REMARK                         _______ _______ _______ _____ _____    ______ ____
ROOT
ATOM      1  C   UNL     1      -2.350  12.701  20.877  0.00  0.00    +0.000 A 
ATOM      2  C   UNL     1      -1.401  11.785  21.316  0.00  0.00    +0.000 A 
ATOM      3  C   UNL     1      -0.292  12.332  21.969  0.00  0.00    +0.000 A 
ATOM      4  C   UNL     1      -0.174  13.749  22.134  0.00  0.00    +0.000 A 
ATOM      5  C   UNL     1      -1.080  14.552  21.369  0.00  0.00    +0.000 A 
ATOM      6  C   UNL     1      -1.676  13.849  20.314  0.00  0.00    +0.000 A 
ATOM      7  C   UNL     1      -0.571  14.260  19.307  0.00  0.00    +0.000 A 
ATOM      8  C   UNL     1      -0.810  15.637  19.413  0.00  0.00    +0.000 A 
ATOM      9  N   UNL     1      -1.127  15.828  20.782  0.00  0.00    +0.000 N 
ENDROOT
BRANCH   7  10
ATOM     10  C   UNL     1       0.981  14.137  19.141  0.00  0.00    +0.000 A 
ATOM     11  C   UNL     1       1.568  12.920  18.772  0.00  0.00    +0.000 A 
ATOM     12  C   UNL     1       2.887  12.860  18.239  0.00  0.00    +0.000 A 
ATOM     13  C   UNL     1       3.648  14.023  18.050  0.00  0.00    +0.000 A 
ATOM     14  C   UNL     1       3.095  15.242  18.410  0.00  0.00    +0.000 A 
ATOM     15 CL   UNL     1       3.955  16.701  18.104  0.00  0.00    +0.000 Cl
ATOM     16  C   UNL     1       1.798  15.290  18.949  0.00  0.00    +0.000 A 
ENDBRANCH   7  10
BRANCH   1  22
ATOM     17  C   UNL     1      -4.974  12.971  21.433  0.00  0.00    +0.000 A 
ATOM     18  C   UNL     1      -6.040  12.946  22.386  0.00  0.00    +0.000 A 
ATOM     19  C   UNL     1      -5.806  12.820  23.741  0.00  0.00    +0.000 A 
ATOM     20  C   UNL     1      -4.490  12.732  24.171  0.00  0.00    +0.000 A 
ATOM     21  C   UNL     1      -3.437  12.752  23.231  0.00  0.00    +0.000 A 
ATOM     22  C   UNL     1      -3.616  12.837  21.812  0.00  0.00    +0.000 A 
BRANCH  17  24
ATOM     23  O   UNL     1      -6.206  12.346  19.493  0.00  0.00    +0.000 OA
ATOM     24  C   UNL     1      -5.469  13.149  20.045  0.00  0.00    +0.000 C 
BRANCH  24  25
ATOM     25  O   UNL     1      -5.215  14.371  19.544  0.00  0.00    +0.000 OA
ATOM     26  H   UNL     1      -4.415  14.769  19.926  0.00  0.00    +0.000 HD
ENDBRANCH  24  25
ENDBRANCH  17  24
ENDBRANCH   1  22
BRANCH   9  27
ATOM     27  C   UNL     1      -2.153  16.844  21.075  0.00  0.00    +0.000 C 
BRANCH  27  28
ATOM     28  C   UNL     1      -2.699  16.714  22.475  0.00  0.00    +0.000 A 
ATOM     29  C   UNL     1      -1.806  16.514  23.537  0.00  0.00    +0.000 A 
ATOM     30  C   UNL     1      -2.270  16.324  24.838  0.00  0.00    +0.000 A 
ATOM     31  C   UNL     1      -3.638  16.260  25.076  0.00  0.00    +0.000 A 
ATOM     32  C   UNL     1      -4.551  16.407  24.020  0.00  0.00    +0.000 A 
ATOM     33  C   UNL     1      -5.927  16.230  24.240  0.00  0.00    +0.000 A 
ATOM     34  C   UNL     1      -6.849  16.402  23.206  0.00  0.00    +0.000 A 
ATOM     35  C   UNL     1      -6.415  16.827  21.963  0.00  0.00    +0.000 A 
ATOM     36  C   UNL     1      -5.051  16.982  21.714  0.00  0.00    +0.000 A 
ATOM     37  C   UNL     1      -4.100  16.713  22.715  0.00  0.00    +0.000 A 
ENDBRANCH  27  28
ENDBRANCH   9  27
TORSDOF 6
ENDMDL
MODEL 6
REMARK VINA RESULT:      -7.1      3.911      7.760
REMARK  Name = 
REMARK  6 active torsions:
REMARK  status: ('A' for Active; 'I' for Inactive)
REMARK    1  A    between atoms: C_2  and  O_3
REMARK    2  A    between atoms: C_2  and  C_4
REMARK    3  A    between atoms: C_9  and  C_10
REMARK    4  A    between atoms: C_16  and  C_17
REMARK    5  A    between atoms: N_25  and  C_26
REMARK    6  A    between atoms: C_26  and  C_27
REMARK                            x       y       z     vdW  Elec       q    Type
REMARK                         _______ _______ _______ _____ _____    ______ ____
ROOT
ATOM      1  C   UNL     1      -0.773  10.032  20.551  0.00  0.00    +0.000 A 
ATOM      2  C   UNL     1      -0.359   9.170  21.560  0.00  0.00    +0.000 A 
ATOM      3  C   UNL     1       0.998   9.235  21.890  0.00  0.00    +0.000 A 
ATOM      4  C   UNL     1       1.871  10.130  21.193  0.00  0.00    +0.000 A 
ATOM      5  C   UNL     1       1.349  10.720  19.997  0.00  0.00    +0.000 A 
ATOM      6  C   UNL     1       0.223  10.048  19.503  0.00  0.00    +0.000 A 
ATOM      7  C   UNL     1       1.072   9.123  18.593  0.00  0.00    +0.000 A 
ATOM      8  C   UNL     1       1.618  10.164  17.830  0.00  0.00    +0.000 A 
ATOM      9  N   UNL     1       1.817  11.210  18.767  0.00  0.00    +0.000 N 
ENDROOT
BRANCH   7  10
ATOM     10  C   UNL     1       2.229   8.077  18.724  0.00  0.00    +0.000 A 
ATOM     11  C   UNL     1       2.132   7.010  19.627  0.00  0.00    +0.000 A 
ATOM     12  C   UNL     1       2.949   5.851  19.502  0.00  0.00    +0.000 A 
ATOM     13  C   UNL     1       3.879   5.726  18.459  0.00  0.00    +0.000 A 
ATOM     14  C   UNL     1       4.000   6.768  17.552  0.00  0.00    +0.000 A 
ATOM     15 CL   UNL     1       5.056   6.614  16.201  0.00  0.00    +0.000 Cl
ATOM     16  C   UNL     1       3.199   7.913  17.691  0.00  0.00    +0.000 A 
ENDBRANCH   7  10
BRANCH   1  22
ATOM     17  C   UNL     1      -2.377  12.189  20.348  0.00  0.00    +0.000 A 
ATOM     18  C   UNL     1      -3.065  13.276  20.974  0.00  0.00    +0.000 A 
ATOM     19  C   UNL     1      -2.880  13.587  22.307  0.00  0.00    +0.000 A 
ATOM     20  C   UNL     1      -1.985  12.820  23.039  0.00  0.00    +0.000 A 
ATOM     21  C   UNL     1      -1.309  11.744  22.423  0.00  0.00    +0.000 A 
ATOM     22  C   UNL     1      -1.489  11.345  21.059  0.00  0.00    +0.000 A 
BRANCH  17  24
ATOM     23  O   UNL     1      -3.776  11.632  18.503  0.00  0.00    +0.000 OA
ATOM     24  C   UNL     1      -2.711  12.072  18.907  0.00  0.00    +0.000 C 
BRANCH  24  25
ATOM     25  O   UNL     1      -1.830  12.700  18.107  0.00  0.00    +0.000 OA
ATOM     26  H   UNL     1      -2.207  12.917  17.238  0.00  0.00    +0.000 HD
ENDBRANCH  24  25
ENDBRANCH  17  24
ENDBRANCH   1  22
BRANCH   9  27
ATOM     27  C   UNL     1       1.584  12.578  18.270  0.00  0.00    +0.000 C 
BRANCH  27  28
ATOM     28  C   UNL     1       1.878  13.622  19.319  0.00  0.00    +0.000 A 
ATOM     29  C   UNL     1       0.962  13.813  20.362  0.00  0.00    +0.000 A 
ATOM     30  C   UNL     1       1.160  14.809  21.318  0.00  0.00    +0.000 A 
ATOM     31  C   UNL     1       2.243  15.672  21.195  0.00  0.00    +0.000 A 
ATOM     32  C   UNL     1       3.147  15.530  20.131  0.00  0.00    +0.000 A 
ATOM     33  C   UNL     1       4.175  16.469  19.942  0.00  0.00    +0.000 A 
ATOM     34  C   UNL     1       5.099  16.325  18.905  0.00  0.00    +0.000 A 
ATOM     35  C   UNL     1       5.053  15.205  18.095  0.00  0.00    +0.000 A 
ATOM     36  C   UNL     1       4.024  14.275  18.246  0.00  0.00    +0.000 A 
ATOM     37  C   UNL     1       3.023  14.457  19.219  0.00  0.00    +0.000 A 
ENDBRANCH  27  28
ENDBRANCH   9  27
TORSDOF 6
ENDMDL
MODEL 7
REMARK VINA RESULT:      -7.0      3.346      5.439
REMARK  Name = 
REMARK  6 active torsions:
REMARK  status: ('A' for Active; 'I' for Inactive)
REMARK    1  A    between atoms: C_2  and  O_3
REMARK    2  A    between atoms: C_2  and  C_4
REMARK    3  A    between atoms: C_9  and  C_10
REMARK    4  A    between atoms: C_16  and  C_17
REMARK    5  A    between atoms: N_25  and  C_26
REMARK    6  A    between atoms: C_26  and  C_27
REMARK                            x       y       z     vdW  Elec       q    Type
REMARK                         _______ _______ _______ _____ _____    ______ ____
ROOT
ATOM      1  C   UNL     1      -0.134  15.502  19.854  0.00  0.00    +0.000 A 
ATOM      2  C   UNL     1      -0.114  16.237  21.034  0.00  0.00    +0.000 A 
ATOM      3  C   UNL     1      -0.007  15.487  22.210  0.00  0.00    +0.000 A 
ATOM      4  C   UNL     1       0.053  14.058  22.155  0.00  0.00    +0.000 A 
ATOM      5  C   UNL     1      -0.277  13.459  20.897  0.00  0.00    +0.000 A 
ATOM      6  C   UNL     1      -0.961  14.332  20.040  0.00  0.00    +0.000 A 
ATOM      7  C   UNL     1      -2.352  13.870  20.546  0.00  0.00    +0.000 A 
ATOM      8  C   UNL     1      -2.193  12.535  20.154  0.00  0.00    +0.000 A 
ATOM      9  N   UNL     1      -0.825  12.262  20.406  0.00  0.00    +0.000 N 
ENDROOT
BRANCH   7  10
ATOM     10  C   UNL     1      -3.157  13.798  21.887  0.00  0.00    +0.000 A 
ATOM     11  C   UNL     1      -3.299  12.585  22.573  0.00  0.00    +0.000 A 
ATOM     12  C   UNL     1      -3.667  12.545  23.948  0.00  0.00    +0.000 A 
ATOM     13  C   UNL     1      -3.891  13.724  24.675  0.00  0.00    +0.000 A 
ATOM     14  C   UNL     1      -3.762  14.940  24.021  0.00  0.00    +0.000 A 
ATOM     15 CL   UNL     1      -3.931  16.411  24.899  0.00  0.00    +0.000 Cl
ATOM     16  C   UNL     1      -3.412  14.968  22.661  0.00  0.00    +0.000 A 
ENDBRANCH   7  10
BRANCH   1  22
ATOM     17  C   UNL     1       2.085  16.534  18.723  0.00  0.00    +0.000 A 
ATOM     18  C   UNL     1       3.379  16.337  18.148  0.00  0.00    +0.000 A 
ATOM     19  C   UNL     1       3.876  15.076  17.881  0.00  0.00    +0.000 A 
ATOM     20  C   UNL     1       3.075  13.983  18.174  0.00  0.00    +0.000 A 
ATOM     21  C   UNL     1       1.798  14.176  18.746  0.00  0.00    +0.000 A 
ATOM     22  C   UNL     1       1.245  15.452  19.086  0.00  0.00    +0.000 A 
BRANCH  17  24
ATOM     23  O   UNL     1       2.105  18.631  19.852  0.00  0.00    +0.000 OA
ATOM     24  C   UNL     1       1.757  17.973  18.884  0.00  0.00    +0.000 C 
BRANCH  24  25
ATOM     25  O   UNL     1       1.244  18.526  17.771  0.00  0.00    +0.000 OA
ATOM     26  H   UNL     1       0.295  18.343  17.669  0.00  0.00    +0.000 HD
ENDBRANCH  24  25
ENDBRANCH  17  24
ENDBRANCH   1  22
BRANCH   9  27
ATOM     27  C   UNL     1      -0.153  11.370  19.444  0.00  0.00    +0.000 C 
BRANCH  27  28
ATOM     28  C   UNL     1       0.235  10.052  20.066  0.00  0.00    +0.000 A 
ATOM     29  C   UNL     1      -0.188   9.766  21.371  0.00  0.00    +0.000 A 
ATOM     30  C   UNL     1       0.200   8.588  22.009  0.00  0.00    +0.000 A 
ATOM     31  C   UNL     1       1.077   7.719  21.370  0.00  0.00    +0.000 A 
ATOM     32  C   UNL     1       1.553   8.009  20.082  0.00  0.00    +0.000 A 
ATOM     33  C   UNL     1       2.525   7.190  19.483  0.00  0.00    +0.000 A 
ATOM     34  C   UNL     1       2.986   7.450  18.191  0.00  0.00    +0.000 A 
ATOM     35  C   UNL     1       2.428   8.481  17.457  0.00  0.00    +0.000 A 
ATOM     36  C   UNL     1       1.482   9.323  18.042  0.00  0.00    +0.000 A 
ATOM     37  C   UNL     1       1.081   9.141  19.378  0.00  0.00    +0.000 A 
ENDBRANCH  27  28
ENDBRANCH   9  27
TORSDOF 6
ENDMDL
MODEL 8
REMARK VINA RESULT:      -6.9      2.892      4.800
REMARK  Name = 
REMARK  6 active torsions:
REMARK  status: ('A' for Active; 'I' for Inactive)
REMARK    1  A    between atoms: C_2  and  O_3
REMARK    2  A    between atoms: C_2  and  C_4
REMARK    3  A    between atoms: C_9  and  C_10
REMARK    4  A    between atoms: C_16  and  C_17
REMARK    5  A    between atoms: N_25  and  C_26
REMARK    6  A    between atoms: C_26  and  C_27
REMARK                            x       y       z     vdW  Elec       q    Type
REMARK                         _______ _______ _______ _____ _____    ______ ____
ROOT
ATOM      1  C   UNL     1      -1.200  15.762  21.715  0.00  0.00    +0.000 A 
ATOM      2  C   UNL     1      -1.402  16.184  23.024  0.00  0.00    +0.000 A 
ATOM      3  C   UNL     1      -1.663  15.171  23.951  0.00  0.00    +0.000 A 
ATOM      4  C   UNL     1      -1.729  13.804  23.532  0.00  0.00    +0.000 A 
ATOM      5  C   UNL     1      -1.794  13.579  22.119  0.00  0.00    +0.000 A 
ATOM      6  C   UNL     1      -2.156  14.725  21.399  0.00  0.00    +0.000 A 
ATOM      7  C   UNL     1      -3.667  14.382  21.453  0.00  0.00    +0.000 A 
ATOM      8  C   UNL     1      -3.545  13.168  20.762  0.00  0.00    +0.000 A 
ATOM      9  N   UNL     1      -2.315  12.633  21.220  0.00  0.00    +0.000 N 
ENDROOT
BRANCH   7  10
ATOM     10  C   UNL     1      -4.782  14.122  22.520  0.00  0.00    +0.000 A 
ATOM     11  C   UNL     1      -5.235  15.155  23.350  0.00  0.00    +0.000 A 
ATOM     12  C   UNL     1      -6.480  15.069  24.036  0.00  0.00    +0.000 A 
ATOM     13  C   UNL     1      -7.310  13.947  23.897  0.00  0.00    +0.000 A 
ATOM     14  C   UNL     1      -6.886  12.906  23.086  0.00  0.00    +0.000 A 
ATOM     15 CL   UNL     1      -7.916  11.555  22.811  0.00  0.00    +0.000 Cl
ATOM     16  C   UNL     1      -5.650  12.994  22.424  0.00  0.00    +0.000 A 
ENDBRANCH   7  10
BRANCH   1  22
ATOM     17  C   UNL     1       0.841  15.494  19.974  0.00  0.00    +0.000 A 
ATOM     18  C   UNL     1       2.242  15.575  19.696  0.00  0.00    +0.000 A 
ATOM     19  C   UNL     1       3.171  15.810  20.690  0.00  0.00    +0.000 A 
ATOM     20  C   UNL     1       2.714  15.953  21.992  0.00  0.00    +0.000 A 
ATOM     21  C   UNL     1       1.331  15.877  22.267  0.00  0.00    +0.000 A 
ATOM     22  C   UNL     1       0.316  15.679  21.276  0.00  0.00    +0.000 A 
BRANCH  17  24
ATOM     23  O   UNL     1      -0.062  14.080  18.284  0.00  0.00    +0.000 OA
ATOM     24  C   UNL     1       0.045  15.201  18.756  0.00  0.00    +0.000 C 
BRANCH  24  25
ATOM     25  O   UNL     1      -0.719  16.236  18.362  0.00  0.00    +0.000 OA
ATOM     26  H   UNL     1      -0.212  17.060  18.277  0.00  0.00    +0.000 HD
ENDBRANCH  24  25
ENDBRANCH  17  24
ENDBRANCH   1  22
BRANCH   9  27
ATOM     27  C   UNL     1      -1.515  11.899  20.223  0.00  0.00    +0.000 C 
BRANCH  27  28
ATOM     28  C   UNL     1      -0.755  10.750  20.838  0.00  0.00    +0.000 A 
ATOM     29  C   UNL     1      -0.830  10.549  22.223  0.00  0.00    +0.000 A 
ATOM     30  C   UNL     1      -0.094   9.540  22.843  0.00  0.00    +0.000 A 
ATOM     31  C   UNL     1       0.782   8.768  22.088  0.00  0.00    +0.000 A 
ATOM     32  C   UNL     1       0.911   8.984  20.707  0.00  0.00    +0.000 A 
ATOM     33  C   UNL     1       1.876   8.284  19.966  0.00  0.00    +0.000 A 
ATOM     34  C   UNL     1       1.996   8.467  18.587  0.00  0.00    +0.000 A 
ATOM     35  C   UNL     1       1.106   9.292  17.923  0.00  0.00    +0.000 A 
ATOM     36  C   UNL     1       0.158  10.019  18.644  0.00  0.00    +0.000 A 
ATOM     37  C   UNL     1       0.090   9.927  20.046  0.00  0.00    +0.000 A 
ENDBRANCH  27  28
ENDBRANCH   9  27
TORSDOF 6
ENDMDL
MODEL 9
REMARK VINA RESULT:      -6.9      3.328      5.104
REMARK  Name = 
REMARK  6 active torsions:
REMARK  status: ('A' for Active; 'I' for Inactive)
REMARK    1  A    between atoms: C_2  and  O_3
REMARK    2  A    between atoms: C_2  and  C_4
REMARK    3  A    between atoms: C_9  and  C_10
REMARK    4  A    between atoms: C_16  and  C_17
REMARK    5  A    between atoms: N_25  and  C_26
REMARK    6  A    between atoms: C_26  and  C_27
REMARK                            x       y       z     vdW  Elec       q    Type
REMARK                         _______ _______ _______ _____ _____    ______ ____
ROOT
ATOM      1  C   UNL     1       0.044  15.704  20.065  0.00  0.00    +0.000 A 
ATOM      2  C   UNL     1       0.442  16.461  21.161  0.00  0.00    +0.000 A 
ATOM      3  C   UNL     1       0.306  15.837  22.405  0.00  0.00    +0.000 A 
ATOM      4  C   UNL     1      -0.231  14.514  22.498  0.00  0.00    +0.000 A 
ATOM      5  C   UNL     1      -0.860  14.002  21.317  0.00  0.00    +0.000 A 
ATOM      6  C   UNL     1      -1.178  15.004  20.390  0.00  0.00    +0.000 A 
ATOM      7  C   UNL     1      -2.599  15.208  20.975  0.00  0.00    +0.000 A 
ATOM      8  C   UNL     1      -3.030  13.899  20.720  0.00  0.00    +0.000 A 
ATOM      9  N   UNL     1      -1.882  13.104  20.967  0.00  0.00    +0.000 N 
ENDROOT
BRANCH   7  10
ATOM     10  C   UNL     1      -3.273  15.591  22.335  0.00  0.00    +0.000 A 
ATOM     11  C   UNL     1      -2.993  16.816  22.954  0.00  0.00    +0.000 A 
ATOM     12  C   UNL     1      -3.851  17.362  23.950  0.00  0.00    +0.000 A 
ATOM     13  C   UNL     1      -5.022  16.697  24.343  0.00  0.00    +0.000 A 
ATOM     14  C   UNL     1      -5.325  15.481  23.750  0.00  0.00    +0.000 A 
ATOM     15 CL   UNL     1      -6.801  14.681  24.131  0.00  0.00    +0.000 Cl
ATOM     16  C   UNL     1      -4.464  14.944  22.778  0.00  0.00    +0.000 A 
ENDBRANCH   7  10
BRANCH   1  22
ATOM     17  C   UNL     1       2.347  15.638  18.664  0.00  0.00    +0.000 A 
ATOM     18  C   UNL     1       3.421  14.884  18.095  0.00  0.00    +0.000 A 
ATOM     19  C   UNL     1       3.416  13.503  18.077  0.00  0.00    +0.000 A 
ATOM     20  C   UNL     1       2.320  12.847  18.618  0.00  0.00    +0.000 A 
ATOM     21  C   UNL     1       1.261  13.590  19.185  0.00  0.00    +0.000 A 
ATOM     22  C   UNL     1       1.228  15.019  19.273  0.00  0.00    +0.000 A 
BRANCH  17  24
ATOM     23  O   UNL     1       1.901  17.808  17.791  0.00  0.00    +0.000 OA
ATOM     24  C   UNL     1       2.561  17.101  18.536  0.00  0.00    +0.000 C 
BRANCH  24  25
ATOM     25  O   UNL     1       3.386  17.600  19.474  0.00  0.00    +0.000 OA
ATOM     26  H   UNL     1       3.171  18.518  19.707  0.00  0.00    +0.000 HD
ENDBRANCH  24  25
ENDBRANCH  17  24
ENDBRANCH   1  22
BRANCH   9  27
ATOM     27  C   UNL     1      -1.701  11.936  20.087  0.00  0.00    +0.000 C 
BRANCH  27  28
ATOM     28  C   UNL     1      -0.860  10.863  20.733  0.00  0.00    +0.000 A 
ATOM     29  C   UNL     1      -0.870  10.740  22.129  0.00  0.00    +0.000 A 
ATOM     30  C   UNL     1      -0.060   9.806  22.774  0.00  0.00    +0.000 A 
ATOM     31  C   UNL     1       0.823   9.034  22.028  0.00  0.00    +0.000 A 
ATOM     32  C   UNL     1       0.886   9.173  20.633  0.00  0.00    +0.000 A 
ATOM     33  C   UNL     1       1.854   8.477  19.892  0.00  0.00    +0.000 A 
ATOM     34  C   UNL     1       1.910   8.584  18.501  0.00  0.00    +0.000 A 
ATOM     35  C   UNL     1       0.954   9.325  17.830  0.00  0.00    +0.000 A 
ATOM     36  C   UNL     1      -0.000  10.047  18.548  0.00  0.00    +0.000 A 
ATOM     37  C   UNL     1      -0.008  10.035  19.954  0.00  0.00    +0.000 A 
ENDBRANCH  27  28
ENDBRANCH   9  27
TORSDOF 6
ENDMDL
