MODEL 1
REMARK VINA RESULT:      -6.6      0.000      0.000
REMARK  Name = 
REMARK  5 active torsions:
REMARK  status: ('A' for Active; 'I' for Inactive)
REMARK    1  A    between atoms: O_1  and  C_2
REMARK    2  A    between atoms: C_2  and  C_3
REMARK    3  A    between atoms: C_6  and  C_7
REMARK    4  A    between atoms: C_6  and  C_13
REMARK    5  A    between atoms: C_7  and  N_8
REMARK                            x       y       z     vdW  Elec       q    Type
REMARK                         _______ _______ _______ _____ _____    ______ ____
ROOT
ATOM      1  C   UNL     1       5.503   6.162  18.626  0.00  0.00    +0.000 C 
ATOM      2  C   UNL     1       5.412   6.163  17.121  0.00  0.00    +0.000 C 
ATOM      3  O   UNL     1       4.028   6.413  16.852  0.00  0.00    +0.000 OA
ATOM      4  C   UNL     1       3.311   6.043  18.054  0.00  0.00    +0.000 C 
ATOM      5  O   UNL     1       4.265   5.567  19.015  0.00  0.00    +0.000 OA
ENDROOT
BRANCH   4   6
ATOM      6  C   UNL     1       2.570   7.296  18.566  0.00  0.00    +0.000 A 
ATOM      7  C   UNL     1       2.482   8.419  17.712  0.00  0.00    +0.000 A 
ATOM      8  C   UNL     1       1.816   9.587  18.094  0.00  0.00    +0.000 A 
ATOM      9  C   UNL     1       1.217   9.657  19.343  0.00  0.00    +0.000 A 
ATOM     10 CL   UNL     1       0.396  11.092  19.819  0.00  0.00    +0.000 Cl
ATOM     11  C   UNL     1       1.269   8.570  20.205  0.00  0.00    +0.000 A 
ATOM     12  C   UNL     1       1.925   7.388  19.814  0.00  0.00    +0.000 A 
ATOM     13 CL   UNL     1       1.834   6.080  20.946  0.00  0.00    +0.000 Cl
ENDBRANCH   4   6
BRANCH   1  14
ATOM     14  C   UNL     1       6.687   5.382  19.171  0.00  0.00    +0.000 C 
BRANCH  14  15
ATOM     15  O   UNL     1       6.750   4.099  18.566  0.00  0.00    +0.000 OA
ATOM     16  H   UNL     1       6.009   3.576  18.919  0.00  0.00    +0.000 HD
ENDBRANCH  14  15
ENDBRANCH   1  14
BRANCH   4  17
ATOM     17  C   UNL     1       2.271   4.946  17.730  0.00  0.00    +0.000 C 
BRANCH  17  18
ATOM     18  N   UNL     1       2.622   3.610  18.191  0.00  0.00    +0.000 N 
ATOM     19  C   UNL     1       3.570   2.783  17.653  0.00  0.00    +0.000 A 
ATOM     20  C   UNL     1       3.444   1.598  18.347  0.00  0.00    +0.000 A 
ATOM     21  N   UNL     1       2.443   1.687  19.276  0.00  0.00    +0.000 NA
ATOM     22  C   UNL     1       1.958   2.898  19.148  0.00  0.00    +0.000 A 
ENDBRANCH  17  18
ENDBRANCH   4  17
TORSDOF 5
ENDMDL
MODEL 2
REMARK VINA RESULT:      -6.4      2.226      3.452
REMARK  Name = 
REMARK  5 active torsions:
REMARK  status: ('A' for Active; 'I' for Inactive)
REMARK    1  A    between atoms: O_1  and  C_2
REMARK    2  A    between atoms: C_2  and  C_3
REMARK    3  A    between atoms: C_6  and  C_7
REMARK    4  A    between atoms: C_6  and  C_13
REMARK    5  A    between atoms: C_7  and  N_8
REMARK                            x       y       z     vdW  Elec       q    Type
REMARK                         _______ _______ _______ _____ _____    ______ ____
ROOT
ATOM      1  C   UNL     1       2.954   3.748  18.367  0.00  0.00    +0.000 C 
ATOM      2  C   UNL     1       4.328   3.849  18.978  0.00  0.00    +0.000 C 
ATOM      3  O   UNL     1       4.612   5.253  18.979  0.00  0.00    +0.000 OA
ATOM      4  C   UNL     1       3.744   5.840  17.980  0.00  0.00    +0.000 C 
ATOM      5  O   UNL     1       2.970   4.787  17.387  0.00  0.00    +0.000 OA
ENDROOT
BRANCH   4   6
ATOM      6  C   UNL     1       2.844   6.875  18.685  0.00  0.00    +0.000 A 
ATOM      7  C   UNL     1       2.539   8.076  18.003  0.00  0.00    +0.000 A 
ATOM      8  C   UNL     1       1.719   9.058  18.565  0.00  0.00    +0.000 A 
ATOM      9  C   UNL     1       1.179   8.859  19.827  0.00  0.00    +0.000 A 
ATOM     10 CL   UNL     1       0.168  10.064  20.524  0.00  0.00    +0.000 Cl
ATOM     11  C   UNL     1       1.441   7.687  20.523  0.00  0.00    +0.000 A 
ATOM     12  C   UNL     1       2.254   6.691  19.951  0.00  0.00    +0.000 A 
ATOM     13 CL   UNL     1       2.424   5.243  20.886  0.00  0.00    +0.000 Cl
ENDBRANCH   4   6
BRANCH   1  14
ATOM     14  C   UNL     1       2.658   2.399  17.738  0.00  0.00    +0.000 C 
BRANCH  14  15
ATOM     15  O   UNL     1       1.683   1.703  18.501  0.00  0.00    +0.000 OA
ATOM     16  H   UNL     1       2.122   0.926  18.891  0.00  0.00    +0.000 HD
ENDBRANCH  14  15
ENDBRANCH   1  14
BRANCH   4  17
ATOM     17  C   UNL     1       4.590   6.562  16.907  0.00  0.00    +0.000 C 
BRANCH  17  18
ATOM     18  N   UNL     1       5.619   5.744  16.281  0.00  0.00    +0.000 N 
ATOM     19  C   UNL     1       5.435   4.806  15.303  0.00  0.00    +0.000 A 
ATOM     20  C   UNL     1       6.672   4.221  15.132  0.00  0.00    +0.000 A 
ATOM     21  N   UNL     1       7.589   4.773  15.985  0.00  0.00    +0.000 NA
ATOM     22  C   UNL     1       6.926   5.671  16.673  0.00  0.00    +0.000 A 
ENDBRANCH  17  18
ENDBRANCH   4  17
TORSDOF 5
ENDMDL
MODEL 3
REMARK VINA RESULT:      -6.3      3.248      4.867
REMARK  Name = 
REMARK  5 active torsions:
REMARK  status: ('A' for Active; 'I' for Inactive)
REMARK    1  A    between atoms: O_1  and  C_2
REMARK    2  A    between atoms: C_2  and  C_3
REMARK    3  A    between atoms: C_6  and  C_7
REMARK    4  A    between atoms: C_6  and  C_13
REMARK    5  A    between atoms: C_7  and  N_8
REMARK                            x       y       z     vdW  Elec       q    Type
REMARK                         _______ _______ _______ _____ _____    ______ ____
ROOT
ATOM      1  C   UNL     1       6.732   5.701  19.030  0.00  0.00    +0.000 C 
ATOM      2  C   UNL     1       6.081   6.625  18.033  0.00  0.00    +0.000 C 
ATOM      3  O   UNL     1       4.917   5.911  17.597  0.00  0.00    +0.000 OA
ATOM      4  C   UNL     1       5.169   4.516  17.888  0.00  0.00    +0.000 C 
ATOM      5  O   UNL     1       6.475   4.410  18.476  0.00  0.00    +0.000 OA
ENDROOT
BRANCH   4   6
ATOM      6  C   UNL     1       4.072   4.031  18.859  0.00  0.00    +0.000 A 
ATOM      7  C   UNL     1       4.381   2.974  19.747  0.00  0.00    +0.000 A 
ATOM      8  C   UNL     1       3.450   2.486  20.667  0.00  0.00    +0.000 A 
ATOM      9  C   UNL     1       2.183   3.049  20.725  0.00  0.00    +0.000 A 
ATOM     10 CL   UNL     1       1.032   2.453  21.856  0.00  0.00    +0.000 Cl
ATOM     11  C   UNL     1       1.847   4.099  19.881  0.00  0.00    +0.000 A 
ATOM     12  C   UNL     1       2.789   4.601  18.965  0.00  0.00    +0.000 A 
ATOM     13 CL   UNL     1       2.270   5.970  18.040  0.00  0.00    +0.000 Cl
ENDBRANCH   4   6
BRANCH   1  14
ATOM     14  C   UNL     1       8.221   5.939  19.209  0.00  0.00    +0.000 C 
BRANCH  14  15
ATOM     15  O   UNL     1       8.696   5.248  20.355  0.00  0.00    +0.000 OA
ATOM     16  H   UNL     1       9.558   4.862  20.123  0.00  0.00    +0.000 HD
ENDBRANCH  14  15
ENDBRANCH   1  14
BRANCH   4  17
ATOM     17  C   UNL     1       5.089   3.684  16.588  0.00  0.00    +0.000 C 
BRANCH  17  18
ATOM     18  N   UNL     1       5.873   4.203  15.477  0.00  0.00    +0.000 N 
ATOM     19  C   UNL     1       5.567   4.110  14.147  0.00  0.00    +0.000 A 
ATOM     20  C   UNL     1       6.662   4.632  13.491  0.00  0.00    +0.000 A 
ATOM     21  N   UNL     1       7.619   5.024  14.387  0.00  0.00    +0.000 NA
ATOM     22  C   UNL     1       7.126   4.740  15.568  0.00  0.00    +0.000 A 
ENDBRANCH  17  18
ENDBRANCH   4  17
TORSDOF 5
ENDMDL
MODEL 4
REMARK VINA RESULT:      -6.2      3.392      5.211
REMARK  Name = 
REMARK  5 active torsions:
REMARK  status: ('A' for Active; 'I' for Inactive)
REMARK    1  A    between atoms: O_1  and  C_2
REMARK    2  A    between atoms: C_2  and  C_3
REMARK    3  A    between atoms: C_6  and  C_7
REMARK    4  A    between atoms: C_6  and  C_13
REMARK    5  A    between atoms: C_7  and  N_8
REMARK                            x       y       z     vdW  Elec       q    Type
REMARK                         _______ _______ _______ _____ _____    ______ ____
ROOT
ATOM      1  C   UNL     1       6.694   5.630  18.568  0.00  0.00    +0.000 C 
ATOM      2  C   UNL     1       6.479   6.503  17.357  0.00  0.00    +0.000 C 
ATOM      3  O   UNL     1       5.532   5.779  16.563  0.00  0.00    +0.000 OA
ATOM      4  C   UNL     1       5.616   4.399  16.995  0.00  0.00    +0.000 C 
ATOM      5  O   UNL     1       6.615   4.312  18.022  0.00  0.00    +0.000 OA
ENDROOT
BRANCH   4   6
ATOM      6  C   UNL     1       4.227   3.983  17.522  0.00  0.00    +0.000 A 
ATOM      7  C   UNL     1       3.973   2.609  17.733  0.00  0.00    +0.000 A 
ATOM      8  C   UNL     1       2.747   2.150  18.222  0.00  0.00    +0.000 A 
ATOM      9  C   UNL     1       1.743   3.061  18.517  0.00  0.00    +0.000 A 
ATOM     10 CL   UNL     1       0.231   2.503  19.120  0.00  0.00    +0.000 Cl
ATOM     11  C   UNL     1       1.959   4.421  18.338  0.00  0.00    +0.000 A 
ATOM     12  C   UNL     1       3.199   4.884  17.861  0.00  0.00    +0.000 A 
ATOM     13 CL   UNL     1       3.365   6.606  17.773  0.00  0.00    +0.000 Cl
ENDBRANCH   4   6
BRANCH   1  14
ATOM     14  C   UNL     1       8.023   5.861  19.265  0.00  0.00    +0.000 C 
BRANCH  14  15
ATOM     15  O   UNL     1       7.978   5.354  20.590  0.00  0.00    +0.000 OA
ATOM     16  H   UNL     1       8.778   5.668  21.047  0.00  0.00    +0.000 HD
ENDBRANCH  14  15
ENDBRANCH   1  14
BRANCH   4  17
ATOM     17  C   UNL     1       5.987   3.495  15.798  0.00  0.00    +0.000 C 
BRANCH  17  18
ATOM     18  N   UNL     1       6.577   4.190  14.662  0.00  0.00    +0.000 N 
ATOM     19  C   UNL     1       6.257   4.018  13.343  0.00  0.00    +0.000 A 
ATOM     20  C   UNL     1       7.162   4.795  12.652  0.00  0.00    +0.000 A 
ATOM     21  N   UNL     1       8.022   5.418  13.516  0.00  0.00    +0.000 NA
ATOM     22  C   UNL     1       7.657   5.024  14.712  0.00  0.00    +0.000 A 
ENDBRANCH  17  18
ENDBRANCH   4  17
TORSDOF 5
ENDMDL
MODEL 5
REMARK VINA RESULT:      -6.2      3.277      5.338
REMARK  Name = 
REMARK  5 active torsions:
REMARK  status: ('A' for Active; 'I' for Inactive)
REMARK    1  A    between atoms: O_1  and  C_2
REMARK    2  A    between atoms: C_2  and  C_3
REMARK    3  A    between atoms: C_6  and  C_7
REMARK    4  A    between atoms: C_6  and  C_13
REMARK    5  A    between atoms: C_7  and  N_8
REMARK                            x       y       z     vdW  Elec       q    Type
REMARK                         _______ _______ _______ _____ _____    ______ ____
ROOT
ATOM      1  C   UNL     1       3.714   6.322  18.366  0.00  0.00    +0.000 C 
ATOM      2  C   UNL     1       4.560   5.747  19.474  0.00  0.00    +0.000 C 
ATOM      3  O   UNL     1       5.231   4.637  18.865  0.00  0.00    +0.000 OA
ATOM      4  C   UNL     1       4.444   4.277  17.705  0.00  0.00    +0.000 C 
ATOM      5  O   UNL     1       3.312   5.158  17.642  0.00  0.00    +0.000 OA
ENDROOT
BRANCH   4   6
ATOM      6  C   UNL     1       5.343   4.424  16.460  0.00  0.00    +0.000 A 
ATOM      7  C   UNL     1       4.743   4.331  15.183  0.00  0.00    +0.000 A 
ATOM      8  C   UNL     1       5.484   4.467  14.006  0.00  0.00    +0.000 A 
ATOM      9  C   UNL     1       6.849   4.704  14.080  0.00  0.00    +0.000 A 
ATOM     10 CL   UNL     1       7.767   4.873  12.634  0.00  0.00    +0.000 Cl
ATOM     11  C   UNL     1       7.473   4.817  15.315  0.00  0.00    +0.000 A 
ATOM     12  C   UNL     1       6.724   4.697  16.500  0.00  0.00    +0.000 A 
ATOM     13 CL   UNL     1       7.610   4.951  17.967  0.00  0.00    +0.000 Cl
ENDBRANCH   4   6
BRANCH   1  14
ATOM     14  C   UNL     1       2.513   7.111  18.855  0.00  0.00    +0.000 C 
BRANCH  14  15
ATOM     15  O   UNL     1       2.394   7.004  20.266  0.00  0.00    +0.000 OA
ATOM     16  H   UNL     1       3.186   7.416  20.654  0.00  0.00    +0.000 HD
ENDBRANCH  14  15
ENDBRANCH   1  14
BRANCH   4  17
ATOM     17  C   UNL     1       3.982   2.807  17.818  0.00  0.00    +0.000 C 
BRANCH  17  18
ATOM     18  N   UNL     1       2.829   2.588  18.680  0.00  0.00    +0.000 N 
ATOM     19  C   UNL     1       1.519   2.523  18.291  0.00  0.00    +0.000 A 
ATOM     20  C   UNL     1       0.803   2.430  19.466  0.00  0.00    +0.000 A 
ATOM     21  N   UNL     1       1.643   2.447  20.546  0.00  0.00    +0.000 NA
ATOM     22  C   UNL     1       2.850   2.559  20.045  0.00  0.00    +0.000 A 
ENDBRANCH  17  18
ENDBRANCH   4  17
TORSDOF 5
ENDMDL
MODEL 6
REMARK VINA RESULT:      -6.1      1.286      1.528
REMARK  Name = 
REMARK  5 active torsions:
REMARK  status: ('A' for Active; 'I' for Inactive)
REMARK    1  A    between atoms: O_1  and  C_2
REMARK    2  A    between atoms: C_2  and  C_3
REMARK    3  A    between atoms: C_6  and  C_7
REMARK    4  A    between atoms: C_6  and  C_13
REMARK    5  A    between atoms: C_7  and  N_8
REMARK                            x       y       z     vdW  Elec       q    Type
REMARK                         _______ _______ _______ _____ _____    ______ ____
ROOT
ATOM      1  C   UNL     1       6.584   5.901  18.554  0.00  0.00    +0.000 C 
ATOM      2  C   UNL     1       6.774   6.345  17.126  0.00  0.00    +0.000 C 
ATOM      3  O   UNL     1       5.441   6.507  16.627  0.00  0.00    +0.000 OA
ATOM      4  C   UNL     1       4.589   5.715  17.489  0.00  0.00    +0.000 C 
ATOM      5  O   UNL     1       5.417   5.082  18.476  0.00  0.00    +0.000 OA
ENDROOT
BRANCH   4   6
ATOM      6  C   UNL     1       3.562   6.666  18.139  0.00  0.00    +0.000 A 
ATOM      7  C   UNL     1       3.142   7.801  17.409  0.00  0.00    +0.000 A 
ATOM      8  C   UNL     1       2.205   8.703  17.920  0.00  0.00    +0.000 A 
ATOM      9  C   UNL     1       1.660   8.486  19.177  0.00  0.00    +0.000 A 
ATOM     10 CL   UNL     1       0.505   9.593  19.811  0.00  0.00    +0.000 Cl
ATOM     11  C   UNL     1       2.035   7.374  19.919  0.00  0.00    +0.000 A 
ATOM     12  C   UNL     1       2.966   6.458  19.398  0.00  0.00    +0.000 A 
ATOM     13 CL   UNL     1       3.274   5.069  20.387  0.00  0.00    +0.000 Cl
ENDBRANCH   4   6
BRANCH   1  14
ATOM     14  C   UNL     1       7.763   5.130  19.121  0.00  0.00    +0.000 C 
BRANCH  14  15
ATOM     15  O   UNL     1       7.959   5.463  20.487  0.00  0.00    +0.000 OA
ATOM     16  H   UNL     1       7.178   5.148  20.976  0.00  0.00    +0.000 HD
ENDBRANCH  14  15
ENDBRANCH   1  14
BRANCH   4  17
ATOM     17  C   UNL     1       3.833   4.658  16.654  0.00  0.00    +0.000 C 
BRANCH  17  18
ATOM     18  N   UNL     1       3.295   3.541  17.417  0.00  0.00    +0.000 N 
ATOM     19  C   UNL     1       1.989   3.349  17.775  0.00  0.00    +0.000 A 
ATOM     20  C   UNL     1       2.001   2.232  18.584  0.00  0.00    +0.000 A 
ATOM     21  N   UNL     1       3.276   1.756  18.730  0.00  0.00    +0.000 NA
ATOM     22  C   UNL     1       4.031   2.569  18.033  0.00  0.00    +0.000 A 
ENDBRANCH  17  18
ENDBRANCH   4  17
TORSDOF 5
ENDMDL
MODEL 7
REMARK VINA RESULT:      -6.0      1.894      2.538
REMARK  Name = 
REMARK  5 active torsions:
REMARK  status: ('A' for Active; 'I' for Inactive)
REMARK    1  A    between atoms: O_1  and  C_2
REMARK    2  A    between atoms: C_2  and  C_3
REMARK    3  A    between atoms: C_6  and  C_7
REMARK    4  A    between atoms: C_6  and  C_13
REMARK    5  A    between atoms: C_7  and  N_8
REMARK                            x       y       z     vdW  Elec       q    Type
REMARK                         _______ _______ _______ _____ _____    ______ ____
ROOT
ATOM      1  C   UNL     1       6.850   5.664  18.782  0.00  0.00    +0.000 C 
ATOM      2  C   UNL     1       6.557   4.611  17.744  0.00  0.00    +0.000 C 
ATOM      3  O   UNL     1       5.132   4.471  17.776  0.00  0.00    +0.000 OA
ATOM      4  C   UNL     1       4.707   4.976  19.065  0.00  0.00    +0.000 C 
ATOM      5  O   UNL     1       5.874   5.393  19.788  0.00  0.00    +0.000 OA
ENDROOT
BRANCH   4   6
ATOM      6  C   UNL     1       3.744   6.156  18.816  0.00  0.00    +0.000 A 
ATOM      7  C   UNL     1       2.875   6.545  19.861  0.00  0.00    +0.000 A 
ATOM      8  C   UNL     1       1.984   7.612  19.723  0.00  0.00    +0.000 A 
ATOM      9  C   UNL     1       1.944   8.321  18.531  0.00  0.00    +0.000 A 
ATOM     10 CL   UNL     1       0.849   9.637  18.354  0.00  0.00    +0.000 Cl
ATOM     11  C   UNL     1       2.793   7.980  17.486  0.00  0.00    +0.000 A 
ATOM     12  C   UNL     1       3.701   6.916  17.631  0.00  0.00    +0.000 A 
ATOM     13 CL   UNL     1       4.763   6.657  16.287  0.00  0.00    +0.000 Cl
ENDBRANCH   4   6
BRANCH   1  14
ATOM     14  C   UNL     1       8.258   5.597  19.346  0.00  0.00    +0.000 C 
BRANCH  14  15
ATOM     15  O   UNL     1       8.217   5.367  20.747  0.00  0.00    +0.000 OA
ATOM     16  H   UNL     1       8.434   4.430  20.892  0.00  0.00    +0.000 HD
ENDBRANCH  14  15
ENDBRANCH   1  14
BRANCH   4  17
ATOM     17  C   UNL     1       3.953   3.871  19.839  0.00  0.00    +0.000 C 
BRANCH  17  18
ATOM     18  N   UNL     1       2.815   3.295  19.137  0.00  0.00    +0.000 N 
ATOM     19  C   UNL     1       1.526   3.222  19.591  0.00  0.00    +0.000 A 
ATOM     20  C   UNL     1       0.854   2.488  18.637  0.00  0.00    +0.000 A 
ATOM     21  N   UNL     1       1.702   2.110  17.632  0.00  0.00    +0.000 NA
ATOM     22  C   UNL     1       2.873   2.594  17.967  0.00  0.00    +0.000 A 
ENDBRANCH  17  18
ENDBRANCH   4  17
TORSDOF 5
ENDMDL
MODEL 8
REMARK VINA RESULT:      -5.9      3.200      4.966
REMARK  Name = 
REMARK  5 active torsions:
REMARK  status: ('A' for Active; 'I' for Inactive)
REMARK    1  A    between atoms: O_1  and  C_2
REMARK    2  A    between atoms: C_2  and  C_3
REMARK    3  A    between atoms: C_6  and  C_7
REMARK    4  A    between atoms: C_6  and  C_13
REMARK    5  A    between atoms: C_7  and  N_8
REMARK                            x       y       z     vdW  Elec       q    Type
REMARK                         _______ _______ _______ _____ _____    ______ ____
ROOT
ATOM      1  C   UNL     1       6.363   6.411  18.213  0.00  0.00    +0.000 C 
ATOM      2  C   UNL     1       5.513   7.004  17.118  0.00  0.00    +0.000 C 
ATOM      3  O   UNL     1       4.524   6.001  16.856  0.00  0.00    +0.000 OA
ATOM      4  C   UNL     1       5.076   4.755  17.347  0.00  0.00    +0.000 C 
ATOM      5  O   UNL     1       6.382   5.023  17.878  0.00  0.00    +0.000 OA
ENDROOT
BRANCH   4   6
ATOM      6  C   UNL     1       4.125   4.213  18.434  0.00  0.00    +0.000 A 
ATOM      7  C   UNL     1       4.551   3.112  19.211  0.00  0.00    +0.000 A 
ATOM      8  C   UNL     1       3.757   2.570  20.226  0.00  0.00    +0.000 A 
ATOM      9  C   UNL     1       2.513   3.124  20.490  0.00  0.00    +0.000 A 
ATOM     10 CL   UNL     1       1.530   2.463  21.738  0.00  0.00    +0.000 Cl
ATOM     11  C   UNL     1       2.064   4.217  19.760  0.00  0.00    +0.000 A 
ATOM     12  C   UNL     1       2.871   4.772  18.750  0.00  0.00    +0.000 A 
ATOM     13 CL   UNL     1       2.231   6.186  17.981  0.00  0.00    +0.000 Cl
ENDBRANCH   4   6
BRANCH   1  14
ATOM     14  C   UNL     1       7.768   6.983  18.278  0.00  0.00    +0.000 C 
BRANCH  14  15
ATOM     15  O   UNL     1       7.955   7.948  17.254  0.00  0.00    +0.000 OA
ATOM     16  H   UNL     1       8.864   8.286  17.337  0.00  0.00    +0.000 HD
ENDBRANCH  14  15
ENDBRANCH   1  14
BRANCH   4  17
ATOM     17  C   UNL     1       5.157   3.726  16.197  0.00  0.00    +0.000 C 
BRANCH  17  18
ATOM     18  N   UNL     1       5.922   4.160  15.036  0.00  0.00    +0.000 N 
ATOM     19  C   UNL     1       5.660   3.861  13.727  0.00  0.00    +0.000 A 
ATOM     20  C   UNL     1       6.722   4.387  13.022  0.00  0.00    +0.000 A 
ATOM     21  N   UNL     1       7.617   4.982  13.870  0.00  0.00    +0.000 NA
ATOM     22  C   UNL     1       7.119   4.816  15.071  0.00  0.00    +0.000 A 
ENDBRANCH  17  18
ENDBRANCH   4  17
TORSDOF 5
ENDMDL
MODEL 9
REMARK VINA RESULT:      -5.9      3.422      5.738
REMARK  Name = 
REMARK  5 active torsions:
REMARK  status: ('A' for Active; 'I' for Inactive)
REMARK    1  A    between atoms: O_1  and  C_2
REMARK    2  A    between atoms: C_2  and  C_3
REMARK    3  A    between atoms: C_6  and  C_7
REMARK    4  A    between atoms: C_6  and  C_13
REMARK    5  A    between atoms: C_7  and  N_8
REMARK                            x       y       z     vdW  Elec       q    Type
REMARK                         _______ _______ _______ _____ _____    ______ ____
ROOT
ATOM      1  C   UNL     1       4.480   2.272  19.164  0.00  0.00    +0.000 C 
ATOM      2  C   UNL     1       3.088   2.796  18.918  0.00  0.00    +0.000 C 
ATOM      3  O   UNL     1       3.294   4.040  18.238  0.00  0.00    +0.000 OA
ATOM      4  C   UNL     1       4.646   4.451  18.553  0.00  0.00    +0.000 C 
ATOM      5  O   UNL     1       5.223   3.464  19.421  0.00  0.00    +0.000 OA
ENDROOT
BRANCH   4   6
ATOM      6  C   UNL     1       5.427   4.560  17.226  0.00  0.00    +0.000 A 
ATOM      7  C   UNL     1       4.726   4.355  16.016  0.00  0.00    +0.000 A 
ATOM      8  C   UNL     1       5.355   4.450  14.771  0.00  0.00    +0.000 A 
ATOM      9  C   UNL     1       6.706   4.760  14.709  0.00  0.00    +0.000 A 
ATOM     10 CL   UNL     1       7.486   4.880  13.180  0.00  0.00    +0.000 Cl
ATOM     11  C   UNL     1       7.426   4.984  15.875  0.00  0.00    +0.000 A 
ATOM     12  C   UNL     1       6.789   4.904  17.126  0.00  0.00    +0.000 A 
ATOM     13 CL   UNL     1       7.781   5.297  18.491  0.00  0.00    +0.000 Cl
ENDBRANCH   4   6
BRANCH   1  14
ATOM     14  C   UNL     1       4.575   1.300  20.327  0.00  0.00    +0.000 C 
BRANCH  14  15
ATOM     15  O   UNL     1       4.165   1.931  21.531  0.00  0.00    +0.000 OA
ATOM     16  H   UNL     1       3.204   2.071  21.471  0.00  0.00    +0.000 HD
ENDBRANCH  14  15
ENDBRANCH   1  14
BRANCH   4  17
ATOM     17  C   UNL     1       4.630   5.836  19.238  0.00  0.00    +0.000 C 
BRANCH  17  18
ATOM     18  N   UNL     1       3.564   6.726  18.800  0.00  0.00    +0.000 N 
ATOM     19  C   UNL     1       3.549   7.485  17.662  0.00  0.00    +0.000 A 
ATOM     20  C   UNL     1       2.400   8.242  17.754  0.00  0.00    +0.000 A 
ATOM     21  N   UNL     1       1.732   7.967  18.916  0.00  0.00    +0.000 NA
ATOM     22  C   UNL     1       2.461   7.067  19.530  0.00  0.00    +0.000 A 
ENDBRANCH  17  18
ENDBRANCH   4  17
TORSDOF 5
ENDMDL
