MODEL 1
REMARK VINA RESULT:      -8.1      0.000      0.000
REMARK  Name = 
REMARK  4 active torsions:
REMARK  status: ('A' for Active; 'I' for Inactive)
REMARK    1  A    between atoms: C_2  and  C_3
REMARK    2  A    between atoms: C_6  and  O_7
REMARK    3  A    between atoms: O_7  and  C_8
REMARK    4  A    between atoms: C_8  and  C_9
REMARK                            x       y       z     vdW  Elec       q    Type
REMARK                         _______ _______ _______ _____ _____    ______ ____
ROOT
ATOM      1  O   UNL     1      -1.695  10.303  18.297  0.00  0.00    +0.000 OA
ATOM      2  C   UNL     1      -0.836  10.621  19.113  0.00  0.00    +0.000 C 
ATOM      3  N   UNL     1      -0.942  11.739  19.947  0.00  0.00    +0.000 N 
ATOM      4  C   UNL     1      -2.109  12.630  19.830  0.00  0.00    +0.000 C 
ATOM      5  C   UNL     1      -2.909  12.727  21.151  0.00  0.00    +0.000 C 
ATOM      6  N   UNL     1      -2.018  12.963  22.290  0.00  0.00    +0.000 N 
ATOM      7  C   UNL     1      -2.087  14.089  23.066  0.00  0.00    +0.000 A 
ATOM      8  N   UNL     1      -3.059  14.985  22.843  0.00  0.00    +0.000 NA
ATOM      9  C   UNL     1      -3.126  16.053  23.664  0.00  0.00    +0.000 A 
ATOM     10  C   UNL     1      -2.262  16.271  24.705  0.00  0.00    +0.000 A 
ATOM     11  C   UNL     1      -1.292  15.318  24.854  0.00  0.00    +0.000 A 
ATOM     12  N   UNL     1      -1.187  14.243  24.055  0.00  0.00    +0.000 NA
ATOM     13  C   UNL     1      -0.881  12.063  22.418  0.00  0.00    +0.000 C 
ATOM     14  C   UNL     1      -0.085  12.049  21.109  0.00  0.00    +0.000 C 
ENDROOT
BRANCH   2  15
ATOM     15  C   UNL     1       0.363   9.748  19.249  0.00  0.00    +0.000 A 
ATOM     16  C   UNL     1       0.641   9.094  20.453  0.00  0.00    +0.000 A 
ATOM     17  C   UNL     1       1.584   8.068  20.487  0.00  0.00    +0.000 A 
ATOM     18  C   UNL     1       2.309   7.747  19.338  0.00  0.00    +0.000 A 
ATOM     19  C   UNL     1       2.163   8.531  18.191  0.00  0.00    +0.000 A 
ATOM     20  C   UNL     1       1.181   9.525  18.137  0.00  0.00    +0.000 A 
BRANCH  18  21
ATOM     21  O   UNL     1       3.173   6.687  19.240  0.00  0.00    +0.000 OA
BRANCH  21  22
ATOM     22  C   UNL     1       2.957   5.852  18.094  0.00  0.00    +0.000 C 
BRANCH  22  23
ATOM     23  C   UNL     1       2.348   4.513  18.442  0.00  0.00    +0.000 A 
ATOM     24  C   UNL     1       1.485   4.331  19.530  0.00  0.00    +0.000 A 
ATOM     25  C   UNL     1       0.959   3.069  19.814  0.00  0.00    +0.000 A 
ATOM     26  C   UNL     1       1.288   1.975  19.013  0.00  0.00    +0.000 A 
ATOM     27  C   UNL     1       2.139   2.143  17.923  0.00  0.00    +0.000 A 
ATOM     28  C   UNL     1       2.665   3.402  17.639  0.00  0.00    +0.000 A 
ENDBRANCH  22  23
ENDBRANCH  21  22
ENDBRANCH  18  21
ENDBRANCH   2  15
TORSDOF 4
ENDMDL
MODEL 2
REMARK VINA RESULT:      -8.0      0.809      1.209
REMARK  Name = 
REMARK  4 active torsions:
REMARK  status: ('A' for Active; 'I' for Inactive)
REMARK    1  A    between atoms: C_2  and  C_3
REMARK    2  A    between atoms: C_6  and  O_7
REMARK    3  A    between atoms: O_7  and  C_8
REMARK    4  A    between atoms: C_8  and  C_9
REMARK                            x       y       z     vdW  Elec       q    Type
REMARK                         _______ _______ _______ _____ _____    ______ ____
ROOT
ATOM      1  O   UNL     1      -2.358  10.750  18.689  0.00  0.00    +0.000 OA
ATOM      2  C   UNL     1      -1.393  11.088  19.368  0.00  0.00    +0.000 C 
ATOM      3  N   UNL     1      -1.408  12.186  20.234  0.00  0.00    +0.000 N 
ATOM      4  C   UNL     1      -2.610  13.032  20.321  0.00  0.00    +0.000 C 
ATOM      5  C   UNL     1      -3.197  13.075  21.753  0.00  0.00    +0.000 C 
ATOM      6  N   UNL     1      -2.147  13.326  22.744  0.00  0.00    +0.000 N 
ATOM      7  C   UNL     1      -2.134  14.435  23.548  0.00  0.00    +0.000 A 
ATOM      8  N   UNL     1      -3.161  15.296  23.499  0.00  0.00    +0.000 NA
ATOM      9  C   UNL     1      -3.138  16.346  24.345  0.00  0.00    +0.000 A 
ATOM     10  C   UNL     1      -2.129  16.580  25.244  0.00  0.00    +0.000 A 
ATOM     11  C   UNL     1      -1.115  15.663  25.218  0.00  0.00    +0.000 A 
ATOM     12  N   UNL     1      -1.097  14.607  24.387  0.00  0.00    +0.000 NA
ATOM     13  C   UNL     1      -0.972  12.470  22.672  0.00  0.00    +0.000 C 
ATOM     14  C   UNL     1      -0.391  12.510  21.255  0.00  0.00    +0.000 C 
ENDROOT
BRANCH   2  15
ATOM     15  C   UNL     1      -0.157  10.261  19.295  0.00  0.00    +0.000 A 
ATOM     16  C   UNL     1       0.264   9.501  20.391  0.00  0.00    +0.000 A 
ATOM     17  C   UNL     1       1.240   8.521  20.226  0.00  0.00    +0.000 A 
ATOM     18  C   UNL     1       1.857   8.351  18.984  0.00  0.00    +0.000 A 
ATOM     19  C   UNL     1       1.569   9.240  17.946  0.00  0.00    +0.000 A 
ATOM     20  C   UNL     1       0.552  10.190  18.092  0.00  0.00    +0.000 A 
BRANCH  18  21
ATOM     21  O   UNL     1       2.743   7.347  18.693  0.00  0.00    +0.000 OA
BRANCH  21  22
ATOM     22  C   UNL     1       2.911   6.383  19.743  0.00  0.00    +0.000 C 
BRANCH  22  23
ATOM     23  C   UNL     1       2.204   5.076  19.466  0.00  0.00    +0.000 A 
ATOM     24  C   UNL     1       2.123   4.513  18.186  0.00  0.00    +0.000 A 
ATOM     25  C   UNL     1       1.447   3.308  17.984  0.00  0.00    +0.000 A 
ATOM     26  C   UNL     1       0.846   2.651  19.059  0.00  0.00    +0.000 A 
ATOM     27  C   UNL     1       0.925   3.196  20.338  0.00  0.00    +0.000 A 
ATOM     28  C   UNL     1       1.599   4.399  20.541  0.00  0.00    +0.000 A 
ENDBRANCH  22  23
ENDBRANCH  21  22
ENDBRANCH  18  21
ENDBRANCH   2  15
TORSDOF 4
ENDMDL
MODEL 3
REMARK VINA RESULT:      -8.0      3.333      4.118
REMARK  Name = 
REMARK  4 active torsions:
REMARK  status: ('A' for Active; 'I' for Inactive)
REMARK    1  A    between atoms: C_2  and  C_3
REMARK    2  A    between atoms: C_6  and  O_7
REMARK    3  A    between atoms: O_7  and  C_8
REMARK    4  A    between atoms: C_8  and  C_9
REMARK                            x       y       z     vdW  Elec       q    Type
REMARK                         _______ _______ _______ _____ _____    ______ ____
ROOT
ATOM      1  O   UNL     1      -1.344  10.266  18.806  0.00  0.00    +0.000 OA
ATOM      2  C   UNL     1      -0.161  10.588  18.861  0.00  0.00    +0.000 C 
ATOM      3  N   UNL     1       0.279  11.914  18.837  0.00  0.00    +0.000 N 
ATOM      4  C   UNL     1      -0.699  13.006  18.687  0.00  0.00    +0.000 C 
ATOM      5  C   UNL     1      -0.666  13.992  19.879  0.00  0.00    +0.000 C 
ATOM      6  N   UNL     1       0.709  14.386  20.199  0.00  0.00    +0.000 N 
ATOM      7  C   UNL     1       1.150  15.679  20.114  0.00  0.00    +0.000 A 
ATOM      8  N   UNL     1       0.281  16.654  19.810  0.00  0.00    +0.000 NA
ATOM      9  C   UNL     1       0.743  17.921  19.791  0.00  0.00    +0.000 A 
ATOM     10  C   UNL     1       2.042  18.264  20.061  0.00  0.00    +0.000 A 
ATOM     11  C   UNL     1       2.865  17.210  20.348  0.00  0.00    +0.000 A 
ATOM     12  N   UNL     1       2.446  15.933  20.372  0.00  0.00    +0.000 NA
ATOM     13  C   UNL     1       1.667  13.303  20.373  0.00  0.00    +0.000 C 
ATOM     14  C   UNL     1       1.643  12.391  19.142  0.00  0.00    +0.000 C 
ENDROOT
BRANCH   2  15
ATOM     15  C   UNL     1       0.856   9.508  19.001  0.00  0.00    +0.000 A 
ATOM     16  C   UNL     1       1.079   8.888  20.234  0.00  0.00    +0.000 A 
ATOM     17  C   UNL     1       1.809   7.703  20.296  0.00  0.00    +0.000 A 
ATOM     18  C   UNL     1       2.386   7.175  19.139  0.00  0.00    +0.000 A 
ATOM     19  C   UNL     1       2.320   7.900  17.946  0.00  0.00    +0.000 A 
ATOM     20  C   UNL     1       1.544   9.061  17.869  0.00  0.00    +0.000 A 
BRANCH  18  21
ATOM     21  O   UNL     1       3.024   5.964  19.076  0.00  0.00    +0.000 OA
BRANCH  21  22
ATOM     22  C   UNL     1       3.794   5.761  17.883  0.00  0.00    +0.000 C 
BRANCH  22  23
ATOM     23  C   UNL     1       5.266   6.052  18.070  0.00  0.00    +0.000 A 
ATOM     24  C   UNL     1       5.974   6.942  17.253  0.00  0.00    +0.000 A 
ATOM     25  C   UNL     1       7.336   7.165  17.462  0.00  0.00    +0.000 A 
ATOM     26  C   UNL     1       8.005   6.503  18.492  0.00  0.00    +0.000 A 
ATOM     27  C   UNL     1       7.313   5.620  19.317  0.00  0.00    +0.000 A 
ATOM     28  C   UNL     1       5.952   5.396  19.108  0.00  0.00    +0.000 A 
ENDBRANCH  22  23
ENDBRANCH  21  22
ENDBRANCH  18  21
ENDBRANCH   2  15
TORSDOF 4
ENDMDL
MODEL 4
REMARK VINA RESULT:      -8.0      2.618      3.879
REMARK  Name = 
REMARK  4 active torsions:
REMARK  status: ('A' for Active; 'I' for Inactive)
REMARK    1  A    between atoms: C_2  and  C_3
REMARK    2  A    between atoms: C_6  and  O_7
REMARK    3  A    between atoms: O_7  and  C_8
REMARK    4  A    between atoms: C_8  and  C_9
REMARK                            x       y       z     vdW  Elec       q    Type
REMARK                         _______ _______ _______ _____ _____    ______ ____
ROOT
ATOM      1  O   UNL     1       1.236  11.377  20.954  0.00  0.00    +0.000 OA
ATOM      2  C   UNL     1       0.512  10.577  20.369  0.00  0.00    +0.000 C 
ATOM      3  N   UNL     1      -0.873  10.728  20.258  0.00  0.00    +0.000 N 
ATOM      4  C   UNL     1      -1.538  11.870  20.910  0.00  0.00    +0.000 C 
ATOM      5  C   UNL     1      -2.293  12.765  19.899  0.00  0.00    +0.000 C 
ATOM      6  N   UNL     1      -3.118  11.958  18.995  0.00  0.00    +0.000 N 
ATOM      7  C   UNL     1      -4.481  12.069  18.935  0.00  0.00    +0.000 A 
ATOM      8  N   UNL     1      -5.099  13.008  19.666  0.00  0.00    +0.000 NA
ATOM      9  C   UNL     1      -6.437  13.120  19.537  0.00  0.00    +0.000 A 
ATOM     10  C   UNL     1      -7.193  12.333  18.709  0.00  0.00    +0.000 A 
ATOM     11  C   UNL     1      -6.488  11.392  18.011  0.00  0.00    +0.000 A 
ATOM     12  N   UNL     1      -5.156  11.243  18.115  0.00  0.00    +0.000 NA
ATOM     13  C   UNL     1      -2.451  10.847  18.332  0.00  0.00    +0.000 C 
ATOM     14  C   UNL     1      -1.772   9.956  19.377  0.00  0.00    +0.000 C 
ENDROOT
BRANCH   2  15
ATOM     15  C   UNL     1       1.151   9.404  19.708  0.00  0.00    +0.000 A 
ATOM     16  C   UNL     1       1.523   9.454  18.362  0.00  0.00    +0.000 A 
ATOM     17  C   UNL     1       2.368   8.478  17.836  0.00  0.00    +0.000 A 
ATOM     18  C   UNL     1       2.778   7.406  18.631  0.00  0.00    +0.000 A 
ATOM     19  C   UNL     1       2.249   7.261  19.916  0.00  0.00    +0.000 A 
ATOM     20  C   UNL     1       1.444   8.265  20.465  0.00  0.00    +0.000 A 
BRANCH  18  21
ATOM     21  O   UNL     1       3.692   6.461  18.243  0.00  0.00    +0.000 OA
BRANCH  21  22
ATOM     22  C   UNL     1       3.117   5.300  17.626  0.00  0.00    +0.000 C 
BRANCH  22  23
ATOM     23  C   UNL     1       2.617   4.283  18.626  0.00  0.00    +0.000 A 
ATOM     24  C   UNL     1       3.371   3.873  19.733  0.00  0.00    +0.000 A 
ATOM     25  C   UNL     1       2.867   2.921  20.620  0.00  0.00    +0.000 A 
ATOM     26  C   UNL     1       1.602   2.368  20.412  0.00  0.00    +0.000 A 
ATOM     27  C   UNL     1       0.839   2.772  19.320  0.00  0.00    +0.000 A 
ATOM     28  C   UNL     1       1.342   3.722  18.433  0.00  0.00    +0.000 A 
ENDBRANCH  22  23
ENDBRANCH  21  22
ENDBRANCH  18  21
ENDBRANCH   2  15
TORSDOF 4
ENDMDL
MODEL 5
REMARK VINA RESULT:      -7.9      2.554      4.167
REMARK  Name = 
REMARK  4 active torsions:
REMARK  status: ('A' for Active; 'I' for Inactive)
REMARK    1  A    between atoms: C_2  and  C_3
REMARK    2  A    between atoms: C_6  and  O_7
REMARK    3  A    between atoms: O_7  and  C_8
REMARK    4  A    between atoms: C_8  and  C_9
REMARK                            x       y       z     vdW  Elec       q    Type
REMARK                         _______ _______ _______ _____ _____    ______ ____
ROOT
ATOM      1  O   UNL     1       1.990   9.199  22.551  0.00  0.00    +0.000 OA
ATOM      2  C   UNL     1       1.153   9.079  21.662  0.00  0.00    +0.000 C 
ATOM      3  N   UNL     1      -0.082   9.734  21.672  0.00  0.00    +0.000 N 
ATOM      4  C   UNL     1      -0.451  10.580  22.820  0.00  0.00    +0.000 C 
ATOM      5  C   UNL     1      -0.726  12.045  22.406  0.00  0.00    +0.000 C 
ATOM      6  N   UNL     1      -1.610  12.106  21.239  0.00  0.00    +0.000 N 
ATOM      7  C   UNL     1      -2.845  12.696  21.272  0.00  0.00    +0.000 A 
ATOM      8  N   UNL     1      -3.246  13.324  22.387  0.00  0.00    +0.000 NA
ATOM      9  C   UNL     1      -4.446  13.939  22.362  0.00  0.00    +0.000 A 
ATOM     10  C   UNL     1      -5.272  13.956  21.268  0.00  0.00    +0.000 A 
ATOM     11  C   UNL     1      -4.795  13.280  20.179  0.00  0.00    +0.000 A 
ATOM     12  N   UNL     1      -3.608  12.649  20.165  0.00  0.00    +0.000 NA
ATOM     13  C   UNL     1      -1.227  11.289  20.096  0.00  0.00    +0.000 C 
ATOM     14  C   UNL     1      -1.029   9.838  20.543  0.00  0.00    +0.000 C 
ENDROOT
BRANCH   2  15
ATOM     15  C   UNL     1       1.489   8.221  20.491  0.00  0.00    +0.000 A 
ATOM     16  C   UNL     1       1.731   8.785  19.235  0.00  0.00    +0.000 A 
ATOM     17  C   UNL     1       2.319   8.021  18.229  0.00  0.00    +0.000 A 
ATOM     18  C   UNL     1       2.594   6.669  18.449  0.00  0.00    +0.000 A 
ATOM     19  C   UNL     1       2.175   6.066  19.638  0.00  0.00    +0.000 A 
ATOM     20  C   UNL     1       1.634   6.842  20.669  0.00  0.00    +0.000 A 
BRANCH  18  21
ATOM     21  O   UNL     1       3.269   5.864  17.569  0.00  0.00    +0.000 OA
BRANCH  21  22
ATOM     22  C   UNL     1       4.277   5.041  18.173  0.00  0.00    +0.000 C 
BRANCH  22  23
ATOM     23  C   UNL     1       5.626   5.718  18.257  0.00  0.00    +0.000 A 
ATOM     24  C   UNL     1       6.023   6.731  17.375  0.00  0.00    +0.000 A 
ATOM     25  C   UNL     1       7.285   7.316  17.489  0.00  0.00    +0.000 A 
ATOM     26  C   UNL     1       8.164   6.897  18.489  0.00  0.00    +0.000 A 
ATOM     27  C   UNL     1       7.780   5.896  19.378  0.00  0.00    +0.000 A 
ATOM     28  C   UNL     1       6.520   5.311  19.263  0.00  0.00    +0.000 A 
ENDBRANCH  22  23
ENDBRANCH  21  22
ENDBRANCH  18  21
ENDBRANCH   2  15
TORSDOF 4
ENDMDL
MODEL 6
REMARK VINA RESULT:      -7.8      3.517      4.763
REMARK  Name = 
REMARK  4 active torsions:
REMARK  status: ('A' for Active; 'I' for Inactive)
REMARK    1  A    between atoms: C_2  and  C_3
REMARK    2  A    between atoms: C_6  and  O_7
REMARK    3  A    between atoms: O_7  and  C_8
REMARK    4  A    between atoms: C_8  and  C_9
REMARK                            x       y       z     vdW  Elec       q    Type
REMARK                         _______ _______ _______ _____ _____    ______ ____
ROOT
ATOM      1  O   UNL     1      -0.596   9.855  20.761  0.00  0.00    +0.000 OA
ATOM      2  C   UNL     1       0.286  10.086  19.939  0.00  0.00    +0.000 C 
ATOM      3  N   UNL     1       0.465  11.332  19.331  0.00  0.00    +0.000 N 
ATOM      4  C   UNL     1      -0.466  12.433  19.631  0.00  0.00    +0.000 C 
ATOM      5  C   UNL     1       0.253  13.663  20.234  0.00  0.00    +0.000 C 
ATOM      6  N   UNL     1       1.445  14.010  19.455  0.00  0.00    +0.000 N 
ATOM      7  C   UNL     1       1.589  15.209  18.810  0.00  0.00    +0.000 A 
ATOM      8  N   UNL     1       0.647  16.152  18.955  0.00  0.00    +0.000 NA
ATOM      9  C   UNL     1       0.851  17.339  18.349  0.00  0.00    +0.000 A 
ATOM     10  C   UNL     1       1.959  17.632  17.597  0.00  0.00    +0.000 A 
ATOM     11  C   UNL     1       2.863  16.611  17.488  0.00  0.00    +0.000 A 
ATOM     12  N   UNL     1       2.695  15.412  18.071  0.00  0.00    +0.000 NA
ATOM     13  C   UNL     1       2.377  12.924  19.183  0.00  0.00    +0.000 C 
ATOM     14  C   UNL     1       1.631  11.757  18.530  0.00  0.00    +0.000 C 
ENDROOT
BRANCH   2  15
ATOM     15  C   UNL     1       1.238   8.991  19.603  0.00  0.00    +0.000 A 
ATOM     16  C   UNL     1       1.645   8.072  20.573  0.00  0.00    +0.000 A 
ATOM     17  C   UNL     1       2.295   6.898  20.193  0.00  0.00    +0.000 A 
ATOM     18  C   UNL     1       2.611   6.678  18.851  0.00  0.00    +0.000 A 
ATOM     19  C   UNL     1       2.372   7.686  17.914  0.00  0.00    +0.000 A 
ATOM     20  C   UNL     1       1.673   8.840  18.282  0.00  0.00    +0.000 A 
BRANCH  18  21
ATOM     21  O   UNL     1       3.145   5.513  18.364  0.00  0.00    +0.000 OA
BRANCH  21  22
ATOM     22  C   UNL     1       4.069   5.694  17.281  0.00  0.00    +0.000 C 
BRANCH  22  23
ATOM     23  C   UNL     1       5.460   6.062  17.743  0.00  0.00    +0.000 A 
ATOM     24  C   UNL     1       6.199   7.104  17.168  0.00  0.00    +0.000 A 
ATOM     25  C   UNL     1       7.486   7.396  17.625  0.00  0.00    +0.000 A 
ATOM     26  C   UNL     1       8.048   6.650  18.663  0.00  0.00    +0.000 A 
ATOM     27  C   UNL     1       7.322   5.616  19.248  0.00  0.00    +0.000 A 
ATOM     28  C   UNL     1       6.037   5.324  18.792  0.00  0.00    +0.000 A 
ENDBRANCH  22  23
ENDBRANCH  21  22
ENDBRANCH  18  21
ENDBRANCH   2  15
TORSDOF 4
ENDMDL
MODEL 7
REMARK VINA RESULT:      -7.8      3.032      4.679
REMARK  Name = 
REMARK  4 active torsions:
REMARK  status: ('A' for Active; 'I' for Inactive)
REMARK    1  A    between atoms: C_2  and  C_3
REMARK    2  A    between atoms: C_6  and  O_7
REMARK    3  A    between atoms: O_7  and  C_8
REMARK    4  A    between atoms: C_8  and  C_9
REMARK                            x       y       z     vdW  Elec       q    Type
REMARK                         _______ _______ _______ _____ _____    ______ ____
ROOT
ATOM      1  O   UNL     1       1.358  10.634  21.711  0.00  0.00    +0.000 OA
ATOM      2  C   UNL     1       0.771  10.024  20.823  0.00  0.00    +0.000 C 
ATOM      3  N   UNL     1      -0.560  10.265  20.473  0.00  0.00    +0.000 N 
ATOM      4  C   UNL     1      -1.345  11.260  21.223  0.00  0.00    +0.000 C 
ATOM      5  C   UNL     1      -1.873  12.397  20.315  0.00  0.00    +0.000 C 
ATOM      6  N   UNL     1      -2.492  11.857  19.101  0.00  0.00    +0.000 N 
ATOM      7  C   UNL     1      -3.812  12.045  18.794  0.00  0.00    +0.000 A 
ATOM      8  N   UNL     1      -4.569  12.824  19.582  0.00  0.00    +0.000 NA
ATOM      9  C   UNL     1      -5.850  13.028  19.215  0.00  0.00    +0.000 A 
ATOM     10  C   UNL     1      -6.418  12.487  18.091  0.00  0.00    +0.000 A 
ATOM     11  C   UNL     1      -5.584  11.694  17.352  0.00  0.00    +0.000 A 
ATOM     12  N   UNL     1      -4.303  11.460  17.685  0.00  0.00    +0.000 NA
ATOM     13  C   UNL     1      -1.702  10.894  18.348  0.00  0.00    +0.000 C 
ATOM     14  C   UNL     1      -1.257   9.757  19.273  0.00  0.00    +0.000 C 
ENDROOT
BRANCH   2  15
ATOM     15  C   UNL     1       1.532   9.001  20.052  0.00  0.00    +0.000 A 
ATOM     16  C   UNL     1       1.779   7.735  20.589  0.00  0.00    +0.000 A 
ATOM     17  C   UNL     1       2.229   6.704  19.766  0.00  0.00    +0.000 A 
ATOM     18  C   UNL     1       2.510   6.955  18.422  0.00  0.00    +0.000 A 
ATOM     19  C   UNL     1       2.444   8.264  17.938  0.00  0.00    +0.000 A 
ATOM     20  C   UNL     1       1.943   9.290  18.747  0.00  0.00    +0.000 A 
BRANCH  18  21
ATOM     21  O   UNL     1       2.848   5.990  17.509  0.00  0.00    +0.000 OA
BRANCH  21  22
ATOM     22  C   UNL     1       3.821   5.045  17.980  0.00  0.00    +0.000 C 
BRANCH  22  23
ATOM     23  C   UNL     1       5.209   5.632  18.098  0.00  0.00    +0.000 A 
ATOM     24  C   UNL     1       5.724   6.554  17.178  0.00  0.00    +0.000 A 
ATOM     25  C   UNL     1       7.018   7.056  17.327  0.00  0.00    +0.000 A 
ATOM     26  C   UNL     1       7.812   6.644  18.398  0.00  0.00    +0.000 A 
ATOM     27  C   UNL     1       7.310   5.733  19.324  0.00  0.00    +0.000 A 
ATOM     28  C   UNL     1       6.018   5.230  19.176  0.00  0.00    +0.000 A 
ENDBRANCH  22  23
ENDBRANCH  21  22
ENDBRANCH  18  21
ENDBRANCH   2  15
TORSDOF 4
ENDMDL
MODEL 8
REMARK VINA RESULT:      -7.8      2.684      3.853
REMARK  Name = 
REMARK  4 active torsions:
REMARK  status: ('A' for Active; 'I' for Inactive)
REMARK    1  A    between atoms: C_2  and  C_3
REMARK    2  A    between atoms: C_6  and  O_7
REMARK    3  A    between atoms: O_7  and  C_8
REMARK    4  A    between atoms: C_8  and  C_9
REMARK                            x       y       z     vdW  Elec       q    Type
REMARK                         _______ _______ _______ _____ _____    ______ ____
ROOT
ATOM      1  O   UNL     1       1.229  11.508  21.290  0.00  0.00    +0.000 OA
ATOM      2  C   UNL     1       0.598  10.727  20.584  0.00  0.00    +0.000 C 
ATOM      3  N   UNL     1      -0.784  10.810  20.388  0.00  0.00    +0.000 N 
ATOM      4  C   UNL     1      -1.560  11.846  21.089  0.00  0.00    +0.000 C 
ATOM      5  C   UNL     1      -2.301  12.788  20.110  0.00  0.00    +0.000 C 
ATOM      6  N   UNL     1      -3.011  12.025  19.080  0.00  0.00    +0.000 N 
ATOM      7  C   UNL     1      -4.371  12.063  18.932  0.00  0.00    +0.000 A 
ATOM      8  N   UNL     1      -5.095  12.893  19.697  0.00  0.00    +0.000 NA
ATOM      9  C   UNL     1      -6.426  12.942  19.483  0.00  0.00    +0.000 A 
ATOM     10  C   UNL     1      -7.074  12.195  18.534  0.00  0.00    +0.000 A 
ATOM     11  C   UNL     1      -6.266  11.364  17.808  0.00  0.00    +0.000 A 
ATOM     12  N   UNL     1      -4.937  11.281  17.994  0.00  0.00    +0.000 NA
ATOM     13  C   UNL     1      -2.233  11.020  18.370  0.00  0.00    +0.000 C 
ATOM     14  C   UNL     1      -1.571  10.074  19.377  0.00  0.00    +0.000 C 
ENDROOT
BRANCH   2  15
ATOM     15  C   UNL     1       1.352   9.658  19.869  0.00  0.00    +0.000 A 
ATOM     16  C   UNL     1       1.660   8.452  20.503  0.00  0.00    +0.000 A 
ATOM     17  C   UNL     1       2.100   7.363  19.753  0.00  0.00    +0.000 A 
ATOM     18  C   UNL     1       2.311   7.501  18.379  0.00  0.00    +0.000 A 
ATOM     19  C   UNL     1       2.185   8.759  17.786  0.00  0.00    +0.000 A 
ATOM     20  C   UNL     1       1.692   9.840  18.525  0.00  0.00    +0.000 A 
BRANCH  18  21
ATOM     21  O   UNL     1       2.634   6.466  17.539  0.00  0.00    +0.000 OA
BRANCH  21  22
ATOM     22  C   UNL     1       3.868   5.808  17.859  0.00  0.00    +0.000 C 
BRANCH  22  23
ATOM     23  C   UNL     1       3.691   4.343  18.187  0.00  0.00    +0.000 A 
ATOM     24  C   UNL     1       4.384   3.708  19.225  0.00  0.00    +0.000 A 
ATOM     25  C   UNL     1       4.192   2.348  19.478  0.00  0.00    +0.000 A 
ATOM     26  C   UNL     1       3.303   1.608  18.698  0.00  0.00    +0.000 A 
ATOM     27  C   UNL     1       2.601   2.228  17.667  0.00  0.00    +0.000 A 
ATOM     28  C   UNL     1       2.793   3.585  17.413  0.00  0.00    +0.000 A 
ENDBRANCH  22  23
ENDBRANCH  21  22
ENDBRANCH  18  21
ENDBRANCH   2  15
TORSDOF 4
ENDMDL
MODEL 9
REMARK VINA RESULT:      -7.6      0.987      1.383
REMARK  Name = 
REMARK  4 active torsions:
REMARK  status: ('A' for Active; 'I' for Inactive)
REMARK    1  A    between atoms: C_2  and  C_3
REMARK    2  A    between atoms: C_6  and  O_7
REMARK    3  A    between atoms: O_7  and  C_8
REMARK    4  A    between atoms: C_8  and  C_9
REMARK                            x       y       z     vdW  Elec       q    Type
REMARK                         _______ _______ _______ _____ _____    ______ ____
ROOT
ATOM      1  O   UNL     1      -2.165  10.622  18.334  0.00  0.00    +0.000 OA
ATOM      2  C   UNL     1      -1.430  10.914  19.273  0.00  0.00    +0.000 C 
ATOM      3  N   UNL     1      -1.688  11.970  20.153  0.00  0.00    +0.000 N 
ATOM      4  C   UNL     1      -2.865  12.828  19.940  0.00  0.00    +0.000 C 
ATOM      5  C   UNL     1      -3.831  12.812  21.149  0.00  0.00    +0.000 C 
ATOM      6  N   UNL     1      -3.103  13.002  22.407  0.00  0.00    +0.000 N 
ATOM      7  C   UNL     1      -3.316  14.071  23.235  0.00  0.00    +0.000 A 
ATOM      8  N   UNL     1      -4.288  14.948  22.942  0.00  0.00    +0.000 NA
ATOM      9  C   UNL     1      -4.503  15.956  23.811  0.00  0.00    +0.000 A 
ATOM     10  C   UNL     1      -3.788  16.134  24.967  0.00  0.00    +0.000 A 
ATOM     11  C   UNL     1      -2.807  15.205  25.182  0.00  0.00    +0.000 A 
ATOM     12  N   UNL     1      -2.556  14.189  24.339  0.00  0.00    +0.000 NA
ATOM     13  C   UNL     1      -1.955  12.133  22.626  0.00  0.00    +0.000 C 
ATOM     14  C   UNL     1      -0.999  12.232  21.433  0.00  0.00    +0.000 C 
ENDROOT
BRANCH   2  15
ATOM     15  C   UNL     1      -0.223  10.074  19.510  0.00  0.00    +0.000 A 
ATOM     16  C   UNL     1      -0.026   9.431  20.735  0.00  0.00    +0.000 A 
ATOM     17  C   UNL     1       0.937   8.431  20.851  0.00  0.00    +0.000 A 
ATOM     18  C   UNL     1       1.762   8.126  19.766  0.00  0.00    +0.000 A 
ATOM     19  C   UNL     1       1.688   8.902  18.607  0.00  0.00    +0.000 A 
ATOM     20  C   UNL     1       0.687   9.870  18.469  0.00  0.00    +0.000 A 
BRANCH  18  21
ATOM     21  O   UNL     1       2.658   7.089  19.744  0.00  0.00    +0.000 OA
BRANCH  21  22
ATOM     22  C   UNL     1       2.162   5.866  20.307  0.00  0.00    +0.000 C 
BRANCH  22  23
ATOM     23  C   UNL     1       2.214   4.704  19.342  0.00  0.00    +0.000 A 
ATOM     24  C   UNL     1       3.074   4.674  18.236  0.00  0.00    +0.000 A 
ATOM     25  C   UNL     1       3.074   3.580  17.368  0.00  0.00    +0.000 A 
ATOM     26  C   UNL     1       2.217   2.503  17.597  0.00  0.00    +0.000 A 
ATOM     27  C   UNL     1       1.362   2.517  18.696  0.00  0.00    +0.000 A 
ATOM     28  C   UNL     1       1.361   3.609  19.563  0.00  0.00    +0.000 A 
ENDBRANCH  22  23
ENDBRANCH  21  22
ENDBRANCH  18  21
ENDBRANCH   2  15
TORSDOF 4
ENDMDL
