MODEL 1
REMARK VINA RESULT:      -7.3      0.000      0.000
REMARK  Name = 
REMARK  6 active torsions:
REMARK  status: ('A' for Active; 'I' for Inactive)
REMARK    1  A    between atoms: C_1  and  O_2
REMARK    2  A    between atoms: O_2  and  C_3
REMARK    3  A    between atoms: C_6  and  S_7
REMARK    4  A    between atoms: S_7  and  N_10
REMARK    5  A    between atoms: C_13  and  N_14
REMARK    6  A    between atoms: C_18  and  C_19
REMARK                            x       y       z     vdW  Elec       q    Type
REMARK                         _______ _______ _______ _____ _____    ______ ____
ROOT
ATOM      1  N   UNL     1       2.580   7.556  18.968  0.00  0.00    +0.000 NA
ATOM      2  C   UNL     1       2.447   8.241  17.645  0.00  0.00    +0.000 C 
ATOM      3  C   UNL     1       2.201   9.733  17.814  0.00  0.00    +0.000 C 
ATOM      4  C   UNL     1       0.953  10.007  18.649  0.00  0.00    +0.000 C 
ATOM      5  C   UNL     1       1.159   9.352  20.014  0.00  0.00    +0.000 C 
ATOM      6  C   UNL     1       1.458   7.862  19.912  0.00  0.00    +0.000 C 
ENDROOT
BRANCH   4   7
ATOM      7  N   UNL     1      -0.266   9.477  18.009  0.00  0.00    +0.000 N 
ATOM      8  C   UNL     1      -1.447  10.223  18.194  0.00  0.00    +0.000 A 
ATOM      9  C   UNL     1      -2.620   9.767  17.595  0.00  0.00    +0.000 A 
ATOM     10  C   UNL     1      -3.813  10.464  17.788  0.00  0.00    +0.000 A 
ATOM     11  C   UNL     1      -3.815  11.608  18.577  0.00  0.00    +0.000 A 
ATOM     12  C   UNL     1      -5.057  12.397  18.842  0.00  0.00    +0.000 C 
ATOM     13  C   UNL     1      -2.604  11.989  19.133  0.00  0.00    +0.000 A 
ATOM     14  N   UNL     1      -1.432  11.339  18.946  0.00  0.00    +0.000 NA
ATOM     15  H   UNL     1      -0.481   8.531  18.315  0.00  0.00    +0.000 HD
ENDBRANCH   4   7
BRANCH   1  16
ATOM     16  S   UNL     1       2.796   5.840  18.829  0.00  0.00    +0.000 S 
ATOM     17  O   UNL     1       1.631   5.310  18.147  0.00  0.00    +0.000 OA
ATOM     18  O   UNL     1       3.191   5.334  20.122  0.00  0.00    +0.000 OA
BRANCH  16  22
ATOM     19  C   UNL     1       6.378   5.448  16.022  0.00  0.00    +0.000 A 
ATOM     20  C   UNL     1       6.334   6.468  16.979  0.00  0.00    +0.000 A 
ATOM     21  C   UNL     1       5.249   6.575  17.853  0.00  0.00    +0.000 A 
ATOM     22  C   UNL     1       4.193   5.671  17.746  0.00  0.00    +0.000 A 
ATOM     23  C   UNL     1       4.222   4.651  16.790  0.00  0.00    +0.000 A 
ATOM     24  C   UNL     1       5.319   4.543  15.928  0.00  0.00    +0.000 A 
BRANCH  19  26
ATOM     25  C   UNL     1       7.298   4.876  13.920  0.00  0.00    +0.000 C 
ATOM     26  O   UNL     1       7.478   5.456  15.208  0.00  0.00    +0.000 OA
ENDBRANCH  19  26
ENDBRANCH  16  22
ENDBRANCH   1  16
TORSDOF 4
ENDMDL
MODEL 2
REMARK VINA RESULT:      -7.2      0.482      1.019
REMARK  Name = 
REMARK  6 active torsions:
REMARK  status: ('A' for Active; 'I' for Inactive)
REMARK    1  A    between atoms: C_1  and  O_2
REMARK    2  A    between atoms: O_2  and  C_3
REMARK    3  A    between atoms: C_6  and  S_7
REMARK    4  A    between atoms: S_7  and  N_10
REMARK    5  A    between atoms: C_13  and  N_14
REMARK    6  A    between atoms: C_18  and  C_19
REMARK                            x       y       z     vdW  Elec       q    Type
REMARK                         _______ _______ _______ _____ _____    ______ ____
ROOT
ATOM      1  N   UNL     1       2.540   7.409  19.175  0.00  0.00    +0.000 NA
ATOM      2  C   UNL     1       2.517   8.064  17.830  0.00  0.00    +0.000 C 
ATOM      3  C   UNL     1       2.329   9.570  17.948  0.00  0.00    +0.000 C 
ATOM      4  C   UNL     1       1.046   9.919  18.698  0.00  0.00    +0.000 C 
ATOM      5  C   UNL     1       1.140   9.292  20.089  0.00  0.00    +0.000 C 
ATOM      6  C   UNL     1       1.378   7.789  20.041  0.00  0.00    +0.000 C 
ENDROOT
BRANCH   4   7
ATOM      7  N   UNL     1      -0.155   9.425  17.997  0.00  0.00    +0.000 N 
ATOM      8  C   UNL     1      -1.335  10.175  18.170  0.00  0.00    +0.000 A 
ATOM      9  C   UNL     1      -2.491   9.753  17.515  0.00  0.00    +0.000 A 
ATOM     10  C   UNL     1      -3.683  10.454  17.694  0.00  0.00    +0.000 A 
ATOM     11  C   UNL     1      -3.703  11.568  18.525  0.00  0.00    +0.000 A 
ATOM     12  C   UNL     1      -4.947  12.359  18.776  0.00  0.00    +0.000 C 
ATOM     13  C   UNL     1      -2.508  11.916  19.135  0.00  0.00    +0.000 A 
ATOM     14  N   UNL     1      -1.337  11.262  18.964  0.00  0.00    +0.000 NA
ATOM     15  H   UNL     1      -0.388   8.470  18.260  0.00  0.00    +0.000 HD
ENDBRANCH   4   7
BRANCH   1  16
ATOM     16  S   UNL     1       2.687   5.683  19.091  0.00  0.00    +0.000 S 
ATOM     17  O   UNL     1       1.554   5.188  18.332  0.00  0.00    +0.000 OA
ATOM     18  O   UNL     1       2.958   5.193  20.422  0.00  0.00    +0.000 OA
BRANCH  16  22
ATOM     19  C   UNL     1       6.452   4.971  16.607  0.00  0.00    +0.000 A 
ATOM     20  C   UNL     1       5.195   4.620  16.105  0.00  0.00    +0.000 A 
ATOM     21  C   UNL     1       4.040   4.858  16.856  0.00  0.00    +0.000 A 
ATOM     22  C   UNL     1       4.153   5.425  18.124  0.00  0.00    +0.000 A 
ATOM     23  C   UNL     1       5.406   5.775  18.639  0.00  0.00    +0.000 A 
ATOM     24  C   UNL     1       6.555   5.545  17.875  0.00  0.00    +0.000 A 
BRANCH  19  26
ATOM     25  C   UNL     1       7.276   4.809  14.396  0.00  0.00    +0.000 C 
ATOM     26  O   UNL     1       7.511   4.670  15.793  0.00  0.00    +0.000 OA
ENDBRANCH  19  26
ENDBRANCH  16  22
ENDBRANCH   1  16
TORSDOF 4
ENDMDL
MODEL 3
REMARK VINA RESULT:      -6.9      3.051      4.058
REMARK  Name = 
REMARK  6 active torsions:
REMARK  status: ('A' for Active; 'I' for Inactive)
REMARK    1  A    between atoms: C_1  and  O_2
REMARK    2  A    between atoms: O_2  and  C_3
REMARK    3  A    between atoms: C_6  and  S_7
REMARK    4  A    between atoms: S_7  and  N_10
REMARK    5  A    between atoms: C_13  and  N_14
REMARK    6  A    between atoms: C_18  and  C_19
REMARK                            x       y       z     vdW  Elec       q    Type
REMARK                         _______ _______ _______ _____ _____    ______ ____
ROOT
ATOM      1  N   UNL     1       2.654   3.466  19.049  0.00  0.00    +0.000 NA
ATOM      2  C   UNL     1       3.594   4.279  19.880  0.00  0.00    +0.000 C 
ATOM      3  C   UNL     1       2.951   4.706  21.192  0.00  0.00    +0.000 C 
ATOM      4  C   UNL     1       1.670   5.503  20.957  0.00  0.00    +0.000 C 
ATOM      5  C   UNL     1       0.712   4.612  20.168  0.00  0.00    +0.000 C 
ATOM      6  C   UNL     1       1.314   4.110  18.863  0.00  0.00    +0.000 C 
ENDROOT
BRANCH   4   7
ATOM      7  N   UNL     1       1.926   6.754  20.218  0.00  0.00    +0.000 N 
ATOM      8  C   UNL     1       1.248   7.901  20.674  0.00  0.00    +0.000 A 
ATOM      9  C   UNL     1       1.471   9.110  20.015  0.00  0.00    +0.000 A 
ATOM     10  C   UNL     1       0.787  10.256  20.420  0.00  0.00    +0.000 A 
ATOM     11  C   UNL     1      -0.110  10.179  21.479  0.00  0.00    +0.000 A 
ATOM     12  C   UNL     1      -0.890  11.361  21.957  0.00  0.00    +0.000 C 
ATOM     13  C   UNL     1      -0.269   8.938  22.076  0.00  0.00    +0.000 A 
ATOM     14  N   UNL     1       0.395   7.817  21.712  0.00  0.00    +0.000 NA
ATOM     15  H   UNL     1       1.703   6.670  19.229  0.00  0.00    +0.000 HD
ENDBRANCH   4   7
BRANCH   1  16
ATOM     16  S   UNL     1       3.320   3.010  17.513  0.00  0.00    +0.000 S 
ATOM     17  O   UNL     1       2.277   3.185  16.519  0.00  0.00    +0.000 OA
ATOM     18  O   UNL     1       3.982   1.737  17.674  0.00  0.00    +0.000 OA
BRANCH  16  22
ATOM     19  C   UNL     1       6.568   6.137  16.789  0.00  0.00    +0.000 A 
ATOM     20  C   UNL     1       6.910   4.820  17.111  0.00  0.00    +0.000 A 
ATOM     21  C   UNL     1       5.918   3.857  17.310  0.00  0.00    +0.000 A 
ATOM     22  C   UNL     1       4.577   4.227  17.214  0.00  0.00    +0.000 A 
ATOM     23  C   UNL     1       4.222   5.542  16.898  0.00  0.00    +0.000 A 
ATOM     24  C   UNL     1       5.223   6.496  16.687  0.00  0.00    +0.000 A 
BRANCH  19  26
ATOM     25  C   UNL     1       7.797   7.949  17.682  0.00  0.00    +0.000 C 
ATOM     26  O   UNL     1       7.623   6.996  16.639  0.00  0.00    +0.000 OA
ENDBRANCH  19  26
ENDBRANCH  16  22
ENDBRANCH   1  16
TORSDOF 4
ENDMDL
MODEL 4
REMARK VINA RESULT:      -6.7      3.244      4.250
REMARK  Name = 
REMARK  6 active torsions:
REMARK  status: ('A' for Active; 'I' for Inactive)
REMARK    1  A    between atoms: C_1  and  O_2
REMARK    2  A    between atoms: O_2  and  C_3
REMARK    3  A    between atoms: C_6  and  S_7
REMARK    4  A    between atoms: S_7  and  N_10
REMARK    5  A    between atoms: C_13  and  N_14
REMARK    6  A    between atoms: C_18  and  C_19
REMARK                            x       y       z     vdW  Elec       q    Type
REMARK                         _______ _______ _______ _____ _____    ______ ____
ROOT
ATOM      1  N   UNL     1       4.140   5.290  18.279  0.00  0.00    +0.000 NA
ATOM      2  C   UNL     1       3.650   4.753  19.587  0.00  0.00    +0.000 C 
ATOM      3  C   UNL     1       2.141   4.894  19.717  0.00  0.00    +0.000 C 
ATOM      4  C   UNL     1       1.698   6.348  19.573  0.00  0.00    +0.000 C 
ATOM      5  C   UNL     1       2.154   6.835  18.199  0.00  0.00    +0.000 C 
ATOM      6  C   UNL     1       3.653   6.676  17.986  0.00  0.00    +0.000 C 
ENDROOT
BRANCH   4   7
ATOM      7  N   UNL     1       2.266   7.205  20.632  0.00  0.00    +0.000 N 
ATOM      8  C   UNL     1       1.370   8.078  21.279  0.00  0.00    +0.000 A 
ATOM      9  C   UNL     1       1.860   8.896  22.297  0.00  0.00    +0.000 A 
ATOM     10  C   UNL     1       1.006   9.796  22.933  0.00  0.00    +0.000 A 
ATOM     11  C   UNL     1      -0.327   9.866  22.545  0.00  0.00    +0.000 A 
ATOM     12  C   UNL     1      -1.295  10.817  23.171  0.00  0.00    +0.000 C 
ATOM     13  C   UNL     1      -0.728   9.015  21.526  0.00  0.00    +0.000 A 
ATOM     14  N   UNL     1       0.077   8.123  20.906  0.00  0.00    +0.000 NA
ATOM     15  H   UNL     1       3.026   7.787  20.288  0.00  0.00    +0.000 HD
ENDBRANCH   4   7
BRANCH   1  16
ATOM     16  S   UNL     1       5.864   5.210  18.112  0.00  0.00    +0.000 S 
ATOM     17  O   UNL     1       6.326   4.091  18.912  0.00  0.00    +0.000 OA
ATOM     18  O   UNL     1       6.395   6.537  18.319  0.00  0.00    +0.000 OA
BRANCH  16  22
ATOM     19  C   UNL     1       6.504   4.118  13.724  0.00  0.00    +0.000 A 
ATOM     20  C   UNL     1       5.397   3.625  14.424  0.00  0.00    +0.000 A 
ATOM     21  C   UNL     1       5.189   3.978  15.760  0.00  0.00    +0.000 A 
ATOM     22  C   UNL     1       6.110   4.804  16.402  0.00  0.00    +0.000 A 
ATOM     23  C   UNL     1       7.224   5.297  15.714  0.00  0.00    +0.000 A 
ATOM     24  C   UNL     1       7.417   4.950  14.373  0.00  0.00    +0.000 A 
BRANCH  19  26
ATOM     25  C   UNL     1       5.435   3.137  11.857  0.00  0.00    +0.000 C 
ATOM     26  O   UNL     1       6.616   3.687  12.429  0.00  0.00    +0.000 OA
ENDBRANCH  19  26
ENDBRANCH  16  22
ENDBRANCH   1  16
TORSDOF 4
ENDMDL
MODEL 5
REMARK VINA RESULT:      -6.6      2.965      8.711
REMARK  Name = 
REMARK  6 active torsions:
REMARK  status: ('A' for Active; 'I' for Inactive)
REMARK    1  A    between atoms: C_1  and  O_2
REMARK    2  A    between atoms: O_2  and  C_3
REMARK    3  A    between atoms: C_6  and  S_7
REMARK    4  A    between atoms: S_7  and  N_10
REMARK    5  A    between atoms: C_13  and  N_14
REMARK    6  A    between atoms: C_18  and  C_19
REMARK                            x       y       z     vdW  Elec       q    Type
REMARK                         _______ _______ _______ _____ _____    ______ ____
ROOT
ATOM      1  N   UNL     1       4.204   5.874  19.121  0.00  0.00    +0.000 NA
ATOM      2  C   UNL     1       4.920   4.582  19.357  0.00  0.00    +0.000 C 
ATOM      3  C   UNL     1       6.400   4.697  19.022  0.00  0.00    +0.000 C 
ATOM      4  C   UNL     1       6.617   5.135  17.575  0.00  0.00    +0.000 C 
ATOM      5  C   UNL     1       5.931   6.489  17.396  0.00  0.00    +0.000 C 
ATOM      6  C   UNL     1       4.454   6.453  17.762  0.00  0.00    +0.000 C 
ENDROOT
BRANCH   4   7
ATOM      7  N   UNL     1       6.070   4.156  16.615  0.00  0.00    +0.000 N 
ATOM      8  C   UNL     1       6.460   4.312  15.271  0.00  0.00    +0.000 A 
ATOM      9  C   UNL     1       5.980   3.401  14.331  0.00  0.00    +0.000 A 
ATOM     10  C   UNL     1       6.320   3.549  12.987  0.00  0.00    +0.000 A 
ATOM     11  C   UNL     1       7.136   4.605  12.600  0.00  0.00    +0.000 A 
ATOM     12  C   UNL     1       7.529   4.835  11.176  0.00  0.00    +0.000 C 
ATOM     13  C   UNL     1       7.569   5.462  13.601  0.00  0.00    +0.000 A 
ATOM     14  N   UNL     1       7.266   5.329  14.912  0.00  0.00    +0.000 NA
ATOM     15  H   UNL     1       5.053   4.146  16.613  0.00  0.00    +0.000 HD
ENDBRANCH   4   7
BRANCH   1  16
ATOM     16  S   UNL     1       2.499   5.774  19.427  0.00  0.00    +0.000 S 
ATOM     17  O   UNL     1       2.330   5.271  20.778  0.00  0.00    +0.000 OA
ATOM     18  O   UNL     1       1.882   5.106  18.306  0.00  0.00    +0.000 OA
BRANCH  16  22
ATOM     19  C   UNL     1       1.156  10.138  19.345  0.00  0.00    +0.000 A 
ATOM     20  C   UNL     1       1.656   9.527  18.190  0.00  0.00    +0.000 A 
ATOM     21  C   UNL     1       2.045   8.186  18.208  0.00  0.00    +0.000 A 
ATOM     22  C   UNL     1       1.959   7.465  19.399  0.00  0.00    +0.000 A 
ATOM     23  C   UNL     1       1.468   8.066  20.562  0.00  0.00    +0.000 A 
ATOM     24  C   UNL     1       1.067   9.406  20.530  0.00  0.00    +0.000 A 
BRANCH  19  26
ATOM     25  C   UNL     1      -0.530  11.729  18.877  0.00  0.00    +0.000 C 
ATOM     26  O   UNL     1       0.828  11.461  19.212  0.00  0.00    +0.000 OA
ENDBRANCH  19  26
ENDBRANCH  16  22
ENDBRANCH   1  16
TORSDOF 4
ENDMDL
MODEL 6
REMARK VINA RESULT:      -6.6      3.204      8.763
REMARK  Name = 
REMARK  6 active torsions:
REMARK  status: ('A' for Active; 'I' for Inactive)
REMARK    1  A    between atoms: C_1  and  O_2
REMARK    2  A    between atoms: O_2  and  C_3
REMARK    3  A    between atoms: C_6  and  S_7
REMARK    4  A    between atoms: S_7  and  N_10
REMARK    5  A    between atoms: C_13  and  N_14
REMARK    6  A    between atoms: C_18  and  C_19
REMARK                            x       y       z     vdW  Elec       q    Type
REMARK                         _______ _______ _______ _____ _____    ______ ____
ROOT
ATOM      1  N   UNL     1       4.296   5.891  18.964  0.00  0.00    +0.000 NA
ATOM      2  C   UNL     1       5.085   4.633  19.153  0.00  0.00    +0.000 C 
ATOM      3  C   UNL     1       6.540   4.823  18.751  0.00  0.00    +0.000 C 
ATOM      4  C   UNL     1       6.668   5.284  17.302  0.00  0.00    +0.000 C 
ATOM      5  C   UNL     1       5.911   6.605  17.170  0.00  0.00    +0.000 C 
ATOM      6  C   UNL     1       4.455   6.494  17.603  0.00  0.00    +0.000 C 
ENDROOT
BRANCH   4   7
ATOM      7  N   UNL     1       6.126   4.289  16.356  0.00  0.00    +0.000 N 
ATOM      8  C   UNL     1       6.528   4.417  15.013  0.00  0.00    +0.000 A 
ATOM      9  C   UNL     1       6.051   3.490  14.087  0.00  0.00    +0.000 A 
ATOM     10  C   UNL     1       6.403   3.610  12.742  0.00  0.00    +0.000 A 
ATOM     11  C   UNL     1       7.228   4.655  12.342  0.00  0.00    +0.000 A 
ATOM     12  C   UNL     1       7.633   4.855  10.917  0.00  0.00    +0.000 C 
ATOM     13  C   UNL     1       7.655   5.529  13.330  0.00  0.00    +0.000 A 
ATOM     14  N   UNL     1       7.341   5.423  14.641  0.00  0.00    +0.000 NA
ATOM     15  H   UNL     1       5.108   4.284  16.346  0.00  0.00    +0.000 HD
ENDBRANCH   4   7
BRANCH   1  16
ATOM     16  S   UNL     1       2.615   5.706  19.347  0.00  0.00    +0.000 S 
ATOM     17  O   UNL     1       2.534   5.075  20.652  0.00  0.00    +0.000 OA
ATOM     18  O   UNL     1       1.958   5.123  18.201  0.00  0.00    +0.000 OA
BRANCH  16  22
ATOM     19  C   UNL     1       1.054   9.978  19.761  0.00  0.00    +0.000 A 
ATOM     20  C   UNL     1       1.073   9.119  20.865  0.00  0.00    +0.000 A 
ATOM     21  C   UNL     1       1.571   7.819  20.745  0.00  0.00    +0.000 A 
ATOM     22  C   UNL     1       2.025   7.373  19.504  0.00  0.00    +0.000 A 
ATOM     23  C   UNL     1       2.006   8.220  18.391  0.00  0.00    +0.000 A 
ATOM     24  C   UNL     1       1.518   9.524  18.525  0.00  0.00    +0.000 A 
BRANCH  19  26
ATOM     25  C   UNL     1       0.340  12.037  18.843  0.00  0.00    +0.000 C 
ATOM     26  O   UNL     1       0.523  11.218  19.993  0.00  0.00    +0.000 OA
ENDBRANCH  19  26
ENDBRANCH  16  22
ENDBRANCH   1  16
TORSDOF 4
ENDMDL
MODEL 7
REMARK VINA RESULT:      -6.5      3.402      5.160
REMARK  Name = 
REMARK  6 active torsions:
REMARK  status: ('A' for Active; 'I' for Inactive)
REMARK    1  A    between atoms: C_1  and  O_2
REMARK    2  A    between atoms: O_2  and  C_3
REMARK    3  A    between atoms: C_6  and  S_7
REMARK    4  A    between atoms: S_7  and  N_10
REMARK    5  A    between atoms: C_13  and  N_14
REMARK    6  A    between atoms: C_18  and  C_19
REMARK                            x       y       z     vdW  Elec       q    Type
REMARK                         _______ _______ _______ _____ _____    ______ ____
ROOT
ATOM      1  N   UNL     1       5.616   4.513  18.006  0.00  0.00    +0.000 NA
ATOM      2  C   UNL     1       5.307   5.538  19.051  0.00  0.00    +0.000 C 
ATOM      3  C   UNL     1       3.952   5.286  19.695  0.00  0.00    +0.000 C 
ATOM      4  C   UNL     1       2.830   5.270  18.659  0.00  0.00    +0.000 C 
ATOM      5  C   UNL     1       3.148   4.165  17.653  0.00  0.00    +0.000 C 
ATOM      6  C   UNL     1       4.515   4.333  17.006  0.00  0.00    +0.000 C 
ENDROOT
BRANCH   4   7
ATOM      7  N   UNL     1       2.701   6.567  17.967  0.00  0.00    +0.000 N 
ATOM      8  C   UNL     1       2.149   7.625  18.715  0.00  0.00    +0.000 A 
ATOM      9  C   UNL     1       2.021   8.872  18.106  0.00  0.00    +0.000 A 
ATOM     10  C   UNL     1       1.446   9.931  18.809  0.00  0.00    +0.000 A 
ATOM     11  C   UNL     1       1.007   9.728  20.112  0.00  0.00    +0.000 A 
ATOM     12  C   UNL     1       0.366  10.810  20.920  0.00  0.00    +0.000 C 
ATOM     13  C   UNL     1       1.174   8.456  20.638  0.00  0.00    +0.000 A 
ATOM     14  N   UNL     1       1.744   7.420  19.982  0.00  0.00    +0.000 NA
ATOM     15  H   UNL     1       2.139   6.497  17.122  0.00  0.00    +0.000 HD
ENDBRANCH   4   7
BRANCH   1  16
ATOM     16  S   UNL     1       7.123   4.797  17.196  0.00  0.00    +0.000 S 
ATOM     17  O   UNL     1       6.858   4.784  15.770  0.00  0.00    +0.000 OA
ATOM     18  O   UNL     1       8.112   3.917  17.773  0.00  0.00    +0.000 OA
BRANCH  16  22
ATOM     19  C   UNL     1       8.258   9.067  18.352  0.00  0.00    +0.000 A 
ATOM     20  C   UNL     1       7.468   8.823  17.223  0.00  0.00    +0.000 A 
ATOM     21  C   UNL     1       7.101   7.519  16.882  0.00  0.00    +0.000 A 
ATOM     22  C   UNL     1       7.554   6.455  17.661  0.00  0.00    +0.000 A 
ATOM     23  C   UNL     1       8.349   6.685  18.788  0.00  0.00    +0.000 A 
ATOM     24  C   UNL     1       8.700   7.996  19.130  0.00  0.00    +0.000 A 
BRANCH  19  26
ATOM     25  C   UNL     1       9.444  10.631  19.670  0.00  0.00    +0.000 C 
ATOM     26  O   UNL     1       8.571  10.381  18.574  0.00  0.00    +0.000 OA
ENDBRANCH  19  26
ENDBRANCH  16  22
ENDBRANCH   1  16
TORSDOF 4
ENDMDL
MODEL 8
REMARK VINA RESULT:      -6.4      3.105      4.400
REMARK  Name = 
REMARK  6 active torsions:
REMARK  status: ('A' for Active; 'I' for Inactive)
REMARK    1  A    between atoms: C_1  and  O_2
REMARK    2  A    between atoms: O_2  and  C_3
REMARK    3  A    between atoms: C_6  and  S_7
REMARK    4  A    between atoms: S_7  and  N_10
REMARK    5  A    between atoms: C_13  and  N_14
REMARK    6  A    between atoms: C_18  and  C_19
REMARK                            x       y       z     vdW  Elec       q    Type
REMARK                         _______ _______ _______ _____ _____    ______ ____
ROOT
ATOM      1  N   UNL     1       1.100  10.363  19.853  0.00  0.00    +0.000 NA
ATOM      2  C   UNL     1       1.023  11.858  19.866  0.00  0.00    +0.000 C 
ATOM      3  C   UNL     1       0.755  12.389  21.266  0.00  0.00    +0.000 C 
ATOM      4  C   UNL     1      -0.535  11.814  21.848  0.00  0.00    +0.000 C 
ATOM      5  C   UNL     1      -0.387  10.294  21.883  0.00  0.00    +0.000 C 
ATOM      6  C   UNL     1      -0.069   9.702  20.517  0.00  0.00    +0.000 C 
ENDROOT
BRANCH   4   7
ATOM      7  N   UNL     1      -1.717  12.193  21.050  0.00  0.00    +0.000 N 
ATOM      8  C   UNL     1      -2.889  12.496  21.770  0.00  0.00    +0.000 A 
ATOM      9  C   UNL     1      -4.026  12.873  21.057  0.00  0.00    +0.000 A 
ATOM     10  C   UNL     1      -5.212  13.145  21.739  0.00  0.00    +0.000 A 
ATOM     11  C   UNL     1      -5.244  13.038  23.125  0.00  0.00    +0.000 A 
ATOM     12  C   UNL     1      -6.483  13.298  23.921  0.00  0.00    +0.000 C 
ATOM     13  C   UNL     1      -4.067  12.657  23.751  0.00  0.00    +0.000 A 
ATOM     14  N   UNL     1      -2.902  12.405  23.113  0.00  0.00    +0.000 NA
ATOM     15  H   UNL     1      -1.976  11.472  20.381  0.00  0.00    +0.000 HD
ENDBRANCH   4   7
BRANCH   1  16
ATOM     16  S   UNL     1       1.340   9.706  18.265  0.00  0.00    +0.000 S 
ATOM     17  O   UNL     1       2.219  10.613  17.550  0.00  0.00    +0.000 OA
ATOM     18  O   UNL     1       0.047   9.351  17.729  0.00  0.00    +0.000 OA
BRANCH  16  22
ATOM     19  C   UNL     1       3.594   5.799  18.976  0.00  0.00    +0.000 A 
ATOM     20  C   UNL     1       3.804   6.537  17.807  0.00  0.00    +0.000 A 
ATOM     21  C   UNL     1       3.132   7.744  17.599  0.00  0.00    +0.000 A 
ATOM     22  C   UNL     1       2.225   8.196  18.556  0.00  0.00    +0.000 A 
ATOM     23  C   UNL     1       2.001   7.464  19.727  0.00  0.00    +0.000 A 
ATOM     24  C   UNL     1       2.690   6.263  19.933  0.00  0.00    +0.000 A 
BRANCH  19  26
ATOM     25  C   UNL     1       4.206   3.773  17.921  0.00  0.00    +0.000 C 
ATOM     26  O   UNL     1       4.290   4.623  19.059  0.00  0.00    +0.000 OA
ENDBRANCH  19  26
ENDBRANCH  16  22
ENDBRANCH   1  16
TORSDOF 4
ENDMDL
MODEL 9
REMARK VINA RESULT:      -6.4      3.909      7.975
REMARK  Name = 
REMARK  6 active torsions:
REMARK  status: ('A' for Active; 'I' for Inactive)
REMARK    1  A    between atoms: C_1  and  O_2
REMARK    2  A    between atoms: O_2  and  C_3
REMARK    3  A    between atoms: C_6  and  S_7
REMARK    4  A    between atoms: S_7  and  N_10
REMARK    5  A    between atoms: C_13  and  N_14
REMARK    6  A    between atoms: C_18  and  C_19
REMARK                            x       y       z     vdW  Elec       q    Type
REMARK                         _______ _______ _______ _____ _____    ______ ____
ROOT
ATOM      1  N   UNL     1       5.215   4.235  18.457  0.00  0.00    +0.000 NA
ATOM      2  C   UNL     1       5.888   4.380  17.128  0.00  0.00    +0.000 C 
ATOM      3  C   UNL     1       7.385   4.607  17.284  0.00  0.00    +0.000 C 
ATOM      4  C   UNL     1       7.681   5.839  18.135  0.00  0.00    +0.000 C 
ATOM      5  C   UNL     1       7.039   5.620  19.504  0.00  0.00    +0.000 C 
ATOM      6  C   UNL     1       5.545   5.339  19.414  0.00  0.00    +0.000 C 
ENDROOT
BRANCH   4   7
ATOM      7  N   UNL     1       7.158   7.073  17.518  0.00  0.00    +0.000 N 
ATOM      8  C   UNL     1       7.791   8.276  17.889  0.00  0.00    +0.000 A 
ATOM      9  C   UNL     1       7.339   9.466  17.320  0.00  0.00    +0.000 A 
ATOM     10  C   UNL     1       7.922  10.677  17.693  0.00  0.00    +0.000 A 
ATOM     11  C   UNL     1       8.950  10.682  18.629  0.00  0.00    +0.000 A 
ATOM     12  C   UNL     1       9.610  11.942  19.088  0.00  0.00    +0.000 C 
ATOM     13  C   UNL     1       9.336   9.453  19.142  0.00  0.00    +0.000 A 
ATOM     14  N   UNL     1       8.797   8.265  18.783  0.00  0.00    +0.000 NA
ATOM     15  H   UNL     1       6.168   7.208  17.707  0.00  0.00    +0.000 HD
ENDBRANCH   4   7
BRANCH   1  16
ATOM     16  S   UNL     1       3.496   4.040  18.333  0.00  0.00    +0.000 S 
ATOM     17  O   UNL     1       3.086   3.135  19.391  0.00  0.00    +0.000 OA
ATOM     18  O   UNL     1       3.177   3.760  16.954  0.00  0.00    +0.000 OA
BRANCH  16  22
ATOM     19  C   UNL     1       1.890   8.205  19.296  0.00  0.00    +0.000 A 
ATOM     20  C   UNL     1       2.459   7.935  18.047  0.00  0.00    +0.000 A 
ATOM     21  C   UNL     1       2.930   6.655  17.744  0.00  0.00    +0.000 A 
ATOM     22  C   UNL     1       2.854   5.652  18.709  0.00  0.00    +0.000 A 
ATOM     23  C   UNL     1       2.293   5.911  19.963  0.00  0.00    +0.000 A 
ATOM     24  C   UNL     1       1.811   7.192  20.253  0.00  0.00    +0.000 A 
BRANCH  19  26
ATOM     25  C   UNL     1       0.451   9.687  20.449  0.00  0.00    +0.000 C 
ATOM     26  O   UNL     1       1.484   9.498  19.487  0.00  0.00    +0.000 OA
ENDBRANCH  19  26
ENDBRANCH  16  22
ENDBRANCH   1  16
TORSDOF 4
ENDMDL
