MODEL 1
REMARK VINA RESULT:      -7.2      0.000      0.000
REMARK  Name = 
REMARK  6 active torsions:
REMARK  status: ('A' for Active; 'I' for Inactive)
REMARK    1  A    between atoms: C_1  and  C_2
REMARK    2  A    between atoms: C_2  and  O_3
REMARK    3  A    between atoms: O_3  and  C_4
REMARK    4  A    between atoms: N_6  and  C_7
REMARK    5  A    between atoms: C_7  and  C_8
REMARK    6  A    between atoms: C_7  and  C_9
REMARK                            x       y       z     vdW  Elec       q    Type
REMARK                         _______ _______ _______ _____ _____    ______ ____
ROOT
ATOM      1  C   UNL     1       5.149   4.358  17.442  0.00  0.00    +0.000 A 
ATOM      2  N   UNL     1       4.012   3.907  16.952  0.00  0.00    +0.000 NA
ATOM      3  C   UNL     1       3.122   3.643  17.977  0.00  0.00    +0.000 A 
ATOM      4  C   UNL     1       1.815   3.139  17.820  0.00  0.00    +0.000 A 
ATOM      5  C   UNL     1       1.006   2.949  18.944  0.00  0.00    +0.000 A 
ATOM      6  C   UNL     1       1.493   3.253  20.207  0.00  0.00    +0.000 A 
ATOM      7  F   UNL     1       0.699   3.078  21.271  0.00  0.00    +0.000 F 
ATOM      8  C   UNL     1       2.787   3.735  20.402  0.00  0.00    +0.000 A 
ATOM      9  C   UNL     1       3.589   3.921  19.263  0.00  0.00    +0.000 A 
ATOM     10  S   UNL     1       5.210   4.493  19.157  0.00  0.00    +0.000 S 
ENDROOT
BRANCH   1  11
ATOM     11  C   UNL     1       6.328   4.806  16.610  0.00  0.00    +0.000 C 
ATOM     12  C   UNL     1       7.657   4.520  17.300  0.00  0.00    +0.000 C 
BRANCH  11  15
ATOM     13  C   UNL     1       6.888   4.569  14.228  0.00  0.00    +0.000 C 
ATOM     14  O   UNL     1       7.609   5.552  14.181  0.00  0.00    +0.000 OA
ATOM     15  N   UNL     1       6.266   4.108  15.341  0.00  0.00    +0.000 N 
ATOM     16  H   UNL     1       5.671   3.298  15.235  0.00  0.00    +0.000 HD
BRANCH  13  17
ATOM     17  O   UNL     1       6.507   3.812  13.172  0.00  0.00    +0.000 OA
BRANCH  17  19
ATOM     18  C   UNL     1       4.807   3.178  11.613  0.00  0.00    +0.000 C 
ATOM     19  C   UNL     1       5.093   3.628  13.036  0.00  0.00    +0.000 C 
ENDBRANCH  17  19
ENDBRANCH  13  17
ENDBRANCH  11  15
ENDBRANCH   1  11
TORSDOF 4
ENDMDL
MODEL 2
REMARK VINA RESULT:      -7.1      1.626      1.863
REMARK  Name = 
REMARK  6 active torsions:
REMARK  status: ('A' for Active; 'I' for Inactive)
REMARK    1  A    between atoms: C_1  and  C_2
REMARK    2  A    between atoms: C_2  and  O_3
REMARK    3  A    between atoms: O_3  and  C_4
REMARK    4  A    between atoms: N_6  and  C_7
REMARK    5  A    between atoms: C_7  and  C_8
REMARK    6  A    between atoms: C_7  and  C_9
REMARK                            x       y       z     vdW  Elec       q    Type
REMARK                         _______ _______ _______ _____ _____    ______ ____
ROOT
ATOM      1  C   UNL     1       5.540   5.301  18.367  0.00  0.00    +0.000 A 
ATOM      2  N   UNL     1       5.520   4.145  18.999  0.00  0.00    +0.000 NA
ATOM      3  C   UNL     1       4.223   3.815  19.350  0.00  0.00    +0.000 A 
ATOM      4  C   UNL     1       3.831   2.653  20.045  0.00  0.00    +0.000 A 
ATOM      5  C   UNL     1       2.477   2.427  20.307  0.00  0.00    +0.000 A 
ATOM      6  C   UNL     1       1.526   3.346  19.886  0.00  0.00    +0.000 A 
ATOM      7  F   UNL     1       0.233   3.104  20.133  0.00  0.00    +0.000 F 
ATOM      8  C   UNL     1       1.880   4.515  19.212  0.00  0.00    +0.000 A 
ATOM      9  C   UNL     1       3.245   4.730  18.956  0.00  0.00    +0.000 A 
ATOM     10  S   UNL     1       4.005   6.053  18.158  0.00  0.00    +0.000 S 
ENDROOT
BRANCH   1  11
ATOM     11  C   UNL     1       6.777   5.943  17.785  0.00  0.00    +0.000 C 
ATOM     12  C   UNL     1       7.908   6.035  18.804  0.00  0.00    +0.000 C 
BRANCH  11  15
ATOM     13  C   UNL     1       6.625   5.274  15.425  0.00  0.00    +0.000 C 
ATOM     14  O   UNL     1       5.773   6.094  15.127  0.00  0.00    +0.000 OA
ATOM     15  N   UNL     1       7.195   5.147  16.648  0.00  0.00    +0.000 N 
ATOM     16  H   UNL     1       7.869   4.404  16.768  0.00  0.00    +0.000 HD
BRANCH  13  17
ATOM     17  O   UNL     1       7.094   4.289  14.622  0.00  0.00    +0.000 OA
BRANCH  17  19
ATOM     18  C   UNL     1       6.859   3.937  12.268  0.00  0.00    +0.000 C 
ATOM     19  C   UNL     1       6.176   3.833  13.621  0.00  0.00    +0.000 C 
ENDBRANCH  17  19
ENDBRANCH  13  17
ENDBRANCH  11  15
ENDBRANCH   1  11
TORSDOF 4
ENDMDL
MODEL 3
REMARK VINA RESULT:      -7.0      2.366      3.709
REMARK  Name = 
REMARK  6 active torsions:
REMARK  status: ('A' for Active; 'I' for Inactive)
REMARK    1  A    between atoms: C_1  and  C_2
REMARK    2  A    between atoms: C_2  and  O_3
REMARK    3  A    between atoms: O_3  and  C_4
REMARK    4  A    between atoms: N_6  and  C_7
REMARK    5  A    between atoms: C_7  and  C_8
REMARK    6  A    between atoms: C_7  and  C_9
REMARK                            x       y       z     vdW  Elec       q    Type
REMARK                         _______ _______ _______ _____ _____    ______ ____
ROOT
ATOM      1  C   UNL     1       5.009   4.395  17.046  0.00  0.00    +0.000 A 
ATOM      2  N   UNL     1       4.604   3.153  17.221  0.00  0.00    +0.000 NA
ATOM      3  C   UNL     1       3.466   3.128  18.007  0.00  0.00    +0.000 A 
ATOM      4  C   UNL     1       2.768   1.969  18.405  0.00  0.00    +0.000 A 
ATOM      5  C   UNL     1       1.608   2.091  19.175  0.00  0.00    +0.000 A 
ATOM      6  C   UNL     1       1.152   3.346  19.549  0.00  0.00    +0.000 A 
ATOM      7  F   UNL     1       0.031   3.443  20.274  0.00  0.00    +0.000 F 
ATOM      8  C   UNL     1       1.828   4.512  19.189  0.00  0.00    +0.000 A 
ATOM      9  C   UNL     1       2.992   4.376  18.415  0.00  0.00    +0.000 A 
ATOM     10  S   UNL     1       4.045   5.598  17.812  0.00  0.00    +0.000 S 
ENDROOT
BRANCH   1  11
ATOM     11  C   UNL     1       6.186   4.805  16.192  0.00  0.00    +0.000 C 
ATOM     12  C   UNL     1       5.754   5.245  14.797  0.00  0.00    +0.000 C 
BRANCH  11  15
ATOM     13  C   UNL     1       7.642   5.691  17.962  0.00  0.00    +0.000 C 
ATOM     14  O   UNL     1       7.908   4.604  18.448  0.00  0.00    +0.000 OA
ATOM     15  N   UNL     1       6.867   5.890  16.868  0.00  0.00    +0.000 N 
ATOM     16  H   UNL     1       6.702   6.847  16.588  0.00  0.00    +0.000 HD
BRANCH  13  17
ATOM     17  O   UNL     1       7.995   6.896  18.470  0.00  0.00    +0.000 OA
BRANCH  17  19
ATOM     18  C   UNL     1       8.421   9.234  18.201  0.00  0.00    +0.000 C 
ATOM     19  C   UNL     1       7.726   8.016  17.618  0.00  0.00    +0.000 C 
ENDBRANCH  17  19
ENDBRANCH  13  17
ENDBRANCH  11  15
ENDBRANCH   1  11
TORSDOF 4
ENDMDL
MODEL 4
REMARK VINA RESULT:      -7.0      1.936      2.321
REMARK  Name = 
REMARK  6 active torsions:
REMARK  status: ('A' for Active; 'I' for Inactive)
REMARK    1  A    between atoms: C_1  and  C_2
REMARK    2  A    between atoms: C_2  and  O_3
REMARK    3  A    between atoms: O_3  and  C_4
REMARK    4  A    between atoms: N_6  and  C_7
REMARK    5  A    between atoms: C_7  and  C_8
REMARK    6  A    between atoms: C_7  and  C_9
REMARK                            x       y       z     vdW  Elec       q    Type
REMARK                         _______ _______ _______ _____ _____    ______ ____
ROOT
ATOM      1  C   UNL     1       5.508   5.114  18.714  0.00  0.00    +0.000 A 
ATOM      2  N   UNL     1       5.454   3.813  18.912  0.00  0.00    +0.000 NA
ATOM      3  C   UNL     1       4.139   3.384  18.916  0.00  0.00    +0.000 A 
ATOM      4  C   UNL     1       3.709   2.056  19.110  0.00  0.00    +0.000 A 
ATOM      5  C   UNL     1       2.346   1.755  19.056  0.00  0.00    +0.000 A 
ATOM      6  C   UNL     1       1.422   2.762  18.816  0.00  0.00    +0.000 A 
ATOM      7  F   UNL     1       0.121   2.453  18.753  0.00  0.00    +0.000 F 
ATOM      8  C   UNL     1       1.811   4.090  18.638  0.00  0.00    +0.000 A 
ATOM      9  C   UNL     1       3.185   4.379  18.695  0.00  0.00    +0.000 A 
ATOM     10  S   UNL     1       3.985   5.893  18.519  0.00  0.00    +0.000 S 
ENDROOT
BRANCH   1  11
ATOM     11  C   UNL     1       6.783   5.915  18.590  0.00  0.00    +0.000 C 
ATOM     12  C   UNL     1       7.742   5.647  19.746  0.00  0.00    +0.000 C 
BRANCH  11  15
ATOM     13  C   UNL     1       6.981   6.053  16.144  0.00  0.00    +0.000 C 
ATOM     14  O   UNL     1       6.099   6.882  16.003  0.00  0.00    +0.000 OA
ATOM     15  N   UNL     1       7.409   5.558  17.332  0.00  0.00    +0.000 N 
ATOM     16  H   UNL     1       8.130   4.851  17.304  0.00  0.00    +0.000 HD
BRANCH  13  17
ATOM     17  O   UNL     1       7.635   5.410  15.146  0.00  0.00    +0.000 OA
BRANCH  17  19
ATOM     18  C   UNL     1       5.965   3.712  14.925  0.00  0.00    +0.000 C 
ATOM     19  C   UNL     1       6.790   4.755  14.191  0.00  0.00    +0.000 C 
ENDBRANCH  17  19
ENDBRANCH  13  17
ENDBRANCH  11  15
ENDBRANCH   1  11
TORSDOF 4
ENDMDL
MODEL 5
REMARK VINA RESULT:      -7.0      2.567      3.989
REMARK  Name = 
REMARK  6 active torsions:
REMARK  status: ('A' for Active; 'I' for Inactive)
REMARK    1  A    between atoms: C_1  and  C_2
REMARK    2  A    between atoms: C_2  and  O_3
REMARK    3  A    between atoms: O_3  and  C_4
REMARK    4  A    between atoms: N_6  and  C_7
REMARK    5  A    between atoms: C_7  and  C_8
REMARK    6  A    between atoms: C_7  and  C_9
REMARK                            x       y       z     vdW  Elec       q    Type
REMARK                         _______ _______ _______ _____ _____    ______ ____
ROOT
ATOM      1  C   UNL     1       4.822   4.906  17.521  0.00  0.00    +0.000 A 
ATOM      2  N   UNL     1       4.118   5.800  18.185  0.00  0.00    +0.000 NA
ATOM      3  C   UNL     1       3.236   5.171  19.045  0.00  0.00    +0.000 A 
ATOM      4  C   UNL     1       2.321   5.817  19.901  0.00  0.00    +0.000 A 
ATOM      5  C   UNL     1       1.508   5.058  20.746  0.00  0.00    +0.000 A 
ATOM      6  C   UNL     1       1.600   3.673  20.737  0.00  0.00    +0.000 A 
ATOM      7  F   UNL     1       0.824   2.963  21.564  0.00  0.00    +0.000 F 
ATOM      8  C   UNL     1       2.480   3.000  19.889  0.00  0.00    +0.000 A 
ATOM      9  C   UNL     1       3.292   3.776  19.045  0.00  0.00    +0.000 A 
ATOM     10  S   UNL     1       4.467   3.263  17.896  0.00  0.00    +0.000 S 
ENDROOT
BRANCH   1  11
ATOM     11  C   UNL     1       5.923   5.233  16.540  0.00  0.00    +0.000 C 
ATOM     12  C   UNL     1       5.373   5.732  15.208  0.00  0.00    +0.000 C 
BRANCH  11  15
ATOM     13  C   UNL     1       7.663   5.958  18.117  0.00  0.00    +0.000 C 
ATOM     14  O   UNL     1       7.911   4.841  18.538  0.00  0.00    +0.000 OA
ATOM     15  N   UNL     1       6.766   6.246  17.142  0.00  0.00    +0.000 N 
ATOM     16  H   UNL     1       6.636   7.221  16.908  0.00  0.00    +0.000 HD
BRANCH  13  17
ATOM     17  O   UNL     1       8.168   7.119  18.599  0.00  0.00    +0.000 OA
BRANCH  17  19
ATOM     18  C   UNL     1       8.608   9.464  18.429  0.00  0.00    +0.000 C 
ATOM     19  C   UNL     1       7.912   8.274  17.791  0.00  0.00    +0.000 C 
ENDBRANCH  17  19
ENDBRANCH  13  17
ENDBRANCH  11  15
ENDBRANCH   1  11
TORSDOF 4
ENDMDL
MODEL 6
REMARK VINA RESULT:      -6.9      4.265      6.511
REMARK  Name = 
REMARK  6 active torsions:
REMARK  status: ('A' for Active; 'I' for Inactive)
REMARK    1  A    between atoms: C_1  and  C_2
REMARK    2  A    between atoms: C_2  and  O_3
REMARK    3  A    between atoms: O_3  and  C_4
REMARK    4  A    between atoms: N_6  and  C_7
REMARK    5  A    between atoms: C_7  and  C_8
REMARK    6  A    between atoms: C_7  and  C_9
REMARK                            x       y       z     vdW  Elec       q    Type
REMARK                         _______ _______ _______ _____ _____    ______ ____
ROOT
ATOM      1  C   UNL     1       4.548   3.633  18.021  0.00  0.00    +0.000 A 
ATOM      2  N   UNL     1       5.493   3.837  18.916  0.00  0.00    +0.000 NA
ATOM      3  C   UNL     1       6.247   4.944  18.572  0.00  0.00    +0.000 A 
ATOM      4  C   UNL     1       7.347   5.447  19.296  0.00  0.00    +0.000 A 
ATOM      5  C   UNL     1       8.001   6.598  18.851  0.00  0.00    +0.000 A 
ATOM      6  C   UNL     1       7.570   7.240  17.699  0.00  0.00    +0.000 A 
ATOM      7  F   UNL     1       8.199   8.350  17.296  0.00  0.00    +0.000 F 
ATOM      8  C   UNL     1       6.497   6.760  16.947  0.00  0.00    +0.000 A 
ATOM      9  C   UNL     1       5.849   5.600  17.406  0.00  0.00    +0.000 A 
ATOM     10  S   UNL     1       4.511   4.761  16.721  0.00  0.00    +0.000 S 
ENDROOT
BRANCH   1  11
ATOM     11  C   UNL     1       3.500   2.549  18.107  0.00  0.00    +0.000 C 
ATOM     12  C   UNL     1       4.103   1.198  18.481  0.00  0.00    +0.000 C 
BRANCH  11  15
ATOM     13  C   UNL     1       1.382   3.602  18.774  0.00  0.00    +0.000 C 
ATOM     14  O   UNL     1       1.015   3.852  17.639  0.00  0.00    +0.000 OA
ATOM     15  N   UNL     1       2.526   2.951  19.101  0.00  0.00    +0.000 N 
ATOM     16  H   UNL     1       2.726   2.836  20.085  0.00  0.00    +0.000 HD
BRANCH  13  17
ATOM     17  O   UNL     1       0.767   4.000  19.914  0.00  0.00    +0.000 OA
BRANCH  17  19
ATOM     18  C   UNL     1       1.733   6.075  20.608  0.00  0.00    +0.000 C 
ATOM     19  C   UNL     1       1.630   4.587  20.896  0.00  0.00    +0.000 C 
ENDBRANCH  17  19
ENDBRANCH  13  17
ENDBRANCH  11  15
ENDBRANCH   1  11
TORSDOF 4
ENDMDL
MODEL 7
REMARK VINA RESULT:      -6.9      1.352      1.387
REMARK  Name = 
REMARK  6 active torsions:
REMARK  status: ('A' for Active; 'I' for Inactive)
REMARK    1  A    between atoms: C_1  and  C_2
REMARK    2  A    between atoms: C_2  and  O_3
REMARK    3  A    between atoms: O_3  and  C_4
REMARK    4  A    between atoms: N_6  and  C_7
REMARK    5  A    between atoms: C_7  and  C_8
REMARK    6  A    between atoms: C_7  and  C_9
REMARK                            x       y       z     vdW  Elec       q    Type
REMARK                         _______ _______ _______ _____ _____    ______ ____
ROOT
ATOM      1  C   UNL     1       4.859   5.625  17.702  0.00  0.00    +0.000 A 
ATOM      2  N   UNL     1       3.610   5.415  17.338  0.00  0.00    +0.000 NA
ATOM      3  C   UNL     1       2.966   4.625  18.274  0.00  0.00    +0.000 A 
ATOM      4  C   UNL     1       1.626   4.194  18.202  0.00  0.00    +0.000 A 
ATOM      5  C   UNL     1       1.090   3.425  19.238  0.00  0.00    +0.000 A 
ATOM      6  C   UNL     1       1.877   3.084  20.328  0.00  0.00    +0.000 A 
ATOM      7  F   UNL     1       1.342   2.359  21.318  0.00  0.00    +0.000 F 
ATOM      8  C   UNL     1       3.212   3.478  20.424  0.00  0.00    +0.000 A 
ATOM      9  C   UNL     1       3.738   4.251  19.375  0.00  0.00    +0.000 A 
ATOM     10  S   UNL     1       5.326   4.891  19.188  0.00  0.00    +0.000 S 
ENDROOT
BRANCH   1  11
ATOM     11  C   UNL     1       5.840   6.494  16.951  0.00  0.00    +0.000 C 
ATOM     12  C   UNL     1       7.154   6.660  17.709  0.00  0.00    +0.000 C 
BRANCH  11  15
ATOM     13  C   UNL     1       7.037   4.930  15.481  0.00  0.00    +0.000 C 
ATOM     14  O   UNL     1       7.730   4.451  16.362  0.00  0.00    +0.000 OA
ATOM     15  N   UNL     1       6.083   5.876  15.663  0.00  0.00    +0.000 N 
ATOM     16  H   UNL     1       5.601   6.209  14.840  0.00  0.00    +0.000 HD
BRANCH  13  17
ATOM     17  O   UNL     1       7.148   4.674  14.155  0.00  0.00    +0.000 OA
BRANCH  17  19
ATOM     18  C   UNL     1       6.481   3.492  12.186  0.00  0.00    +0.000 C 
ATOM     19  C   UNL     1       6.086   3.889  13.598  0.00  0.00    +0.000 C 
ENDBRANCH  17  19
ENDBRANCH  13  17
ENDBRANCH  11  15
ENDBRANCH   1  11
TORSDOF 4
ENDMDL
MODEL 8
REMARK VINA RESULT:      -6.9      2.164      3.540
REMARK  Name = 
REMARK  6 active torsions:
REMARK  status: ('A' for Active; 'I' for Inactive)
REMARK    1  A    between atoms: C_1  and  C_2
REMARK    2  A    between atoms: C_2  and  O_3
REMARK    3  A    between atoms: O_3  and  C_4
REMARK    4  A    between atoms: N_6  and  C_7
REMARK    5  A    between atoms: C_7  and  C_8
REMARK    6  A    between atoms: C_7  and  C_9
REMARK                            x       y       z     vdW  Elec       q    Type
REMARK                         _______ _______ _______ _____ _____    ______ ____
ROOT
ATOM      1  C   UNL     1       4.841   4.014  17.510  0.00  0.00    +0.000 A 
ATOM      2  N   UNL     1       3.762   3.344  17.158  0.00  0.00    +0.000 NA
ATOM      3  C   UNL     1       2.943   3.146  18.256  0.00  0.00    +0.000 A 
ATOM      4  C   UNL     1       1.712   2.459  18.248  0.00  0.00    +0.000 A 
ATOM      5  C   UNL     1       0.967   2.362  19.426  0.00  0.00    +0.000 A 
ATOM      6  C   UNL     1       1.441   2.936  20.597  0.00  0.00    +0.000 A 
ATOM      7  F   UNL     1       0.706   2.846  21.711  0.00  0.00    +0.000 F 
ATOM      8  C   UNL     1       2.663   3.607  20.644  0.00  0.00    +0.000 A 
ATOM      9  C   UNL     1       3.403   3.697  19.453  0.00  0.00    +0.000 A 
ATOM     10  S   UNL     1       4.928   4.447  19.175  0.00  0.00    +0.000 S 
ENDROOT
BRANCH   1  11
ATOM     11  C   UNL     1       5.926   4.461  16.559  0.00  0.00    +0.000 C 
ATOM     12  C   UNL     1       5.372   4.799  15.179  0.00  0.00    +0.000 C 
BRANCH  11  15
ATOM     13  C   UNL     1       7.645   5.526  17.956  0.00  0.00    +0.000 C 
ATOM     14  O   UNL     1       8.223   4.490  18.236  0.00  0.00    +0.000 OA
ATOM     15  N   UNL     1       6.569   5.624  17.136  0.00  0.00    +0.000 N 
ATOM     16  H   UNL     1       6.166   6.543  17.012  0.00  0.00    +0.000 HD
BRANCH  13  17
ATOM     17  O   UNL     1       7.910   6.750  18.472  0.00  0.00    +0.000 OA
BRANCH  17  19
ATOM     18  C   UNL     1       8.360   9.073  18.124  0.00  0.00    +0.000 C 
ATOM     19  C   UNL     1       7.624   7.851  17.602  0.00  0.00    +0.000 C 
ENDBRANCH  17  19
ENDBRANCH  13  17
ENDBRANCH  11  15
ENDBRANCH   1  11
TORSDOF 4
ENDMDL
MODEL 9
REMARK VINA RESULT:      -6.8      2.026      3.446
REMARK  Name = 
REMARK  6 active torsions:
REMARK  status: ('A' for Active; 'I' for Inactive)
REMARK    1  A    between atoms: C_1  and  C_2
REMARK    2  A    between atoms: C_2  and  O_3
REMARK    3  A    between atoms: O_3  and  C_4
REMARK    4  A    between atoms: N_6  and  C_7
REMARK    5  A    between atoms: C_7  and  C_8
REMARK    6  A    between atoms: C_7  and  C_9
REMARK                            x       y       z     vdW  Elec       q    Type
REMARK                         _______ _______ _______ _____ _____    ______ ____
ROOT
ATOM      1  C   UNL     1       4.465   4.032  17.630  0.00  0.00    +0.000 A 
ATOM      2  N   UNL     1       3.218   3.712  17.352  0.00  0.00    +0.000 NA
ATOM      3  C   UNL     1       2.545   3.362  18.509  0.00  0.00    +0.000 A 
ATOM      4  C   UNL     1       1.197   2.954  18.584  0.00  0.00    +0.000 A 
ATOM      5  C   UNL     1       0.631   2.661  19.827  0.00  0.00    +0.000 A 
ATOM      6  C   UNL     1       1.396   2.768  20.980  0.00  0.00    +0.000 A 
ATOM      7  F   UNL     1       0.832   2.497  22.163  0.00  0.00    +0.000 F 
ATOM      8  C   UNL     1       2.737   3.150  20.941  0.00  0.00    +0.000 A 
ATOM      9  C   UNL     1       3.294   3.442  19.684  0.00  0.00    +0.000 A 
ATOM     10  S   UNL     1       4.896   3.935  19.294  0.00  0.00    +0.000 S 
ENDROOT
BRANCH   1  11
ATOM     11  C   UNL     1       5.475   4.523  16.619  0.00  0.00    +0.000 C 
ATOM     12  C   UNL     1       4.959   4.398  15.189  0.00  0.00    +0.000 C 
BRANCH  11  15
ATOM     13  C   UNL     1       6.893   6.525  16.482  0.00  0.00    +0.000 C 
ATOM     14  O   UNL     1       7.724   6.027  15.742  0.00  0.00    +0.000 OA
ATOM     15  N   UNL     1       5.769   5.908  16.923  0.00  0.00    +0.000 N 
ATOM     16  H   UNL     1       5.178   6.427  17.558  0.00  0.00    +0.000 HD
BRANCH  13  17
ATOM     17  O   UNL     1       6.977   7.745  17.066  0.00  0.00    +0.000 OA
BRANCH  17  19
ATOM     18  C   UNL     1       8.388   9.361  18.123  0.00  0.00    +0.000 C 
ATOM     19  C   UNL     1       8.035   7.887  18.022  0.00  0.00    +0.000 C 
ENDBRANCH  17  19
ENDBRANCH  13  17
ENDBRANCH  11  15
ENDBRANCH   1  11
TORSDOF 4
ENDMDL
