MODEL 1
REMARK VINA RESULT:      -6.4      0.000      0.000
REMARK  Name = 
REMARK  7 active torsions:
REMARK  status: ('A' for Active; 'I' for Inactive)
REMARK    1  A    between atoms: C_1  and  S_2
REMARK    2  A    between atoms: S_2  and  C_3
REMARK    3  A    between atoms: C_4  and  C_5
REMARK    4  A    between atoms: C_5  and  C_6
REMARK    5  A    between atoms: C_6  and  C_7
REMARK    6  A    between atoms: C_13  and  S_14
REMARK    7  A    between atoms: S_14  and  C_15
REMARK                            x       y       z     vdW  Elec       q    Type
REMARK                         _______ _______ _______ _____ _____    ______ ____
ROOT
ATOM      1  C   UNL     1       3.485   3.797  18.438  0.00  0.00    +0.000 A 
ATOM      2  C   UNL     1       4.230   4.377  17.358  0.00  0.00    +0.000 A 
ATOM      3  C   UNL     1       4.061   5.757  17.473  0.00  0.00    +0.000 A 
ATOM      4  N   UNL     1       3.241   6.012  18.562  0.00  0.00    +0.000 N 
ATOM      5  C   UNL     1       2.753   7.195  19.115  0.00  0.00    +0.000 A 
ATOM      6  C   UNL     1       1.952   7.129  20.188  0.00  0.00    +0.000 A 
ATOM      7  N   UNL     1       1.565   5.951  20.796  0.00  0.00    +0.000 NA
ATOM      8  C   UNL     1       2.014   4.838  20.282  0.00  0.00    +0.000 A 
ATOM      9  C   UNL     1       2.889   4.814  19.138  0.00  0.00    +0.000 A 
ENDROOT
BRANCH   1  11
ATOM     10  C   UNL     1       4.473   1.894  20.143  0.00  0.00    +0.000 C 
ATOM     11  S   UNL     1       3.302   2.089  18.779  0.00  0.00    +0.000 S 
ENDBRANCH   1  11
BRANCH   3  12
ATOM     12  S   UNL     1       4.750   7.090  16.574  0.00  0.00    +0.000 S 
ATOM     13  C   UNL     1       6.402   7.277  17.277  0.00  0.00    +0.000 C 
ENDBRANCH   3  12
BRANCH   2  14
ATOM     14  C   UNL     1       4.993   3.616  16.308  0.00  0.00    +0.000 C 
BRANCH  14  15
ATOM     15  C   UNL     1       6.406   4.138  16.026  0.00  0.00    +0.000 C 
BRANCH  15  16
ATOM     16  C   UNL     1       6.664   4.262  14.539  0.00  0.00    +0.000 A 
ATOM     17  C   UNL     1       5.965   3.458  13.627  0.00  0.00    +0.000 A 
ATOM     18  C   UNL     1       6.227   3.538  12.259  0.00  0.00    +0.000 A 
ATOM     19  C   UNL     1       7.174   4.441  11.783  0.00  0.00    +0.000 A 
ATOM     20  C   UNL     1       7.856   5.266  12.677  0.00  0.00    +0.000 A 
ATOM     21  C   UNL     1       7.602   5.180  14.049  0.00  0.00    +0.000 A 
ENDBRANCH  15  16
ENDBRANCH  14  15
ENDBRANCH   2  14
TORSDOF 5
ENDMDL
MODEL 2
REMARK VINA RESULT:      -6.3      2.236      6.684
REMARK  Name = 
REMARK  7 active torsions:
REMARK  status: ('A' for Active; 'I' for Inactive)
REMARK    1  A    between atoms: C_1  and  S_2
REMARK    2  A    between atoms: S_2  and  C_3
REMARK    3  A    between atoms: C_4  and  C_5
REMARK    4  A    between atoms: C_5  and  C_6
REMARK    5  A    between atoms: C_6  and  C_7
REMARK    6  A    between atoms: C_13  and  S_14
REMARK    7  A    between atoms: S_14  and  C_15
REMARK                            x       y       z     vdW  Elec       q    Type
REMARK                         _______ _______ _______ _____ _____    ______ ____
ROOT
ATOM      1  C   UNL     1       6.301   5.398  17.663  0.00  0.00    +0.000 A 
ATOM      2  C   UNL     1       5.022   5.026  18.192  0.00  0.00    +0.000 A 
ATOM      3  C   UNL     1       4.363   4.350  17.165  0.00  0.00    +0.000 A 
ATOM      4  N   UNL     1       5.192   4.319  16.054  0.00  0.00    +0.000 N 
ATOM      5  C   UNL     1       5.034   3.785  14.776  0.00  0.00    +0.000 A 
ATOM      6  C   UNL     1       6.028   3.921  13.886  0.00  0.00    +0.000 A 
ATOM      7  N   UNL     1       7.219   4.569  14.147  0.00  0.00    +0.000 NA
ATOM      8  C   UNL     1       7.375   5.076  15.340  0.00  0.00    +0.000 A 
ATOM      9  C   UNL     1       6.367   4.966  16.363  0.00  0.00    +0.000 A 
ENDROOT
BRANCH   1  11
ATOM     10  C   UNL     1       7.526   7.846  17.549  0.00  0.00    +0.000 C 
ATOM     11  S   UNL     1       7.550   6.303  18.493  0.00  0.00    +0.000 S 
ENDBRANCH   1  11
BRANCH   3  12
ATOM     12  S   UNL     1       2.818   3.530  17.117  0.00  0.00    +0.000 S 
ATOM     13  C   UNL     1       3.119   1.989  18.005  0.00  0.00    +0.000 C 
ENDBRANCH   3  12
BRANCH   2  14
ATOM     14  C   UNL     1       4.511   5.354  19.569  0.00  0.00    +0.000 C 
BRANCH  14  15
ATOM     15  C   UNL     1       2.985   5.391  19.703  0.00  0.00    +0.000 C 
BRANCH  15  16
ATOM     16  C   UNL     1       2.440   6.779  19.438  0.00  0.00    +0.000 A 
ATOM     17  C   UNL     1       1.812   7.503  20.461  0.00  0.00    +0.000 A 
ATOM     18  C   UNL     1       1.271   8.765  20.215  0.00  0.00    +0.000 A 
ATOM     19  C   UNL     1       1.372   9.329  18.946  0.00  0.00    +0.000 A 
ATOM     20  C   UNL     1       2.019   8.632  17.926  0.00  0.00    +0.000 A 
ATOM     21  C   UNL     1       2.553   7.363  18.169  0.00  0.00    +0.000 A 
ENDBRANCH  15  16
ENDBRANCH  14  15
ENDBRANCH   2  14
TORSDOF 5
ENDMDL
MODEL 3
REMARK VINA RESULT:      -6.2      2.248      6.675
REMARK  Name = 
REMARK  7 active torsions:
REMARK  status: ('A' for Active; 'I' for Inactive)
REMARK    1  A    between atoms: C_1  and  S_2
REMARK    2  A    between atoms: S_2  and  C_3
REMARK    3  A    between atoms: C_4  and  C_5
REMARK    4  A    between atoms: C_5  and  C_6
REMARK    5  A    between atoms: C_6  and  C_7
REMARK    6  A    between atoms: C_13  and  S_14
REMARK    7  A    between atoms: S_14  and  C_15
REMARK                            x       y       z     vdW  Elec       q    Type
REMARK                         _______ _______ _______ _____ _____    ______ ____
ROOT
ATOM      1  C   UNL     1       6.366   5.397  17.780  0.00  0.00    +0.000 A 
ATOM      2  C   UNL     1       5.075   5.009  18.268  0.00  0.00    +0.000 A 
ATOM      3  C   UNL     1       4.454   4.335  17.216  0.00  0.00    +0.000 A 
ATOM      4  N   UNL     1       5.316   4.322  16.130  0.00  0.00    +0.000 N 
ATOM      5  C   UNL     1       5.201   3.796  14.844  0.00  0.00    +0.000 A 
ATOM      6  C   UNL     1       6.219   3.949  13.985  0.00  0.00    +0.000 A 
ATOM      7  N   UNL     1       7.396   4.606  14.287  0.00  0.00    +0.000 NA
ATOM      8  C   UNL     1       7.512   5.104  15.489  0.00  0.00    +0.000 A 
ATOM      9  C   UNL     1       6.474   4.976  16.480  0.00  0.00    +0.000 A 
ENDROOT
BRANCH   1  11
ATOM     10  C   UNL     1       7.618   7.832  17.683  0.00  0.00    +0.000 C 
ATOM     11  S   UNL     1       7.581   6.307  18.655  0.00  0.00    +0.000 S 
ENDBRANCH   1  11
BRANCH   3  12
ATOM     12  S   UNL     1       2.919   3.501  17.116  0.00  0.00    +0.000 S 
ATOM     13  C   UNL     1       3.185   1.989  18.064  0.00  0.00    +0.000 C 
ENDBRANCH   3  12
BRANCH   2  14
ATOM     14  C   UNL     1       4.520   5.320  19.632  0.00  0.00    +0.000 C 
BRANCH  14  15
ATOM     15  C   UNL     1       2.991   5.325  19.724  0.00  0.00    +0.000 C 
BRANCH  15  16
ATOM     16  C   UNL     1       2.424   6.702  19.452  0.00  0.00    +0.000 A 
ATOM     17  C   UNL     1       2.521   7.271  18.174  0.00  0.00    +0.000 A 
ATOM     18  C   UNL     1       2.038   8.556  17.925  0.00  0.00    +0.000 A 
ATOM     19  C   UNL     1       1.428   9.279  18.947  0.00  0.00    +0.000 A 
ATOM     20  C   UNL     1       1.300   8.715  20.216  0.00  0.00    +0.000 A 
ATOM     21  C   UNL     1       1.793   7.432  20.469  0.00  0.00    +0.000 A 
ENDBRANCH  15  16
ENDBRANCH  14  15
ENDBRANCH   2  14
TORSDOF 5
ENDMDL
MODEL 4
REMARK VINA RESULT:      -6.2      0.695      1.348
REMARK  Name = 
REMARK  7 active torsions:
REMARK  status: ('A' for Active; 'I' for Inactive)
REMARK    1  A    between atoms: C_1  and  S_2
REMARK    2  A    between atoms: S_2  and  C_3
REMARK    3  A    between atoms: C_4  and  C_5
REMARK    4  A    between atoms: C_5  and  C_6
REMARK    5  A    between atoms: C_6  and  C_7
REMARK    6  A    between atoms: C_13  and  S_14
REMARK    7  A    between atoms: S_14  and  C_15
REMARK                            x       y       z     vdW  Elec       q    Type
REMARK                         _______ _______ _______ _____ _____    ______ ____
ROOT
ATOM      1  C   UNL     1       3.231   3.985  18.561  0.00  0.00    +0.000 A 
ATOM      2  C   UNL     1       4.004   4.477  17.458  0.00  0.00    +0.000 A 
ATOM      3  C   UNL     1       3.921   5.868  17.521  0.00  0.00    +0.000 A 
ATOM      4  N   UNL     1       3.125   6.214  18.603  0.00  0.00    +0.000 N 
ATOM      5  C   UNL     1       2.715   7.444  19.114  0.00  0.00    +0.000 A 
ATOM      6  C   UNL     1       1.919   7.469  20.192  0.00  0.00    +0.000 A 
ATOM      7  N   UNL     1       1.463   6.340  20.845  0.00  0.00    +0.000 NA
ATOM      8  C   UNL     1       1.839   5.182  20.371  0.00  0.00    +0.000 A 
ATOM      9  C   UNL     1       2.704   5.062  19.226  0.00  0.00    +0.000 A 
ENDROOT
BRANCH   1  11
ATOM     10  C   UNL     1       1.164   2.190  18.672  0.00  0.00    +0.000 C 
ATOM     11  S   UNL     1       2.944   2.305  18.966  0.00  0.00    +0.000 S 
ENDBRANCH   1  11
BRANCH   3  12
ATOM     12  S   UNL     1       4.686   7.122  16.571  0.00  0.00    +0.000 S 
ATOM     13  C   UNL     1       6.342   7.250  17.276  0.00  0.00    +0.000 C 
ENDBRANCH   3  12
BRANCH   2  14
ATOM     14  C   UNL     1       4.711   3.631  16.433  0.00  0.00    +0.000 C 
BRANCH  14  15
ATOM     15  C   UNL     1       6.183   3.988  16.203  0.00  0.00    +0.000 C 
BRANCH  15  16
ATOM     16  C   UNL     1       6.496   4.124  14.727  0.00  0.00    +0.000 A 
ATOM     17  C   UNL     1       7.485   5.015  14.290  0.00  0.00    +0.000 A 
ATOM     18  C   UNL     1       7.750   5.176  12.929  0.00  0.00    +0.000 A 
ATOM     19  C   UNL     1       7.044   4.428  11.990  0.00  0.00    +0.000 A 
ATOM     20  C   UNL     1       6.077   3.517  12.414  0.00  0.00    +0.000 A 
ATOM     21  C   UNL     1       5.804   3.363  13.775  0.00  0.00    +0.000 A 
ENDBRANCH  15  16
ENDBRANCH  14  15
ENDBRANCH   2  14
TORSDOF 5
ENDMDL
MODEL 5
REMARK VINA RESULT:      -6.1      0.748      3.139
REMARK  Name = 
REMARK  7 active torsions:
REMARK  status: ('A' for Active; 'I' for Inactive)
REMARK    1  A    between atoms: C_1  and  S_2
REMARK    2  A    between atoms: S_2  and  C_3
REMARK    3  A    between atoms: C_4  and  C_5
REMARK    4  A    between atoms: C_5  and  C_6
REMARK    5  A    between atoms: C_6  and  C_7
REMARK    6  A    between atoms: C_13  and  S_14
REMARK    7  A    between atoms: S_14  and  C_15
REMARK                            x       y       z     vdW  Elec       q    Type
REMARK                         _______ _______ _______ _____ _____    ______ ____
ROOT
ATOM      1  C   UNL     1       4.201   5.779  17.644  0.00  0.00    +0.000 A 
ATOM      2  C   UNL     1       4.541   4.391  17.527  0.00  0.00    +0.000 A 
ATOM      3  C   UNL     1       3.810   3.732  18.515  0.00  0.00    +0.000 A 
ATOM      4  N   UNL     1       3.067   4.671  19.215  0.00  0.00    +0.000 N 
ATOM      5  C   UNL     1       2.183   4.562  20.287  0.00  0.00    +0.000 A 
ATOM      6  C   UNL     1       1.608   5.672  20.772  0.00  0.00    +0.000 A 
ATOM      7  N   UNL     1       1.835   6.942  20.278  0.00  0.00    +0.000 NA
ATOM      8  C   UNL     1       2.664   7.054  19.275  0.00  0.00    +0.000 A 
ATOM      9  C   UNL     1       3.317   5.915  18.683  0.00  0.00    +0.000 A 
ENDROOT
BRANCH   1  11
ATOM     10  C   UNL     1       6.534   7.180  17.319  0.00  0.00    +0.000 C 
ATOM     11  S   UNL     1       4.843   7.095  16.682  0.00  0.00    +0.000 S 
ENDBRANCH   1  11
BRANCH   3  12
ATOM     12  S   UNL     1       3.643   2.033  18.899  0.00  0.00    +0.000 S 
ATOM     13  C   UNL     1       4.658   1.822  20.376  0.00  0.00    +0.000 C 
ENDBRANCH   3  12
BRANCH   2  14
ATOM     14  C   UNL     1       5.525   3.806  16.550  0.00  0.00    +0.000 C 
BRANCH  14  15
ATOM     15  C   UNL     1       4.973   3.559  15.142  0.00  0.00    +0.000 C 
BRANCH  15  16
ATOM     16  C   UNL     1       5.958   3.992  14.077  0.00  0.00    +0.000 A 
ATOM     17  C   UNL     1       6.940   4.951  14.364  0.00  0.00    +0.000 A 
ATOM     18  C   UNL     1       7.824   5.385  13.377  0.00  0.00    +0.000 A 
ATOM     19  C   UNL     1       7.754   4.847  12.094  0.00  0.00    +0.000 A 
ATOM     20  C   UNL     1       6.800   3.872  11.803  0.00  0.00    +0.000 A 
ATOM     21  C   UNL     1       5.907   3.444  12.788  0.00  0.00    +0.000 A 
ENDBRANCH  15  16
ENDBRANCH  14  15
ENDBRANCH   2  14
TORSDOF 5
ENDMDL
MODEL 6
REMARK VINA RESULT:      -6.1      0.980      3.057
REMARK  Name = 
REMARK  7 active torsions:
REMARK  status: ('A' for Active; 'I' for Inactive)
REMARK    1  A    between atoms: C_1  and  S_2
REMARK    2  A    between atoms: S_2  and  C_3
REMARK    3  A    between atoms: C_4  and  C_5
REMARK    4  A    between atoms: C_5  and  C_6
REMARK    5  A    between atoms: C_6  and  C_7
REMARK    6  A    between atoms: C_13  and  S_14
REMARK    7  A    between atoms: S_14  and  C_15
REMARK                            x       y       z     vdW  Elec       q    Type
REMARK                         _______ _______ _______ _____ _____    ______ ____
ROOT
ATOM      1  C   UNL     1       4.330   5.962  17.769  0.00  0.00    +0.000 A 
ATOM      2  C   UNL     1       4.763   4.595  17.787  0.00  0.00    +0.000 A 
ATOM      3  C   UNL     1       4.044   3.978  18.811  0.00  0.00    +0.000 A 
ATOM      4  N   UNL     1       3.220   4.923  19.403  0.00  0.00    +0.000 N 
ATOM      5  C   UNL     1       2.311   4.850  20.458  0.00  0.00    +0.000 A 
ATOM      6  C   UNL     1       1.649   5.957  20.824  0.00  0.00    +0.000 A 
ATOM      7  N   UNL     1       1.808   7.190  20.223  0.00  0.00    +0.000 NA
ATOM      8  C   UNL     1       2.660   7.269  19.237  0.00  0.00    +0.000 A 
ATOM      9  C   UNL     1       3.405   6.129  18.768  0.00  0.00    +0.000 A 
ENDROOT
BRANCH   1  11
ATOM     10  C   UNL     1       6.608   7.415  17.318  0.00  0.00    +0.000 C 
ATOM     11  S   UNL     1       4.916   7.227  16.709  0.00  0.00    +0.000 S 
ENDBRANCH   1  11
BRANCH   3  12
ATOM     12  S   UNL     1       3.976   2.313  19.343  0.00  0.00    +0.000 S 
ATOM     13  C   UNL     1       2.418   1.706  18.666  0.00  0.00    +0.000 C 
ENDBRANCH   3  12
BRANCH   2  14
ATOM     14  C   UNL     1       5.814   3.994  16.893  0.00  0.00    +0.000 C 
BRANCH  14  15
ATOM     15  C   UNL     1       5.292   3.423  15.571  0.00  0.00    +0.000 C 
BRANCH  15  16
ATOM     16  C   UNL     1       6.094   3.935  14.392  0.00  0.00    +0.000 A 
ATOM     17  C   UNL     1       5.875   3.421  13.107  0.00  0.00    +0.000 A 
ATOM     18  C   UNL     1       6.638   3.858  12.023  0.00  0.00    +0.000 A 
ATOM     19  C   UNL     1       7.613   4.834  12.209  0.00  0.00    +0.000 A 
ATOM     20  C   UNL     1       7.822   5.375  13.477  0.00  0.00    +0.000 A 
ATOM     21  C   UNL     1       7.066   4.930  14.565  0.00  0.00    +0.000 A 
ENDBRANCH  15  16
ENDBRANCH  14  15
ENDBRANCH   2  14
TORSDOF 5
ENDMDL
MODEL 7
REMARK VINA RESULT:      -6.1      0.531      1.164
REMARK  Name = 
REMARK  7 active torsions:
REMARK  status: ('A' for Active; 'I' for Inactive)
REMARK    1  A    between atoms: C_1  and  S_2
REMARK    2  A    between atoms: S_2  and  C_3
REMARK    3  A    between atoms: C_4  and  C_5
REMARK    4  A    between atoms: C_5  and  C_6
REMARK    5  A    between atoms: C_6  and  C_7
REMARK    6  A    between atoms: C_13  and  S_14
REMARK    7  A    between atoms: S_14  and  C_15
REMARK                            x       y       z     vdW  Elec       q    Type
REMARK                         _______ _______ _______ _____ _____    ______ ____
ROOT
ATOM      1  C   UNL     1       3.783   3.772  18.561  0.00  0.00    +0.000 A 
ATOM      2  C   UNL     1       4.599   4.429  17.582  0.00  0.00    +0.000 A 
ATOM      3  C   UNL     1       4.336   5.792  17.716  0.00  0.00    +0.000 A 
ATOM      4  N   UNL     1       3.395   5.964  18.719  0.00  0.00    +0.000 N 
ATOM      5  C   UNL     1       2.782   7.098  19.251  0.00  0.00    +0.000 A 
ATOM      6  C   UNL     1       1.880   6.951  20.232  0.00  0.00    +0.000 A 
ATOM      7  N   UNL     1       1.504   5.733  20.763  0.00  0.00    +0.000 NA
ATOM      8  C   UNL     1       2.070   4.665  20.269  0.00  0.00    +0.000 A 
ATOM      9  C   UNL     1       3.058   4.729  19.223  0.00  0.00    +0.000 A 
ENDROOT
BRANCH   1  11
ATOM     10  C   UNL     1       4.577   1.893  20.390  0.00  0.00    +0.000 C 
ATOM     11  S   UNL     1       3.669   2.045  18.834  0.00  0.00    +0.000 S 
ENDBRANCH   1  11
BRANCH   3  12
ATOM     12  S   UNL     1       5.033   7.192  16.931  0.00  0.00    +0.000 S 
ATOM     13  C   UNL     1       6.776   7.124  17.394  0.00  0.00    +0.000 C 
ENDBRANCH   3  12
BRANCH   2  14
ATOM     14  C   UNL     1       5.511   3.748  16.597  0.00  0.00    +0.000 C 
BRANCH  14  15
ATOM     15  C   UNL     1       4.929   3.570  15.191  0.00  0.00    +0.000 C 
BRANCH  15  16
ATOM     16  C   UNL     1       5.917   3.996  14.125  0.00  0.00    +0.000 A 
ATOM     17  C   UNL     1       6.914   4.938  14.416  0.00  0.00    +0.000 A 
ATOM     18  C   UNL     1       7.802   5.366  13.429  0.00  0.00    +0.000 A 
ATOM     19  C   UNL     1       7.719   4.838  12.143  0.00  0.00    +0.000 A 
ATOM     20  C   UNL     1       6.750   3.879  11.848  0.00  0.00    +0.000 A 
ATOM     21  C   UNL     1       5.854   3.457  12.833  0.00  0.00    +0.000 A 
ENDBRANCH  15  16
ENDBRANCH  14  15
ENDBRANCH   2  14
TORSDOF 5
ENDMDL
MODEL 8
REMARK VINA RESULT:      -6.1      3.097      8.063
REMARK  Name = 
REMARK  7 active torsions:
REMARK  status: ('A' for Active; 'I' for Inactive)
REMARK    1  A    between atoms: C_1  and  S_2
REMARK    2  A    between atoms: S_2  and  C_3
REMARK    3  A    between atoms: C_4  and  C_5
REMARK    4  A    between atoms: C_5  and  C_6
REMARK    5  A    between atoms: C_6  and  C_7
REMARK    6  A    between atoms: C_13  and  S_14
REMARK    7  A    between atoms: S_14  and  C_15
REMARK                            x       y       z     vdW  Elec       q    Type
REMARK                         _______ _______ _______ _____ _____    ______ ____
ROOT
ATOM      1  C   UNL     1       2.613   5.621  19.889  0.00  0.00    +0.000 A 
ATOM      2  C   UNL     1       2.048   6.938  19.863  0.00  0.00    +0.000 A 
ATOM      3  C   UNL     1       2.620   7.580  18.765  0.00  0.00    +0.000 A 
ATOM      4  N   UNL     1       3.504   6.705  18.153  0.00  0.00    +0.000 N 
ATOM      5  C   UNL     1       4.333   6.830  17.039  0.00  0.00    +0.000 A 
ATOM      6  C   UNL     1       5.103   5.793  16.681  0.00  0.00    +0.000 A 
ATOM      7  N   UNL     1       5.139   4.586  17.351  0.00  0.00    +0.000 NA
ATOM      8  C   UNL     1       4.369   4.460  18.398  0.00  0.00    +0.000 A 
ATOM      9  C   UNL     1       3.500   5.517  18.847  0.00  0.00    +0.000 A 
ENDROOT
BRANCH   1  11
ATOM     10  C   UNL     1       0.849   3.572  20.330  0.00  0.00    +0.000 C 
ATOM     11  S   UNL     1       2.292   4.370  21.072  0.00  0.00    +0.000 S 
ENDBRANCH   1  11
BRANCH   3  12
ATOM     12  S   UNL     1       2.335   9.157  18.063  0.00  0.00    +0.000 S 
ATOM     13  C   UNL     1       0.548   9.203  17.814  0.00  0.00    +0.000 C 
ENDBRANCH   3  12
BRANCH   2  14
ATOM     14  C   UNL     1       1.070   7.494  20.863  0.00  0.00    +0.000 C 
BRANCH  14  15
ATOM     15  C   UNL     1       1.635   8.572  21.793  0.00  0.00    +0.000 C 
BRANCH  15  16
ATOM     16  C   UNL     1       0.655   9.712  21.979  0.00  0.00    +0.000 A 
ATOM     17  C   UNL     1      -0.271   9.688  23.030  0.00  0.00    +0.000 A 
ATOM     18  C   UNL     1      -1.204  10.714  23.184  0.00  0.00    +0.000 A 
ATOM     19  C   UNL     1      -1.205  11.791  22.300  0.00  0.00    +0.000 A 
ATOM     20  C   UNL     1      -0.270  11.841  21.267  0.00  0.00    +0.000 A 
ATOM     21  C   UNL     1       0.658  10.809  21.106  0.00  0.00    +0.000 A 
ENDBRANCH  15  16
ENDBRANCH  14  15
ENDBRANCH   2  14
TORSDOF 5
ENDMDL
MODEL 9
REMARK VINA RESULT:      -6.1      2.352      7.001
REMARK  Name = 
REMARK  7 active torsions:
REMARK  status: ('A' for Active; 'I' for Inactive)
REMARK    1  A    between atoms: C_1  and  S_2
REMARK    2  A    between atoms: S_2  and  C_3
REMARK    3  A    between atoms: C_4  and  C_5
REMARK    4  A    between atoms: C_5  and  C_6
REMARK    5  A    between atoms: C_6  and  C_7
REMARK    6  A    between atoms: C_13  and  S_14
REMARK    7  A    between atoms: S_14  and  C_15
REMARK                            x       y       z     vdW  Elec       q    Type
REMARK                         _______ _______ _______ _____ _____    ______ ____
ROOT
ATOM      1  C   UNL     1       6.610   5.546  17.453  0.00  0.00    +0.000 A 
ATOM      2  C   UNL     1       5.401   5.027  18.023  0.00  0.00    +0.000 A 
ATOM      3  C   UNL     1       4.760   4.333  16.996  0.00  0.00    +0.000 A 
ATOM      4  N   UNL     1       5.531   4.433  15.848  0.00  0.00    +0.000 N 
ATOM      5  C   UNL     1       5.360   3.941  14.555  0.00  0.00    +0.000 A 
ATOM      6  C   UNL     1       6.289   4.212  13.627  0.00  0.00    +0.000 A 
ATOM      7  N   UNL     1       7.424   4.963  13.864  0.00  0.00    +0.000 NA
ATOM      8  C   UNL     1       7.591   5.431  15.071  0.00  0.00    +0.000 A 
ATOM      9  C   UNL     1       6.651   5.178  16.133  0.00  0.00    +0.000 A 
ENDROOT
BRANCH   1  11
ATOM     10  C   UNL     1       7.476   8.144  17.513  0.00  0.00    +0.000 C 
ATOM     11  S   UNL     1       7.806   6.534  18.267  0.00  0.00    +0.000 S 
ENDBRANCH   1  11
BRANCH   3  12
ATOM     12  S   UNL     1       3.301   3.368  16.981  0.00  0.00    +0.000 S 
ATOM     13  C   UNL     1       3.694   1.973  18.056  0.00  0.00    +0.000 C 
ENDBRANCH   3  12
BRANCH   2  14
ATOM     14  C   UNL     1       4.931   5.243  19.436  0.00  0.00    +0.000 C 
BRANCH  14  15
ATOM     15  C   UNL     1       3.485   5.730  19.572  0.00  0.00    +0.000 C 
BRANCH  15  16
ATOM     16  C   UNL     1       2.593   4.659  20.164  0.00  0.00    +0.000 A 
ATOM     17  C   UNL     1       3.034   3.886  21.247  0.00  0.00    +0.000 A 
ATOM     18  C   UNL     1       2.235   2.870  21.771  0.00  0.00    +0.000 A 
ATOM     19  C   UNL     1       0.973   2.631  21.233  0.00  0.00    +0.000 A 
ATOM     20  C   UNL     1       0.510   3.412  20.174  0.00  0.00    +0.000 A 
ATOM     21  C   UNL     1       1.314   4.422  19.642  0.00  0.00    +0.000 A 
ENDBRANCH  15  16
ENDBRANCH  14  15
ENDBRANCH   2  14
TORSDOF 5
ENDMDL
