MODEL 1
REMARK VINA RESULT:      -8.4      0.000      0.000
REMARK  Name = 
REMARK  8 active torsions:
REMARK  status: ('A' for Active; 'I' for Inactive)
REMARK    1  A    between atoms: C_1  and  C_2
REMARK    2  A    between atoms: C_2  and  C_3
REMARK    3  A    between atoms: C_3  and  C_4
REMARK    4  A    between atoms: C_7  and  N_8
REMARK    5  A    between atoms: C_9  and  C_11
REMARK    6  A    between atoms: C_16  and  N_17
REMARK    7  A    between atoms: C_18  and  C_20
REMARK    8  A    between atoms: C_23  and  N_24
REMARK                            x       y       z     vdW  Elec       q    Type
REMARK                         _______ _______ _______ _____ _____    ______ ____
ROOT
ATOM      1  C   UNL     1       2.435   4.579  19.972  0.00  0.00    +0.000 A 
ATOM      2  C   UNL     1       1.806   4.407  21.219  0.00  0.00    +0.000 A 
ATOM      3  C   UNL     1       1.977   3.226  21.942  0.00  0.00    +0.000 A 
ATOM      4  C   UNL     1       2.788   2.216  21.437  0.00  0.00    +0.000 A 
ATOM      5  C   UNL     1       3.412   2.374  20.199  0.00  0.00    +0.000 A 
ATOM      6  C   UNL     1       3.242   3.547  19.450  0.00  0.00    +0.000 A 
ENDROOT
BRANCH   1   8
ATOM      7  N   UNL     1       1.753   6.923  19.926  0.00  0.00    +0.000 N 
ATOM      8  C   UNL     1       2.246   5.843  19.206  0.00  0.00    +0.000 C 
ATOM      9  O   UNL     1       2.525   5.834  18.007  0.00  0.00    +0.000 OA
ATOM     10  H   UNL     1       1.402   6.741  20.858  0.00  0.00    +0.000 HD
BRANCH   7  14
ATOM     11  C   UNL     1       1.431  10.974  18.744  0.00  0.00    +0.000 A 
ATOM     12  C   UNL     1       2.056  10.048  17.903  0.00  0.00    +0.000 A 
ATOM     13  C   UNL     1       2.163   8.706  18.271  0.00  0.00    +0.000 A 
ATOM     14  C   UNL     1       1.655   8.261  19.490  0.00  0.00    +0.000 A 
ATOM     15  C   UNL     1       1.045   9.188  20.345  0.00  0.00    +0.000 A 
ATOM     16  C   UNL     1       0.938  10.535  19.975  0.00  0.00    +0.000 A 
BRANCH  11  17
ATOM     17  C   UNL     1       1.278  12.411  18.309  0.00  0.00    +0.000 C 
BRANCH  17  19
ATOM     18  C   UNL     1       2.828  14.020  19.541  0.00  0.00    +0.000 C 
ATOM     19  C   UNL     1       2.599  13.188  18.287  0.00  0.00    +0.000 C 
ENDBRANCH  17  19
ENDBRANCH  11  17
ENDBRANCH   7  14
ENDBRANCH   1   8
BRANCH   6  20
ATOM     20  N   UNL     1       3.902   3.693  18.200  0.00  0.00    +0.000 N 
ATOM     21  C   UNL     1       5.238   4.039  18.092  0.00  0.00    +0.000 C 
ATOM     22  O   UNL     1       5.998   4.126  19.056  0.00  0.00    +0.000 OA
ATOM     23  H   UNL     1       3.427   3.256  17.410  0.00  0.00    +0.000 HD
BRANCH  21  24
ATOM     24  C   UNL     1       5.809   4.296  16.735  0.00  0.00    +0.000 A 
ATOM     25  C   UNL     1       7.109   4.832  16.688  0.00  0.00    +0.000 A 
ATOM     26  C   UNL     1       7.739   5.123  15.475  0.00  0.00    +0.000 A 
ATOM     27  C   UNL     1       7.062   4.872  14.280  0.00  0.00    +0.000 A 
ATOM     28  C   UNL     1       5.762   4.339  14.301  0.00  0.00    +0.000 A 
ATOM     29  C   UNL     1       5.135   4.053  15.527  0.00  0.00    +0.000 A 
BRANCH  27  30
ATOM     30  N   UNL     1       7.722   5.166  13.000  0.00  0.00    +0.000 N 
ATOM     31  O   UNL     1       7.293   4.595  11.988  0.00  0.00    +0.000 OA
ATOM     32  O   UNL     1       8.664   5.968  13.010  0.00  0.00    +0.000 OA
ENDBRANCH  27  30
ENDBRANCH  21  24
ENDBRANCH   6  20
TORSDOF 7
ENDMDL
MODEL 2
REMARK VINA RESULT:      -8.4      0.992      1.574
REMARK  Name = 
REMARK  8 active torsions:
REMARK  status: ('A' for Active; 'I' for Inactive)
REMARK    1  A    between atoms: C_1  and  C_2
REMARK    2  A    between atoms: C_2  and  C_3
REMARK    3  A    between atoms: C_3  and  C_4
REMARK    4  A    between atoms: C_7  and  N_8
REMARK    5  A    between atoms: C_9  and  C_11
REMARK    6  A    between atoms: C_16  and  N_17
REMARK    7  A    between atoms: C_18  and  C_20
REMARK    8  A    between atoms: C_23  and  N_24
REMARK                            x       y       z     vdW  Elec       q    Type
REMARK                         _______ _______ _______ _____ _____    ______ ____
ROOT
ATOM      1  C   UNL     1       2.541   4.532  20.052  0.00  0.00    +0.000 A 
ATOM      2  C   UNL     1       1.778   4.064  21.137  0.00  0.00    +0.000 A 
ATOM      3  C   UNL     1       2.133   2.889  21.799  0.00  0.00    +0.000 A 
ATOM      4  C   UNL     1       3.258   2.179  21.396  0.00  0.00    +0.000 A 
ATOM      5  C   UNL     1       4.019   2.631  20.316  0.00  0.00    +0.000 A 
ATOM      6  C   UNL     1       3.671   3.802  19.629  0.00  0.00    +0.000 A 
ENDROOT
BRANCH   1   8
ATOM      7  N   UNL     1       1.889   6.882  20.162  0.00  0.00    +0.000 N 
ATOM      8  C   UNL     1       2.154   5.788  19.350  0.00  0.00    +0.000 C 
ATOM      9  O   UNL     1       2.087   5.761  18.121  0.00  0.00    +0.000 OA
ATOM     10  H   UNL     1       1.810   6.716  21.158  0.00  0.00    +0.000 HD
BRANCH   7  14
ATOM     11  C   UNL     1       1.253  10.917  19.055  0.00  0.00    +0.000 A 
ATOM     12  C   UNL     1       1.815  10.022  18.140  0.00  0.00    +0.000 A 
ATOM     13  C   UNL     1       2.024   8.685  18.484  0.00  0.00    +0.000 A 
ATOM     14  C   UNL     1       1.682   8.215  19.750  0.00  0.00    +0.000 A 
ATOM     15  C   UNL     1       1.135   9.113  20.677  0.00  0.00    +0.000 A 
ATOM     16  C   UNL     1       0.927  10.454  20.333  0.00  0.00    +0.000 A 
BRANCH  11  17
ATOM     17  C   UNL     1       0.987  12.347  18.652  0.00  0.00    +0.000 C 
BRANCH  17  19
ATOM     18  C   UNL     1      -0.847  13.919  19.476  0.00  0.00    +0.000 C 
ATOM     19  C   UNL     1      -0.504  12.706  18.621  0.00  0.00    +0.000 C 
ENDBRANCH  17  19
ENDBRANCH  11  17
ENDBRANCH   7  14
ENDBRANCH   1   8
BRANCH   6  20
ATOM     20  N   UNL     1       4.471   4.252  18.544  0.00  0.00    +0.000 N 
ATOM     21  C   UNL     1       4.377   3.718  17.270  0.00  0.00    +0.000 C 
ATOM     22  O   UNL     1       3.516   2.906  16.935  0.00  0.00    +0.000 OA
ATOM     23  H   UNL     1       4.903   5.165  18.679  0.00  0.00    +0.000 HD
BRANCH  21  24
ATOM     24  C   UNL     1       5.350   4.165  16.227  0.00  0.00    +0.000 A 
ATOM     25  C   UNL     1       5.073   3.786  14.900  0.00  0.00    +0.000 A 
ATOM     26  C   UNL     1       5.919   4.138  13.846  0.00  0.00    +0.000 A 
ATOM     27  C   UNL     1       7.065   4.888  14.115  0.00  0.00    +0.000 A 
ATOM     28  C   UNL     1       7.365   5.276  15.431  0.00  0.00    +0.000 A 
ATOM     29  C   UNL     1       6.510   4.914  16.487  0.00  0.00    +0.000 A 
BRANCH  27  30
ATOM     30  N   UNL     1       7.954   5.270  13.008  0.00  0.00    +0.000 N 
ATOM     31  O   UNL     1       8.931   5.984  13.277  0.00  0.00    +0.000 OA
ATOM     32  O   UNL     1       7.676   4.854  11.877  0.00  0.00    +0.000 OA
ENDBRANCH  27  30
ENDBRANCH  21  24
ENDBRANCH   6  20
TORSDOF 7
ENDMDL
MODEL 3
REMARK VINA RESULT:      -8.3      0.800      1.491
REMARK  Name = 
REMARK  8 active torsions:
REMARK  status: ('A' for Active; 'I' for Inactive)
REMARK    1  A    between atoms: C_1  and  C_2
REMARK    2  A    between atoms: C_2  and  C_3
REMARK    3  A    between atoms: C_3  and  C_4
REMARK    4  A    between atoms: C_7  and  N_8
REMARK    5  A    between atoms: C_9  and  C_11
REMARK    6  A    between atoms: C_16  and  N_17
REMARK    7  A    between atoms: C_18  and  C_20
REMARK    8  A    between atoms: C_23  and  N_24
REMARK                            x       y       z     vdW  Elec       q    Type
REMARK                         _______ _______ _______ _____ _____    ______ ____
ROOT
ATOM      1  C   UNL     1       2.294   4.689  19.792  0.00  0.00    +0.000 A 
ATOM      2  C   UNL     1       1.485   4.432  20.914  0.00  0.00    +0.000 A 
ATOM      3  C   UNL     1       1.151   3.123  21.261  0.00  0.00    +0.000 A 
ATOM      4  C   UNL     1       1.632   2.060  20.505  0.00  0.00    +0.000 A 
ATOM      5  C   UNL     1       2.432   2.305  19.387  0.00  0.00    +0.000 A 
ATOM      6  C   UNL     1       2.767   3.614  19.013  0.00  0.00    +0.000 A 
ENDROOT
BRANCH   1   8
ATOM      7  N   UNL     1       1.576   6.941  19.181  0.00  0.00    +0.000 N 
ATOM      8  C   UNL     1       2.645   6.091  19.427  0.00  0.00    +0.000 C 
ATOM      9  O   UNL     1       3.839   6.384  19.361  0.00  0.00    +0.000 OA
ATOM     10  H   UNL     1       0.657   6.524  19.100  0.00  0.00    +0.000 HD
BRANCH   7  14
ATOM     11  C   UNL     1       1.705  11.151  18.764  0.00  0.00    +0.000 A 
ATOM     12  C   UNL     1       2.227  10.333  17.757  0.00  0.00    +0.000 A 
ATOM     13  C   UNL     1       2.185   8.943  17.873  0.00  0.00    +0.000 A 
ATOM     14  C   UNL     1       1.627   8.339  18.999  0.00  0.00    +0.000 A 
ATOM     15  C   UNL     1       1.119   9.155  20.018  0.00  0.00    +0.000 A 
ATOM     16  C   UNL     1       1.162  10.550  19.903  0.00  0.00    +0.000 A 
BRANCH  11  17
ATOM     17  C   UNL     1       1.711  12.651  18.602  0.00  0.00    +0.000 C 
BRANCH  17  19
ATOM     18  C   UNL     1      -0.763  13.073  18.140  0.00  0.00    +0.000 C 
ATOM     19  C   UNL     1       0.415  13.323  19.072  0.00  0.00    +0.000 C 
ENDBRANCH  17  19
ENDBRANCH  11  17
ENDBRANCH   7  14
ENDBRANCH   1   8
BRANCH   6  20
ATOM     20  N   UNL     1       3.596   3.837  17.880  0.00  0.00    +0.000 N 
ATOM     21  C   UNL     1       4.978   3.880  17.958  0.00  0.00    +0.000 C 
ATOM     22  O   UNL     1       5.610   3.606  18.977  0.00  0.00    +0.000 OA
ATOM     23  H   UNL     1       3.145   3.679  16.980  0.00  0.00    +0.000 HD
BRANCH  21  24
ATOM     24  C   UNL     1       5.758   4.250  16.738  0.00  0.00    +0.000 A 
ATOM     25  C   UNL     1       5.139   4.014  15.497  0.00  0.00    +0.000 A 
ATOM     26  C   UNL     1       5.779   4.311  14.291  0.00  0.00    +0.000 A 
ATOM     27  C   UNL     1       7.063   4.859  14.319  0.00  0.00    +0.000 A 
ATOM     28  C   UNL     1       7.702   5.103  15.546  0.00  0.00    +0.000 A 
ATOM     29  C   UNL     1       7.052   4.796  16.755  0.00  0.00    +0.000 A 
BRANCH  27  30
ATOM     30  N   UNL     1       7.738   5.183  13.054  0.00  0.00    +0.000 N 
ATOM     31  O   UNL     1       8.656   6.014  13.090  0.00  0.00    +0.000 OA
ATOM     32  O   UNL     1       7.350   4.606  12.031  0.00  0.00    +0.000 OA
ENDBRANCH  27  30
ENDBRANCH  21  24
ENDBRANCH   6  20
TORSDOF 7
ENDMDL
MODEL 4
REMARK VINA RESULT:      -8.3      0.662      1.076
REMARK  Name = 
REMARK  8 active torsions:
REMARK  status: ('A' for Active; 'I' for Inactive)
REMARK    1  A    between atoms: C_1  and  C_2
REMARK    2  A    between atoms: C_2  and  C_3
REMARK    3  A    between atoms: C_3  and  C_4
REMARK    4  A    between atoms: C_7  and  N_8
REMARK    5  A    between atoms: C_9  and  C_11
REMARK    6  A    between atoms: C_16  and  N_17
REMARK    7  A    between atoms: C_18  and  C_20
REMARK    8  A    between atoms: C_23  and  N_24
REMARK                            x       y       z     vdW  Elec       q    Type
REMARK                         _______ _______ _______ _____ _____    ______ ____
ROOT
ATOM      1  C   UNL     1       2.374   4.845  19.869  0.00  0.00    +0.000 A 
ATOM      2  C   UNL     1       1.591   4.590  21.009  0.00  0.00    +0.000 A 
ATOM      3  C   UNL     1       1.319   3.279  21.403  0.00  0.00    +0.000 A 
ATOM      4  C   UNL     1       1.837   2.215  20.674  0.00  0.00    +0.000 A 
ATOM      5  C   UNL     1       2.610   2.458  19.538  0.00  0.00    +0.000 A 
ATOM      6  C   UNL     1       2.883   3.767  19.117  0.00  0.00    +0.000 A 
ENDROOT
BRANCH   1   8
ATOM      7  N   UNL     1       1.553   7.073  19.301  0.00  0.00    +0.000 N 
ATOM      8  C   UNL     1       2.659   6.248  19.455  0.00  0.00    +0.000 C 
ATOM      9  O   UNL     1       3.834   6.565  19.271  0.00  0.00    +0.000 OA
ATOM     10  H   UNL     1       0.640   6.637  19.312  0.00  0.00    +0.000 HD
BRANCH   7  14
ATOM     11  C   UNL     1       1.535  11.278  18.817  0.00  0.00    +0.000 A 
ATOM     12  C   UNL     1       2.117  10.465  17.841  0.00  0.00    +0.000 A 
ATOM     13  C   UNL     1       2.125   9.076  17.978  0.00  0.00    +0.000 A 
ATOM     14  C   UNL     1       1.557   8.469  19.097  0.00  0.00    +0.000 A 
ATOM     15  C   UNL     1       0.987   9.280  20.087  0.00  0.00    +0.000 A 
ATOM     16  C   UNL     1       0.981  10.674  19.949  0.00  0.00    +0.000 A 
BRANCH  11  17
ATOM     17  C   UNL     1       1.489  12.775  18.631  0.00  0.00    +0.000 C 
BRANCH  17  19
ATOM     18  C   UNL     1       2.503  13.954  20.653  0.00  0.00    +0.000 C 
ATOM     19  C   UNL     1       2.707  13.501  19.214  0.00  0.00    +0.000 C 
ENDBRANCH  17  19
ENDBRANCH  11  17
ENDBRANCH   7  14
ENDBRANCH   1   8
BRANCH   6  20
ATOM     20  N   UNL     1       3.687   3.989  17.967  0.00  0.00    +0.000 N 
ATOM     21  C   UNL     1       5.071   4.011  18.010  0.00  0.00    +0.000 C 
ATOM     22  O   UNL     1       5.724   3.718  19.011  0.00  0.00    +0.000 OA
ATOM     23  H   UNL     1       3.212   3.845  17.076  0.00  0.00    +0.000 HD
BRANCH  21  24
ATOM     24  C   UNL     1       5.826   4.382  16.774  0.00  0.00    +0.000 A 
ATOM     25  C   UNL     1       5.500   3.679  15.600  0.00  0.00    +0.000 A 
ATOM     26  C   UNL     1       6.149   3.934  14.389  0.00  0.00    +0.000 A 
ATOM     27  C   UNL     1       7.142   4.913  14.343  0.00  0.00    +0.000 A 
ATOM     28  C   UNL     1       7.487   5.628  15.503  0.00  0.00    +0.000 A 
ATOM     29  C   UNL     1       6.831   5.361  16.719  0.00  0.00    +0.000 A 
BRANCH  27  30
ATOM     30  N   UNL     1       7.822   5.194  13.071  0.00  0.00    +0.000 N 
ATOM     31  O   UNL     1       7.420   4.598  12.061  0.00  0.00    +0.000 OA
ATOM     32  O   UNL     1       8.752   6.009  13.083  0.00  0.00    +0.000 OA
ENDBRANCH  27  30
ENDBRANCH  21  24
ENDBRANCH   6  20
TORSDOF 7
ENDMDL
MODEL 5
REMARK VINA RESULT:      -8.2      1.135      1.886
REMARK  Name = 
REMARK  8 active torsions:
REMARK  status: ('A' for Active; 'I' for Inactive)
REMARK    1  A    between atoms: C_1  and  C_2
REMARK    2  A    between atoms: C_2  and  C_3
REMARK    3  A    between atoms: C_3  and  C_4
REMARK    4  A    between atoms: C_7  and  N_8
REMARK    5  A    between atoms: C_9  and  C_11
REMARK    6  A    between atoms: C_16  and  N_17
REMARK    7  A    between atoms: C_18  and  C_20
REMARK    8  A    between atoms: C_23  and  N_24
REMARK                            x       y       z     vdW  Elec       q    Type
REMARK                         _______ _______ _______ _____ _____    ______ ____
ROOT
ATOM      1  C   UNL     1       2.814   4.787  20.308  0.00  0.00    +0.000 A 
ATOM      2  C   UNL     1       2.034   4.357  21.397  0.00  0.00    +0.000 A 
ATOM      3  C   UNL     1       2.146   3.052  21.877  0.00  0.00    +0.000 A 
ATOM      4  C   UNL     1       3.045   2.171  21.286  0.00  0.00    +0.000 A 
ATOM      5  C   UNL     1       3.819   2.586  20.201  0.00  0.00    +0.000 A 
ATOM      6  C   UNL     1       3.711   3.889  19.695  0.00  0.00    +0.000 A 
ENDROOT
BRANCH   1   8
ATOM      7  N   UNL     1       1.650   6.933  20.338  0.00  0.00    +0.000 N 
ATOM      8  C   UNL     1       2.687   6.183  19.801  0.00  0.00    +0.000 C 
ATOM      9  O   UNL     1       3.492   6.559  18.949  0.00  0.00    +0.000 OA
ATOM     10  H   UNL     1       0.961   6.445  20.896  0.00  0.00    +0.000 HD
BRANCH   7  14
ATOM     11  C   UNL     1       0.961  11.060  19.695  0.00  0.00    +0.000 A 
ATOM     12  C   UNL     1       0.865  10.528  20.984  0.00  0.00    +0.000 A 
ATOM     13  C   UNL     1       1.097   9.172  21.217  0.00  0.00    +0.000 A 
ATOM     14  C   UNL     1       1.425   8.316  20.167  0.00  0.00    +0.000 A 
ATOM     15  C   UNL     1       1.505   8.840  18.871  0.00  0.00    +0.000 A 
ATOM     16  C   UNL     1       1.271  10.201  18.637  0.00  0.00    +0.000 A 
BRANCH  11  17
ATOM     17  C   UNL     1       0.757  12.537  19.466  0.00  0.00    +0.000 C 
BRANCH  17  19
ATOM     18  C   UNL     1      -1.770  12.374  19.157  0.00  0.00    +0.000 C 
ATOM     19  C   UNL     1      -0.449  12.857  18.574  0.00  0.00    +0.000 C 
ENDBRANCH  17  19
ENDBRANCH  11  17
ENDBRANCH   7  14
ENDBRANCH   1   8
BRANCH   6  20
ATOM     20  N   UNL     1       4.522   4.294  18.601  0.00  0.00    +0.000 N 
ATOM     21  C   UNL     1       4.281   3.891  17.298  0.00  0.00    +0.000 C 
ATOM     22  O   UNL     1       3.283   3.259  16.955  0.00  0.00    +0.000 OA
ATOM     23  H   UNL     1       5.105   5.112  18.778  0.00  0.00    +0.000 HD
BRANCH  21  24
ATOM     24  C   UNL     1       5.265   4.262  16.235  0.00  0.00    +0.000 A 
ATOM     25  C   UNL     1       4.910   3.949  14.910  0.00  0.00    +0.000 A 
ATOM     26  C   UNL     1       5.757   4.239  13.837  0.00  0.00    +0.000 A 
ATOM     27  C   UNL     1       6.983   4.858  14.086  0.00  0.00    +0.000 A 
ATOM     28  C   UNL     1       7.360   5.179  15.401  0.00  0.00    +0.000 A 
ATOM     29  C   UNL     1       6.504   4.879  16.475  0.00  0.00    +0.000 A 
BRANCH  27  30
ATOM     30  N   UNL     1       7.874   5.175  12.961  0.00  0.00    +0.000 N 
ATOM     31  O   UNL     1       7.620   4.659  11.863  0.00  0.00    +0.000 OA
ATOM     32  O   UNL     1       8.823   5.940  13.176  0.00  0.00    +0.000 OA
ENDBRANCH  27  30
ENDBRANCH  21  24
ENDBRANCH   6  20
TORSDOF 7
ENDMDL
MODEL 6
REMARK VINA RESULT:      -8.2      0.821      1.598
REMARK  Name = 
REMARK  8 active torsions:
REMARK  status: ('A' for Active; 'I' for Inactive)
REMARK    1  A    between atoms: C_1  and  C_2
REMARK    2  A    between atoms: C_2  and  C_3
REMARK    3  A    between atoms: C_3  and  C_4
REMARK    4  A    between atoms: C_7  and  N_8
REMARK    5  A    between atoms: C_9  and  C_11
REMARK    6  A    between atoms: C_16  and  N_17
REMARK    7  A    between atoms: C_18  and  C_20
REMARK    8  A    between atoms: C_23  and  N_24
REMARK                            x       y       z     vdW  Elec       q    Type
REMARK                         _______ _______ _______ _____ _____    ______ ____
ROOT
ATOM      1  C   UNL     1       2.316   4.737  19.780  0.00  0.00    +0.000 A 
ATOM      2  C   UNL     1       1.516   4.447  20.900  0.00  0.00    +0.000 A 
ATOM      3  C   UNL     1       1.214   3.127  21.233  0.00  0.00    +0.000 A 
ATOM      4  C   UNL     1       1.719   2.085  20.463  0.00  0.00    +0.000 A 
ATOM      5  C   UNL     1       2.509   2.362  19.347  0.00  0.00    +0.000 A 
ATOM      6  C   UNL     1       2.812   3.682  18.987  0.00  0.00    +0.000 A 
ENDROOT
BRANCH   1   8
ATOM      7  N   UNL     1       1.545   7.006  19.313  0.00  0.00    +0.000 N 
ATOM      8  C   UNL     1       2.632   6.151  19.431  0.00  0.00    +0.000 C 
ATOM      9  O   UNL     1       3.814   6.449  19.263  0.00  0.00    +0.000 OA
ATOM     10  H   UNL     1       0.622   6.590  19.304  0.00  0.00    +0.000 HD
BRANCH   7  14
ATOM     11  C   UNL     1       1.671  11.201  18.761  0.00  0.00    +0.000 A 
ATOM     12  C   UNL     1       1.140  10.667  19.939  0.00  0.00    +0.000 A 
ATOM     13  C   UNL     1       1.099   9.286  20.143  0.00  0.00    +0.000 A 
ATOM     14  C   UNL     1       1.580   8.409  19.173  0.00  0.00    +0.000 A 
ATOM     15  C   UNL     1       2.096   8.939  17.983  0.00  0.00    +0.000 A 
ATOM     16  C   UNL     1       2.137  10.323  17.778  0.00  0.00    +0.000 A 
BRANCH  11  17
ATOM     17  C   UNL     1       1.755  12.696  18.576  0.00  0.00    +0.000 C 
BRANCH  17  19
ATOM     18  C   UNL     1      -0.723  13.155  18.179  0.00  0.00    +0.000 C 
ATOM     19  C   UNL     1       0.499  13.442  19.041  0.00  0.00    +0.000 C 
ENDBRANCH  17  19
ENDBRANCH  11  17
ENDBRANCH   7  14
ENDBRANCH   1   8
BRANCH   6  20
ATOM     20  N   UNL     1       3.633   3.939  17.855  0.00  0.00    +0.000 N 
ATOM     21  C   UNL     1       5.016   3.955  17.919  0.00  0.00    +0.000 C 
ATOM     22  O   UNL     1       5.654   3.627  18.918  0.00  0.00    +0.000 OA
ATOM     23  H   UNL     1       3.169   3.825  16.954  0.00  0.00    +0.000 HD
BRANCH  21  24
ATOM     24  C   UNL     1       5.790   4.362  16.706  0.00  0.00    +0.000 A 
ATOM     25  C   UNL     1       5.576   3.608  15.538  0.00  0.00    +0.000 A 
ATOM     26  C   UNL     1       6.253   3.892  14.349  0.00  0.00    +0.000 A 
ATOM     27  C   UNL     1       7.160   4.952  14.319  0.00  0.00    +0.000 A 
ATOM     28  C   UNL     1       7.391   5.719  15.473  0.00  0.00    +0.000 A 
ATOM     29  C   UNL     1       6.709   5.423  16.667  0.00  0.00    +0.000 A 
BRANCH  27  30
ATOM     30  N   UNL     1       7.868   5.263  13.069  0.00  0.00    +0.000 N 
ATOM     31  O   UNL     1       7.454   4.733  12.028  0.00  0.00    +0.000 OA
ATOM     32  O   UNL     1       8.831   6.036  13.130  0.00  0.00    +0.000 OA
ENDBRANCH  27  30
ENDBRANCH  21  24
ENDBRANCH   6  20
TORSDOF 7
ENDMDL
MODEL 7
REMARK VINA RESULT:      -8.2      0.339      1.413
REMARK  Name = 
REMARK  8 active torsions:
REMARK  status: ('A' for Active; 'I' for Inactive)
REMARK    1  A    between atoms: C_1  and  C_2
REMARK    2  A    between atoms: C_2  and  C_3
REMARK    3  A    between atoms: C_3  and  C_4
REMARK    4  A    between atoms: C_7  and  N_8
REMARK    5  A    between atoms: C_9  and  C_11
REMARK    6  A    between atoms: C_16  and  N_17
REMARK    7  A    between atoms: C_18  and  C_20
REMARK    8  A    between atoms: C_23  and  N_24
REMARK                            x       y       z     vdW  Elec       q    Type
REMARK                         _______ _______ _______ _____ _____    ______ ____
ROOT
ATOM      1  C   UNL     1       2.393   4.484  20.007  0.00  0.00    +0.000 A 
ATOM      2  C   UNL     1       1.707   4.280  21.218  0.00  0.00    +0.000 A 
ATOM      3  C   UNL     1       1.869   3.094  21.934  0.00  0.00    +0.000 A 
ATOM      4  C   UNL     1       2.728   2.110  21.458  0.00  0.00    +0.000 A 
ATOM      5  C   UNL     1       3.410   2.300  20.255  0.00  0.00    +0.000 A 
ATOM      6  C   UNL     1       3.249   3.479  19.514  0.00  0.00    +0.000 A 
ENDROOT
BRANCH   1   8
ATOM      7  N   UNL     1       1.785   6.848  19.988  0.00  0.00    +0.000 N 
ATOM      8  C   UNL     1       2.212   5.754  19.248  0.00  0.00    +0.000 C 
ATOM      9  O   UNL     1       2.440   5.737  18.039  0.00  0.00    +0.000 OA
ATOM     10  H   UNL     1       1.467   6.678  20.934  0.00  0.00    +0.000 HD
BRANCH   7  14
ATOM     11  C   UNL     1       1.593  10.830  18.564  0.00  0.00    +0.000 A 
ATOM     12  C   UNL     1       1.063  10.510  19.818  0.00  0.00    +0.000 A 
ATOM     13  C   UNL     1       1.125   9.204  20.308  0.00  0.00    +0.000 A 
ATOM     14  C   UNL     1       1.712   8.189  19.555  0.00  0.00    +0.000 A 
ATOM     15  C   UNL     1       2.228   8.501  18.290  0.00  0.00    +0.000 A 
ATOM     16  C   UNL     1       2.165   9.811  17.798  0.00  0.00    +0.000 A 
BRANCH  11  17
ATOM     17  C   UNL     1       1.564  12.255  18.070  0.00  0.00    +0.000 C 
BRANCH  17  19
ATOM     18  C   UNL     1       2.993  14.368  18.116  0.00  0.00    +0.000 C 
ATOM     19  C   UNL     1       2.406  13.215  18.919  0.00  0.00    +0.000 C 
ENDBRANCH  17  19
ENDBRANCH  11  17
ENDBRANCH   7  14
ENDBRANCH   1   8
BRANCH   6  20
ATOM     20  N   UNL     1       3.967   3.657  18.300  0.00  0.00    +0.000 N 
ATOM     21  C   UNL     1       5.275   4.108  18.261  0.00  0.00    +0.000 C 
ATOM     22  O   UNL     1       5.968   4.273  19.264  0.00  0.00    +0.000 OA
ATOM     23  H   UNL     1       3.576   3.170  17.494  0.00  0.00    +0.000 HD
BRANCH  21  24
ATOM     24  C   UNL     1       5.903   4.389  16.933  0.00  0.00    +0.000 A 
ATOM     25  C   UNL     1       5.166   4.014  15.795  0.00  0.00    +0.000 A 
ATOM     26  C   UNL     1       5.658   4.217  14.503  0.00  0.00    +0.000 A 
ATOM     27  C   UNL     1       6.911   4.811  14.339  0.00  0.00    +0.000 A 
ATOM     28  C   UNL     1       7.667   5.192  15.460  0.00  0.00    +0.000 A 
ATOM     29  C   UNL     1       7.165   4.979  16.757  0.00  0.00    +0.000 A 
BRANCH  27  30
ATOM     30  N   UNL     1       7.431   5.037  12.983  0.00  0.00    +0.000 N 
ATOM     31  O   UNL     1       8.250   5.953  12.827  0.00  0.00    +0.000 OA
ATOM     32  O   UNL     1       7.021   4.298  12.079  0.00  0.00    +0.000 OA
ENDBRANCH  27  30
ENDBRANCH  21  24
ENDBRANCH   6  20
TORSDOF 7
ENDMDL
MODEL 8
REMARK VINA RESULT:      -8.1      0.707      1.326
REMARK  Name = 
REMARK  8 active torsions:
REMARK  status: ('A' for Active; 'I' for Inactive)
REMARK    1  A    between atoms: C_1  and  C_2
REMARK    2  A    between atoms: C_2  and  C_3
REMARK    3  A    between atoms: C_3  and  C_4
REMARK    4  A    between atoms: C_7  and  N_8
REMARK    5  A    between atoms: C_9  and  C_11
REMARK    6  A    between atoms: C_16  and  N_17
REMARK    7  A    between atoms: C_18  and  C_20
REMARK    8  A    between atoms: C_23  and  N_24
REMARK                            x       y       z     vdW  Elec       q    Type
REMARK                         _______ _______ _______ _____ _____    ______ ____
ROOT
ATOM      1  C   UNL     1       2.435   4.719  20.014  0.00  0.00    +0.000 A 
ATOM      2  C   UNL     1       1.745   4.505  21.222  0.00  0.00    +0.000 A 
ATOM      3  C   UNL     1       1.532   3.210  21.696  0.00  0.00    +0.000 A 
ATOM      4  C   UNL     1       2.017   2.121  20.981  0.00  0.00    +0.000 A 
ATOM      5  C   UNL     1       2.697   2.323  19.779  0.00  0.00    +0.000 A 
ATOM      6  C   UNL     1       2.909   3.615  19.278  0.00  0.00    +0.000 A 
ENDROOT
BRANCH   1   8
ATOM      7  N   UNL     1       1.570   6.964  19.600  0.00  0.00    +0.000 N 
ATOM      8  C   UNL     1       2.657   6.105  19.515  0.00  0.00    +0.000 C 
ATOM      9  O   UNL     1       3.767   6.380  19.059  0.00  0.00    +0.000 OA
ATOM     10  H   UNL     1       0.671   6.559  19.831  0.00  0.00    +0.000 HD
BRANCH   7  14
ATOM     11  C   UNL     1       1.570  11.116  18.776  0.00  0.00    +0.000 A 
ATOM     12  C   UNL     1       1.160  10.652  20.029  0.00  0.00    +0.000 A 
ATOM     13  C   UNL     1       1.162   9.288  20.323  0.00  0.00    +0.000 A 
ATOM     14  C   UNL     1       1.567   8.356  19.369  0.00  0.00    +0.000 A 
ATOM     15  C   UNL     1       1.962   8.814  18.106  0.00  0.00    +0.000 A 
ATOM     16  C   UNL     1       1.959  10.183  17.811  0.00  0.00    +0.000 A 
BRANCH  11  17
ATOM     17  C   UNL     1       1.611  12.597  18.490  0.00  0.00    +0.000 C 
BRANCH  17  19
ATOM     18  C   UNL     1       0.190  14.698  18.769  0.00  0.00    +0.000 C 
ATOM     19  C   UNL     1       0.222  13.232  18.356  0.00  0.00    +0.000 C 
ENDBRANCH  17  19
ENDBRANCH  11  17
ENDBRANCH   7  14
ENDBRANCH   1   8
BRANCH   6  20
ATOM     20  N   UNL     1       3.620   3.796  18.060  0.00  0.00    +0.000 N 
ATOM     21  C   UNL     1       5.001   3.865  18.000  0.00  0.00    +0.000 C 
ATOM     22  O   UNL     1       5.735   3.652  18.964  0.00  0.00    +0.000 OA
ATOM     23  H   UNL     1       3.087   3.585  17.217  0.00  0.00    +0.000 HD
BRANCH  21  24
ATOM     24  C   UNL     1       5.651   4.188  16.693  0.00  0.00    +0.000 A 
ATOM     25  C   UNL     1       6.926   4.780  16.751  0.00  0.00    +0.000 A 
ATOM     26  C   UNL     1       7.622   5.135  15.593  0.00  0.00    +0.000 A 
ATOM     27  C   UNL     1       7.040   4.891  14.348  0.00  0.00    +0.000 A 
ATOM     28  C   UNL     1       5.768   4.302  14.264  0.00  0.00    +0.000 A 
ATOM     29  C   UNL     1       5.072   3.953  15.435  0.00  0.00    +0.000 A 
BRANCH  27  30
ATOM     30  N   UNL     1       7.772   5.252  13.125  0.00  0.00    +0.000 N 
ATOM     31  O   UNL     1       8.705   6.060  13.231  0.00  0.00    +0.000 OA
ATOM     32  O   UNL     1       7.414   4.726  12.064  0.00  0.00    +0.000 OA
ENDBRANCH  27  30
ENDBRANCH  21  24
ENDBRANCH   6  20
TORSDOF 7
ENDMDL
MODEL 9
REMARK VINA RESULT:      -8.0      4.459      7.786
REMARK  Name = 
REMARK  8 active torsions:
REMARK  status: ('A' for Active; 'I' for Inactive)
REMARK    1  A    between atoms: C_1  and  C_2
REMARK    2  A    between atoms: C_2  and  C_3
REMARK    3  A    between atoms: C_3  and  C_4
REMARK    4  A    between atoms: C_7  and  N_8
REMARK    5  A    between atoms: C_9  and  C_11
REMARK    6  A    between atoms: C_16  and  N_17
REMARK    7  A    between atoms: C_18  and  C_20
REMARK    8  A    between atoms: C_23  and  N_24
REMARK                            x       y       z     vdW  Elec       q    Type
REMARK                         _______ _______ _______ _____ _____    ______ ____
ROOT
ATOM      1  C   UNL     1       6.708   6.005  16.756  0.00  0.00    +0.000 A 
ATOM      2  C   UNL     1       7.467   5.144  15.943  0.00  0.00    +0.000 A 
ATOM      3  C   UNL     1       6.841   4.289  15.037  0.00  0.00    +0.000 A 
ATOM      4  C   UNL     1       5.455   4.295  14.922  0.00  0.00    +0.000 A 
ATOM      5  C   UNL     1       4.692   5.141  15.728  0.00  0.00    +0.000 A 
ATOM      6  C   UNL     1       5.302   5.998  16.655  0.00  0.00    +0.000 A 
ENDROOT
BRANCH   1   8
ATOM      7  N   UNL     1       7.850   8.116  17.204  0.00  0.00    +0.000 N 
ATOM      8  C   UNL     1       7.386   6.915  17.723  0.00  0.00    +0.000 C 
ATOM      9  O   UNL     1       7.493   6.535  18.889  0.00  0.00    +0.000 OA
ATOM     10  H   UNL     1       7.851   8.220  16.197  0.00  0.00    +0.000 HD
BRANCH   7  14
ATOM     11  C   UNL     1       9.300  11.493  19.303  0.00  0.00    +0.000 A 
ATOM     12  C   UNL     1       9.436  10.216  19.855  0.00  0.00    +0.000 A 
ATOM     13  C   UNL     1       8.972   9.090  19.174  0.00  0.00    +0.000 A 
ATOM     14  C   UNL     1       8.357   9.214  17.930  0.00  0.00    +0.000 A 
ATOM     15  C   UNL     1       8.202  10.494  17.380  0.00  0.00    +0.000 A 
ATOM     16  C   UNL     1       8.667  11.624  18.064  0.00  0.00    +0.000 A 
BRANCH  11  17
ATOM     17  C   UNL     1       9.851  12.696  20.028  0.00  0.00    +0.000 C 
BRANCH  17  19
ATOM     18  C   UNL     1      12.327  12.113  19.825  0.00  0.00    +0.000 C 
ATOM     19  C   UNL     1      11.234  13.131  19.528  0.00  0.00    +0.000 C 
ENDBRANCH  17  19
ENDBRANCH  11  17
ENDBRANCH   7  14
ENDBRANCH   1   8
BRANCH   6  20
ATOM     20  N   UNL     1       4.504   6.863  17.453  0.00  0.00    +0.000 N 
ATOM     21  C   UNL     1       3.284   6.482  17.984  0.00  0.00    +0.000 C 
ATOM     22  O   UNL     1       2.844   5.335  17.922  0.00  0.00    +0.000 OA
ATOM     23  H   UNL     1       5.000   7.663  17.846  0.00  0.00    +0.000 HD
BRANCH  21  24
ATOM     24  C   UNL     1       2.458   7.503  18.699  0.00  0.00    +0.000 A 
ATOM     25  C   UNL     1       2.044   8.619  17.949  0.00  0.00    +0.000 A 
ATOM     26  C   UNL     1       1.278   9.640  18.517  0.00  0.00    +0.000 A 
ATOM     27  C   UNL     1       0.913   9.549  19.860  0.00  0.00    +0.000 A 
ATOM     28  C   UNL     1       1.315   8.446  20.631  0.00  0.00    +0.000 A 
ATOM     29  C   UNL     1       2.090   7.424  20.052  0.00  0.00    +0.000 A 
BRANCH  27  30
ATOM     30  N   UNL     1       0.099  10.615  20.461  0.00  0.00    +0.000 N 
ATOM     31  O   UNL     1      -0.509  10.353  21.509  0.00  0.00    +0.000 OA
ATOM     32  O   UNL     1       0.071  11.711  19.887  0.00  0.00    +0.000 OA
ENDBRANCH  27  30
ENDBRANCH  21  24
ENDBRANCH   6  20
TORSDOF 7
ENDMDL
