MODEL 1
REMARK VINA RESULT:      -8.0      0.000      0.000
REMARK  Name = 
REMARK  4 active torsions:
REMARK  status: ('A' for Active; 'I' for Inactive)
REMARK    1  A    between atoms: O_1  and  C_2
REMARK    2  A    between atoms: C_7  and  O_8
REMARK    3  A    between atoms: C_9  and  O_10
REMARK    4  A    between atoms: C_16  and  O_17
REMARK                            x       y       z     vdW  Elec       q    Type
REMARK                         _______ _______ _______ _____ _____    ______ ____
ROOT
ATOM      1  C   UNL     1       2.395   2.900  20.887  0.00  0.00    +0.000 A 
ATOM      2  C   UNL     1       3.754   2.692  20.629  0.00  0.00    +0.000 A 
ATOM      3  C   UNL     1       4.325   3.414  19.571  0.00  0.00    +0.000 A 
ATOM      4  N   UNL     1       5.618   3.418  19.089  0.00  0.00    +0.000 N 
ATOM      5  C   UNL     1       5.753   4.280  18.025  0.00  0.00    +0.000 A 
ATOM      6  C   UNL     1       6.851   4.615  17.219  0.00  0.00    +0.000 A 
ATOM      7  C   UNL     1       6.662   5.546  16.193  0.00  0.00    +0.000 A 
ATOM      8  C   UNL     1       5.431   6.136  15.964  0.00  0.00    +0.000 A 
ATOM      9  C   UNL     1       4.339   5.797  16.770  0.00  0.00    +0.000 A 
ATOM     10  C   UNL     1       4.495   4.858  17.815  0.00  0.00    +0.000 A 
ATOM     11  C   UNL     1       3.599   4.311  18.789  0.00  0.00    +0.000 A 
ATOM     12  C   UNL     1       2.228   4.503  19.071  0.00  0.00    +0.000 A 
ATOM     13  C   UNL     1       1.644   3.791  20.121  0.00  0.00    +0.000 A 
ATOM     14  H   UNL     1       6.357   2.853  19.476  0.00  0.00    +0.000 HD
ENDROOT
BRANCH   1  15
ATOM     15  O   UNL     1       1.777   2.226  21.905  0.00  0.00    +0.000 OA
ATOM     16  H   UNL     1       1.731   2.792  22.689  0.00  0.00    +0.000 HD
ENDBRANCH   1  15
BRANCH   6  17
ATOM     17  O   UNL     1       8.114   4.085  17.370  0.00  0.00    +0.000 OA
ATOM     18  H   UNL     1       8.300   4.011  18.318  0.00  0.00    +0.000 HD
ENDBRANCH   6  17
BRANCH   7  19
ATOM     19  O   UNL     1       7.709   5.897  15.384  0.00  0.00    +0.000 OA
ATOM     20  H   UNL     1       7.441   6.745  14.980  0.00  0.00    +0.000 HD
ENDBRANCH   7  19
BRANCH  13  21
ATOM     21  O   UNL     1       0.319   3.960  20.411  0.00  0.00    +0.000 OA
ATOM     22  H   UNL     1       0.147   4.900  20.577  0.00  0.00    +0.000 HD
ENDBRANCH  13  21
TORSDOF 4
ENDMDL
MODEL 2
REMARK VINA RESULT:      -7.7      1.560      5.898
REMARK  Name = 
REMARK  4 active torsions:
REMARK  status: ('A' for Active; 'I' for Inactive)
REMARK    1  A    between atoms: O_1  and  C_2
REMARK    2  A    between atoms: C_7  and  O_8
REMARK    3  A    between atoms: C_9  and  O_10
REMARK    4  A    between atoms: C_16  and  O_17
REMARK                            x       y       z     vdW  Elec       q    Type
REMARK                         _______ _______ _______ _____ _____    ______ ____
ROOT
ATOM      1  C   UNL     1       6.763   5.213  15.863  0.00  0.00    +0.000 A 
ATOM      2  C   UNL     1       5.882   4.126  15.881  0.00  0.00    +0.000 A 
ATOM      3  C   UNL     1       4.906   4.107  16.889  0.00  0.00    +0.000 A 
ATOM      4  N   UNL     1       3.917   3.183  17.155  0.00  0.00    +0.000 N 
ATOM      5  C   UNL     1       3.169   3.552  18.250  0.00  0.00    +0.000 A 
ATOM      6  C   UNL     1       2.080   2.945  18.893  0.00  0.00    +0.000 A 
ATOM      7  C   UNL     1       1.528   3.583  20.008  0.00  0.00    +0.000 A 
ATOM      8  C   UNL     1       2.026   4.785  20.478  0.00  0.00    +0.000 A 
ATOM      9  C   UNL     1       3.113   5.386  19.833  0.00  0.00    +0.000 A 
ATOM     10  C   UNL     1       3.697   4.766  18.704  0.00  0.00    +0.000 A 
ATOM     11  C   UNL     1       4.789   5.112  17.847  0.00  0.00    +0.000 A 
ATOM     12  C   UNL     1       5.691   6.199  17.805  0.00  0.00    +0.000 A 
ATOM     13  C   UNL     1       6.669   6.233  16.808  0.00  0.00    +0.000 A 
ATOM     14  H   UNL     1       3.776   2.347  16.610  0.00  0.00    +0.000 HD
ENDROOT
BRANCH   1  15
ATOM     15  O   UNL     1       7.739   5.291  14.906  0.00  0.00    +0.000 OA
ATOM     16  H   UNL     1       8.168   6.157  14.950  0.00  0.00    +0.000 HD
ENDBRANCH   1  15
BRANCH   6  17
ATOM     17  O   UNL     1       1.514   1.752  18.499  0.00  0.00    +0.000 OA
ATOM     18  H   UNL     1       1.794   1.064  19.122  0.00  0.00    +0.000 HD
ENDBRANCH   6  17
BRANCH   7  19
ATOM     19  O   UNL     1       0.466   3.021  20.663  0.00  0.00    +0.000 OA
ATOM     20  H   UNL     1       0.861   2.349  21.252  0.00  0.00    +0.000 HD
ENDBRANCH   7  19
BRANCH  13  21
ATOM     21  O   UNL     1       7.553   7.274  16.749  0.00  0.00    +0.000 OA
ATOM     22  H   UNL     1       7.073   8.087  16.527  0.00  0.00    +0.000 HD
ENDBRANCH  13  21
TORSDOF 4
ENDMDL
MODEL 3
REMARK VINA RESULT:      -7.6      0.937      5.638
REMARK  Name = 
REMARK  4 active torsions:
REMARK  status: ('A' for Active; 'I' for Inactive)
REMARK    1  A    between atoms: O_1  and  C_2
REMARK    2  A    between atoms: C_7  and  O_8
REMARK    3  A    between atoms: C_9  and  O_10
REMARK    4  A    between atoms: C_16  and  O_17
REMARK                            x       y       z     vdW  Elec       q    Type
REMARK                         _______ _______ _______ _____ _____    ______ ____
ROOT
ATOM      1  C   UNL     1       6.453   5.410  16.353  0.00  0.00    +0.000 A 
ATOM      2  C   UNL     1       6.580   4.453  17.365  0.00  0.00    +0.000 A 
ATOM      3  C   UNL     1       5.457   4.222  18.174  0.00  0.00    +0.000 A 
ATOM      4  N   UNL     1       5.285   3.354  19.233  0.00  0.00    +0.000 N 
ATOM      5  C   UNL     1       4.015   3.447  19.754  0.00  0.00    +0.000 A 
ATOM      6  C   UNL     1       3.383   2.783  20.816  0.00  0.00    +0.000 A 
ATOM      7  C   UNL     1       2.054   3.108  21.105  0.00  0.00    +0.000 A 
ATOM      8  C   UNL     1       1.361   4.056  20.373  0.00  0.00    +0.000 A 
ATOM      9  C   UNL     1       1.996   4.716  19.315  0.00  0.00    +0.000 A 
ATOM     10  C   UNL     1       3.341   4.412  18.997  0.00  0.00    +0.000 A 
ATOM     11  C   UNL     1       4.251   4.898  18.005  0.00  0.00    +0.000 A 
ATOM     12  C   UNL     1       4.149   5.859  16.974  0.00  0.00    +0.000 A 
ATOM     13  C   UNL     1       5.258   6.102  16.160  0.00  0.00    +0.000 A 
ATOM     14  H   UNL     1       6.008   2.740  19.571  0.00  0.00    +0.000 HD
ENDROOT
BRANCH   1  15
ATOM     15  O   UNL     1       7.511   5.684  15.529  0.00  0.00    +0.000 OA
ATOM     16  H   UNL     1       7.199   6.158  14.745  0.00  0.00    +0.000 HD
ENDBRANCH   1  15
BRANCH   6  17
ATOM     17  O   UNL     1       3.986   1.824  21.601  0.00  0.00    +0.000 OA
ATOM     18  H   UNL     1       4.751   1.475  21.117  0.00  0.00    +0.000 HD
ENDBRANCH   6  17
BRANCH   7  19
ATOM     19  O   UNL     1       1.404   2.483  22.135  0.00  0.00    +0.000 OA
ATOM     20  H   UNL     1       1.799   1.591  22.178  0.00  0.00    +0.000 HD
ENDBRANCH   7  19
BRANCH  13  21
ATOM     21  O   UNL     1       5.184   7.028  15.157  0.00  0.00    +0.000 OA
ATOM     22  H   UNL     1       5.608   6.671  14.362  0.00  0.00    +0.000 HD
ENDBRANCH  13  21
TORSDOF 4
ENDMDL
MODEL 4
REMARK VINA RESULT:      -7.4      1.751      2.253
REMARK  Name = 
REMARK  4 active torsions:
REMARK  status: ('A' for Active; 'I' for Inactive)
REMARK    1  A    between atoms: O_1  and  C_2
REMARK    2  A    between atoms: C_7  and  O_8
REMARK    3  A    between atoms: C_9  and  O_10
REMARK    4  A    between atoms: C_16  and  O_17
REMARK                            x       y       z     vdW  Elec       q    Type
REMARK                         _______ _______ _______ _____ _____    ______ ____
ROOT
ATOM      1  C   UNL     1       1.513   3.857  19.403  0.00  0.00    +0.000 A 
ATOM      2  C   UNL     1       2.408   4.929  19.331  0.00  0.00    +0.000 A 
ATOM      3  C   UNL     1       3.398   4.873  18.339  0.00  0.00    +0.000 A 
ATOM      4  N   UNL     1       4.403   5.767  18.030  0.00  0.00    +0.000 N 
ATOM      5  C   UNL     1       5.164   5.319  16.975  0.00  0.00    +0.000 A 
ATOM      6  C   UNL     1       6.276   5.867  16.317  0.00  0.00    +0.000 A 
ATOM      7  C   UNL     1       6.839   5.151  15.256  0.00  0.00    +0.000 A 
ATOM      8  C   UNL     1       6.325   3.933  14.847  0.00  0.00    +0.000 A 
ATOM      9  C   UNL     1       5.217   3.390  15.507  0.00  0.00    +0.000 A 
ATOM     10  C   UNL     1       4.625   4.087  16.586  0.00  0.00    +0.000 A 
ATOM     11  C   UNL     1       3.515   3.809  17.446  0.00  0.00    +0.000 A 
ATOM     12  C   UNL     1       2.597   2.739  17.541  0.00  0.00    +0.000 A 
ATOM     13  C   UNL     1       1.605   2.779  18.523  0.00  0.00    +0.000 A 
ATOM     14  H   UNL     1       4.550   6.631  18.527  0.00  0.00    +0.000 HD
ENDROOT
BRANCH   1  15
ATOM     15  O   UNL     1       0.523   3.850  20.349  0.00  0.00    +0.000 OA
ATOM     16  H   UNL     1       0.386   4.748  20.682  0.00  0.00    +0.000 HD
ENDBRANCH   1  15
BRANCH   6  17
ATOM     17  O   UNL     1       6.857   7.072  16.649  0.00  0.00    +0.000 OA
ATOM     18  H   UNL     1       7.159   7.496  15.831  0.00  0.00    +0.000 HD
ENDBRANCH   6  17
BRANCH   7  19
ATOM     19  O   UNL     1       7.925   5.652  14.591  0.00  0.00    +0.000 OA
ATOM     20  H   UNL     1       7.631   5.749  13.665  0.00  0.00    +0.000 HD
ENDBRANCH   7  19
BRANCH  13  21
ATOM     21  O   UNL     1       0.707   1.755  18.634  0.00  0.00    +0.000 OA
ATOM     22  H   UNL     1       0.668   1.273  17.793  0.00  0.00    +0.000 HD
ENDBRANCH  13  21
TORSDOF 4
ENDMDL
MODEL 5
REMARK VINA RESULT:      -7.4      1.684      5.964
REMARK  Name = 
REMARK  4 active torsions:
REMARK  status: ('A' for Active; 'I' for Inactive)
REMARK    1  A    between atoms: O_1  and  C_2
REMARK    2  A    between atoms: C_7  and  O_8
REMARK    3  A    between atoms: C_9  and  O_10
REMARK    4  A    between atoms: C_16  and  O_17
REMARK                            x       y       z     vdW  Elec       q    Type
REMARK                         _______ _______ _______ _____ _____    ______ ____
ROOT
ATOM      1  C   UNL     1       6.716   5.146  15.585  0.00  0.00    +0.000 A 
ATOM      2  C   UNL     1       6.289   5.668  16.810  0.00  0.00    +0.000 A 
ATOM      3  C   UNL     1       5.178   5.060  17.415  0.00  0.00    +0.000 A 
ATOM      4  N   UNL     1       4.539   5.351  18.603  0.00  0.00    +0.000 N 
ATOM      5  C   UNL     1       3.479   4.501  18.822  0.00  0.00    +0.000 A 
ATOM      6  C   UNL     1       2.548   4.409  19.867  0.00  0.00    +0.000 A 
ATOM      7  C   UNL     1       1.567   3.415  19.795  0.00  0.00    +0.000 A 
ATOM      8  C   UNL     1       1.501   2.534  18.731  0.00  0.00    +0.000 A 
ATOM      9  C   UNL     1       2.431   2.630  17.691  0.00  0.00    +0.000 A 
ATOM     10  C   UNL     1       3.436   3.626  17.730  0.00  0.00    +0.000 A 
ATOM     11  C   UNL     1       4.505   3.980  16.847  0.00  0.00    +0.000 A 
ATOM     12  C   UNL     1       4.958   3.472  15.609  0.00  0.00    +0.000 A 
ATOM     13  C   UNL     1       6.062   4.066  14.994  0.00  0.00    +0.000 A 
ATOM     14  H   UNL     1       4.823   6.095  19.218  0.00  0.00    +0.000 HD
ENDROOT
BRANCH   1  15
ATOM     15  O   UNL     1       7.793   5.693  14.942  0.00  0.00    +0.000 OA
ATOM     16  H   UNL     1       8.276   6.270  15.551  0.00  0.00    +0.000 HD
ENDBRANCH   1  15
BRANCH   6  17
ATOM     17  O   UNL     1       2.533   5.237  20.968  0.00  0.00    +0.000 OA
ATOM     18  H   UNL     1       3.011   6.049  20.742  0.00  0.00    +0.000 HD
ENDBRANCH   6  17
BRANCH   7  19
ATOM     19  O   UNL     1       0.639   3.295  20.795  0.00  0.00    +0.000 OA
ATOM     20  H   UNL     1      -0.214   3.521  20.375  0.00  0.00    +0.000 HD
ENDBRANCH   7  19
BRANCH  13  21
ATOM     21  O   UNL     1       6.517   3.591  13.795  0.00  0.00    +0.000 OA
ATOM     22  H   UNL     1       7.486   3.631  13.784  0.00  0.00    +0.000 HD
ENDBRANCH  13  21
TORSDOF 4
ENDMDL
MODEL 6
REMARK VINA RESULT:      -7.3      1.521      1.621
REMARK  Name = 
REMARK  4 active torsions:
REMARK  status: ('A' for Active; 'I' for Inactive)
REMARK    1  A    between atoms: O_1  and  C_2
REMARK    2  A    between atoms: C_7  and  O_8
REMARK    3  A    between atoms: C_9  and  O_10
REMARK    4  A    between atoms: C_16  and  O_17
REMARK                            x       y       z     vdW  Elec       q    Type
REMARK                         _______ _______ _______ _____ _____    ______ ____
ROOT
ATOM      1  C   UNL     1       1.546   3.168  20.145  0.00  0.00    +0.000 A 
ATOM      2  C   UNL     1       2.632   4.008  20.415  0.00  0.00    +0.000 A 
ATOM      3  C   UNL     1       3.508   4.285  19.354  0.00  0.00    +0.000 A 
ATOM      4  N   UNL     1       4.646   5.065  19.318  0.00  0.00    +0.000 N 
ATOM      5  C   UNL     1       5.212   5.065  18.064  0.00  0.00    +0.000 A 
ATOM      6  C   UNL     1       6.356   5.693  17.548  0.00  0.00    +0.000 A 
ATOM      7  C   UNL     1       6.674   5.491  16.202  0.00  0.00    +0.000 A 
ATOM      8  C   UNL     1       5.892   4.697  15.381  0.00  0.00    +0.000 A 
ATOM      9  C   UNL     1       4.753   4.072  15.900  0.00  0.00    +0.000 A 
ATOM     10  C   UNL     1       4.403   4.254  17.259  0.00  0.00    +0.000 A 
ATOM     11  C   UNL     1       3.333   3.764  18.073  0.00  0.00    +0.000 A 
ATOM     12  C   UNL     1       2.227   2.920  17.828  0.00  0.00    +0.000 A 
ATOM     13  C   UNL     1       1.346   2.633  18.874  0.00  0.00    +0.000 A 
ATOM     14  H   UNL     1       5.004   5.561  20.117  0.00  0.00    +0.000 HD
ENDROOT
BRANCH   1  15
ATOM     15  O   UNL     1       0.655   2.857  21.137  0.00  0.00    +0.000 OA
ATOM     16  H   UNL     1       0.079   2.138  20.842  0.00  0.00    +0.000 HD
ENDBRANCH   1  15
BRANCH   6  17
ATOM     17  O   UNL     1       7.194   6.502  18.284  0.00  0.00    +0.000 OA
ATOM     18  H   UNL     1       7.299   6.109  19.163  0.00  0.00    +0.000 HD
ENDBRANCH   6  17
BRANCH   7  19
ATOM     19  O   UNL     1       7.783   6.085  15.663  0.00  0.00    +0.000 OA
ATOM     20  H   UNL     1       8.003   5.543  14.880  0.00  0.00    +0.000 HD
ENDBRANCH   7  19
BRANCH  13  21
ATOM     21  O   UNL     1       0.270   1.818  18.660  0.00  0.00    +0.000 OA
ATOM     22  H   UNL     1       0.548   1.056  18.129  0.00  0.00    +0.000 HD
ENDBRANCH  13  21
TORSDOF 4
ENDMDL
MODEL 7
REMARK VINA RESULT:      -7.1      1.511      2.435
REMARK  Name = 
REMARK  4 active torsions:
REMARK  status: ('A' for Active; 'I' for Inactive)
REMARK    1  A    between atoms: O_1  and  C_2
REMARK    2  A    between atoms: C_7  and  O_8
REMARK    3  A    between atoms: C_9  and  O_10
REMARK    4  A    between atoms: C_16  and  O_17
REMARK                            x       y       z     vdW  Elec       q    Type
REMARK                         _______ _______ _______ _____ _____    ______ ____
ROOT
ATOM      1  C   UNL     1       1.234   3.184  19.678  0.00  0.00    +0.000 A 
ATOM      2  C   UNL     1       1.513   3.823  18.465  0.00  0.00    +0.000 A 
ATOM      3  C   UNL     1       2.791   4.380  18.313  0.00  0.00    +0.000 A 
ATOM      4  N   UNL     1       3.346   5.060  17.248  0.00  0.00    +0.000 N 
ATOM      5  C   UNL     1       4.641   5.440  17.518  0.00  0.00    +0.000 A 
ATOM      6  C   UNL     1       5.593   6.142  16.762  0.00  0.00    +0.000 A 
ATOM      7  C   UNL     1       6.848   6.377  17.329  0.00  0.00    +0.000 A 
ATOM      8  C   UNL     1       7.166   5.935  18.601  0.00  0.00    +0.000 A 
ATOM      9  C   UNL     1       6.214   5.236  19.352  0.00  0.00    +0.000 A 
ATOM     10  C   UNL     1       4.932   4.983  18.808  0.00  0.00    +0.000 A 
ATOM     11  C   UNL     1       3.767   4.317  19.306  0.00  0.00    +0.000 A 
ATOM     12  C   UNL     1       3.459   3.665  20.521  0.00  0.00    +0.000 A 
ATOM     13  C   UNL     1       2.190   3.106  20.689  0.00  0.00    +0.000 A 
ATOM     14  H   UNL     1       2.852   5.249  16.391  0.00  0.00    +0.000 HD
ENDROOT
BRANCH   1  15
ATOM     15  O   UNL     1       0.004   2.620  19.891  0.00  0.00    +0.000 OA
ATOM     16  H   UNL     1      -0.144   1.912  19.248  0.00  0.00    +0.000 HD
ENDBRANCH   1  15
BRANCH   6  17
ATOM     17  O   UNL     1       5.372   6.620  15.489  0.00  0.00    +0.000 OA
ATOM     18  H   UNL     1       6.061   7.271  15.287  0.00  0.00    +0.000 HD
ENDBRANCH   6  17
BRANCH   7  19
ATOM     19  O   UNL     1       7.802   7.060  16.624  0.00  0.00    +0.000 OA
ATOM     20  H   UNL     1       8.654   6.713  16.953  0.00  0.00    +0.000 HD
ENDBRANCH   7  19
BRANCH  13  21
ATOM     21  O   UNL     1       1.869   2.470  21.856  0.00  0.00    +0.000 OA
ATOM     22  H   UNL     1       2.570   1.839  22.078  0.00  0.00    +0.000 HD
ENDBRANCH  13  21
TORSDOF 4
ENDMDL
MODEL 8
REMARK VINA RESULT:      -7.0      3.575      5.102
REMARK  Name = 
REMARK  4 active torsions:
REMARK  status: ('A' for Active; 'I' for Inactive)
REMARK    1  A    between atoms: O_1  and  C_2
REMARK    2  A    between atoms: C_7  and  O_8
REMARK    3  A    between atoms: C_9  and  O_10
REMARK    4  A    between atoms: C_16  and  O_17
REMARK                            x       y       z     vdW  Elec       q    Type
REMARK                         _______ _______ _______ _____ _____    ______ ____
ROOT
ATOM      1  C   UNL     1       1.399   9.224  19.555  0.00  0.00    +0.000 A 
ATOM      2  C   UNL     1       1.459   8.131  20.426  0.00  0.00    +0.000 A 
ATOM      3  C   UNL     1       2.059   6.958  19.943  0.00  0.00    +0.000 A 
ATOM      4  N   UNL     1       2.259   5.740  20.559  0.00  0.00    +0.000 N 
ATOM      5  C   UNL     1       2.891   4.852  19.719  0.00  0.00    +0.000 A 
ATOM      6  C   UNL     1       3.295   3.520  19.890  0.00  0.00    +0.000 A 
ATOM      7  C   UNL     1       3.925   2.875  18.822  0.00  0.00    +0.000 A 
ATOM      8  C   UNL     1       4.157   3.518  17.619  0.00  0.00    +0.000 A 
ATOM      9  C   UNL     1       3.751   4.847  17.453  0.00  0.00    +0.000 A 
ATOM     10  C   UNL     1       3.109   5.528  18.513  0.00  0.00    +0.000 A 
ATOM     11  C   UNL     1       2.584   6.852  18.656  0.00  0.00    +0.000 A 
ATOM     12  C   UNL     1       2.511   7.972  17.798  0.00  0.00    +0.000 A 
ATOM     13  C   UNL     1       1.916   9.147  18.263  0.00  0.00    +0.000 A 
ATOM     14  H   UNL     1       1.971   5.542  21.504  0.00  0.00    +0.000 HD
ENDROOT
BRANCH   1  15
ATOM     15  O   UNL     1       0.826  10.398  19.965  0.00  0.00    +0.000 OA
ATOM     16  H   UNL     1      -0.056  10.483  19.574  0.00  0.00    +0.000 HD
ENDBRANCH   1  15
BRANCH   6  17
ATOM     17  O   UNL     1       3.111   2.796  21.048  0.00  0.00    +0.000 OA
ATOM     18  H   UNL     1       2.342   2.219  20.925  0.00  0.00    +0.000 HD
ENDBRANCH   6  17
BRANCH   7  19
ATOM     19  O   UNL     1       4.332   1.574  18.950  0.00  0.00    +0.000 OA
ATOM     20  H   UNL     1       5.292   1.627  19.123  0.00  0.00    +0.000 HD
ENDBRANCH   7  19
BRANCH  13  21
ATOM     21  O   UNL     1       1.834  10.243  17.450  0.00  0.00    +0.000 OA
ATOM     22  H   UNL     1       1.535  11.004  17.971  0.00  0.00    +0.000 HD
ENDBRANCH  13  21
TORSDOF 4
ENDMDL
MODEL 9
REMARK VINA RESULT:      -7.0      1.467      2.249
REMARK  Name = 
REMARK  4 active torsions:
REMARK  status: ('A' for Active; 'I' for Inactive)
REMARK    1  A    between atoms: O_1  and  C_2
REMARK    2  A    between atoms: C_7  and  O_8
REMARK    3  A    between atoms: C_9  and  O_10
REMARK    4  A    between atoms: C_16  and  O_17
REMARK                            x       y       z     vdW  Elec       q    Type
REMARK                         _______ _______ _______ _____ _____    ______ ____
ROOT
ATOM      1  C   UNL     1       1.453   3.223  19.774  0.00  0.00    +0.000 A 
ATOM      2  C   UNL     1       1.643   3.286  18.389  0.00  0.00    +0.000 A 
ATOM      3  C   UNL     1       2.911   3.674  17.932  0.00  0.00    +0.000 A 
ATOM      4  N   UNL     1       3.388   3.824  16.646  0.00  0.00    +0.000 N 
ATOM      5  C   UNL     1       4.704   4.228  16.645  0.00  0.00    +0.000 A 
ATOM      6  C   UNL     1       5.600   4.510  15.603  0.00  0.00    +0.000 A 
ATOM      7  C   UNL     1       6.899   4.907  15.934  0.00  0.00    +0.000 A 
ATOM      8  C   UNL     1       7.311   5.023  17.250  0.00  0.00    +0.000 A 
ATOM      9  C   UNL     1       6.413   4.742  18.286  0.00  0.00    +0.000 A 
ATOM     10  C   UNL     1       5.090   4.339  17.985  0.00  0.00    +0.000 A 
ATOM     11  C   UNL     1       3.961   3.991  18.793  0.00  0.00    +0.000 A 
ATOM     12  C   UNL     1       3.742   3.918  20.187  0.00  0.00    +0.000 A 
ATOM     13  C   UNL     1       2.485   3.534  20.658  0.00  0.00    +0.000 A 
ATOM     14  H   UNL     1       2.831   3.659  15.824  0.00  0.00    +0.000 HD
ENDROOT
BRANCH   1  15
ATOM     15  O   UNL     1       0.239   2.852  20.285  0.00  0.00    +0.000 OA
ATOM     16  H   UNL     1      -0.455   3.027  19.634  0.00  0.00    +0.000 HD
ENDBRANCH   1  15
BRANCH   6  17
ATOM     17  O   UNL     1       5.286   4.421  14.264  0.00  0.00    +0.000 OA
ATOM     18  H   UNL     1       6.071   4.668  13.752  0.00  0.00    +0.000 HD
ENDBRANCH   6  17
BRANCH   7  19
ATOM     19  O   UNL     1       7.801   5.193  14.945  0.00  0.00    +0.000 OA
ATOM     20  H   UNL     1       7.431   5.970  14.483  0.00  0.00    +0.000 HD
ENDBRANCH   7  19
BRANCH  13  21
ATOM     21  O   UNL     1       2.250   3.458  22.003  0.00  0.00    +0.000 OA
ATOM     22  H   UNL     1       3.000   3.845  22.480  0.00  0.00    +0.000 HD
ENDBRANCH  13  21
TORSDOF 4
ENDMDL
