MODEL 1
REMARK VINA RESULT:      -8.7      0.000      0.000
REMARK  Name = 
REMARK  8 active torsions:
REMARK  status: ('A' for Active; 'I' for Inactive)
REMARK    1  A    between atoms: C_1  and  C_2
REMARK    2  A    between atoms: C_2  and  N_3
REMARK    3  A    between atoms: C_2  and  C_19
REMARK    4  A    between atoms: C_7  and  C_8
REMARK    5  A    between atoms: C_19  and  O_20
REMARK    6  A    between atoms: C_19  and  C_21
REMARK    7  A    between atoms: C_19  and  C_27
REMARK    8  A    between atoms: C_21  and  N_22
REMARK                            x       y       z     vdW  Elec       q    Type
REMARK                         _______ _______ _______ _____ _____    ______ ____
ROOT
ATOM      1  C   UNL     1       3.401   3.742  16.824  0.00  0.00    +0.000 C 
ATOM      2  C   UNL     1       4.324   4.791  17.476  0.00  0.00    +0.000 C 
ENDROOT
BRANCH   2   3
ATOM      3  N   UNL     1       3.484   5.848  18.061  0.00  0.00    +0.000 N 
ATOM      4  C   UNL     1       3.237   7.115  17.327  0.00  0.00    +0.000 C 
ATOM      5  C   UNL     1       2.456   7.860  18.338  0.00  0.00    +0.000 A 
ATOM      6  C   UNL     1       1.798   9.105  18.449  0.00  0.00    +0.000 A 
ATOM      7  C   UNL     1       1.253   9.265  19.723  0.00  0.00    +0.000 A 
ATOM      8  S   UNL     1       1.509   7.853  20.709  0.00  0.00    +0.000 S 
ATOM      9  C   UNL     1       2.348   7.122  19.478  0.00  0.00    +0.000 A 
ATOM     10  C   UNL     1       2.984   5.852  19.373  0.00  0.00    +0.000 C 
ATOM     11  O   UNL     1       3.079   4.985  20.222  0.00  0.00    +0.000 OA
BRANCH   7  12
ATOM     12  C   UNL     1       0.498  10.400  20.281  0.00  0.00    +0.000 A 
ATOM     13  C   UNL     1       0.039  10.384  21.612  0.00  0.00    +0.000 A 
ATOM     14  C   UNL     1      -0.724  11.433  22.128  0.00  0.00    +0.000 A 
ATOM     15  C   UNL     1      -1.026  12.524  21.320  0.00  0.00    +0.000 A 
ATOM     16  C   UNL     1      -0.552  12.559  20.013  0.00  0.00    +0.000 A 
ATOM     17  F   UNL     1      -0.842  13.613  19.238  0.00  0.00    +0.000 F 
ATOM     18  C   UNL     1       0.204  11.514  19.489  0.00  0.00    +0.000 A 
ENDBRANCH   7  12
ENDBRANCH   2   3
BRANCH   2  19
ATOM     19  C   UNL     1       5.539   5.273  16.524  0.00  0.00    +0.000 C 
BRANCH  19  20
ATOM     20  C   UNL     1       6.602   6.157  17.231  0.00  0.00    +0.000 A 
ATOM     21  C   UNL     1       6.799   7.496  16.841  0.00  0.00    +0.000 A 
ATOM     22  C   UNL     1       7.634   8.364  17.556  0.00  0.00    +0.000 A 
ATOM     23  C   UNL     1       8.349   7.888  18.642  0.00  0.00    +0.000 A 
ATOM     24  F   UNL     1       9.136   8.717  19.338  0.00  0.00    +0.000 F 
ATOM     25  C   UNL     1       8.290   6.551  18.979  0.00  0.00    +0.000 A 
ATOM     26  C   UNL     1       7.454   5.702  18.255  0.00  0.00    +0.000 A 
ATOM     27  F   UNL     1       7.561   4.402  18.543  0.00  0.00    +0.000 F 
ENDBRANCH  19  20
BRANCH  19  28
ATOM     28  O   UNL     1       4.974   6.076  15.459  0.00  0.00    +0.000 OA
ATOM     29  H   UNL     1       4.120   6.439  15.744  0.00  0.00    +0.000 HD
ENDBRANCH  19  28
BRANCH  19  30
ATOM     30  C   UNL     1       6.126   4.023  15.777  0.00  0.00    +0.000 C 
BRANCH  30  31
ATOM     31  N   UNL     1       6.728   4.240  14.479  0.00  0.00    +0.000 N 
ATOM     32  C   UNL     1       6.337   3.690  13.293  0.00  0.00    +0.000 A 
ATOM     33  N   UNL     1       6.963   4.286  12.302  0.00  0.00    +0.000 NA
ATOM     34  C   UNL     1       7.756   5.188  12.941  0.00  0.00    +0.000 A 
ATOM     35  N   UNL     1       7.673   5.174  14.272  0.00  0.00    +0.000 NA
ENDBRANCH  30  31
ENDBRANCH  19  30
ENDBRANCH   2  19
TORSDOF 7
ENDMDL
MODEL 2
REMARK VINA RESULT:      -8.6      0.942      1.332
REMARK  Name = 
REMARK  8 active torsions:
REMARK  status: ('A' for Active; 'I' for Inactive)
REMARK    1  A    between atoms: C_1  and  C_2
REMARK    2  A    between atoms: C_2  and  N_3
REMARK    3  A    between atoms: C_2  and  C_19
REMARK    4  A    between atoms: C_7  and  C_8
REMARK    5  A    between atoms: C_19  and  O_20
REMARK    6  A    between atoms: C_19  and  C_21
REMARK    7  A    between atoms: C_19  and  C_27
REMARK    8  A    between atoms: C_21  and  N_22
REMARK                            x       y       z     vdW  Elec       q    Type
REMARK                         _______ _______ _______ _____ _____    ______ ____
ROOT
ATOM      1  C   UNL     1       4.053   3.792  16.951  0.00  0.00    +0.000 C 
ATOM      2  C   UNL     1       4.809   4.988  17.564  0.00  0.00    +0.000 C 
ENDROOT
BRANCH   2   3
ATOM      3  N   UNL     1       3.818   5.952  18.072  0.00  0.00    +0.000 N 
ATOM      4  C   UNL     1       3.473   7.167  17.292  0.00  0.00    +0.000 C 
ATOM      5  C   UNL     1       2.551   7.835  18.235  0.00  0.00    +0.000 A 
ATOM      6  C   UNL     1       1.749   8.997  18.276  0.00  0.00    +0.000 A 
ATOM      7  C   UNL     1       1.112   9.116  19.512  0.00  0.00    +0.000 A 
ATOM      8  S   UNL     1       1.468   7.763  20.546  0.00  0.00    +0.000 S 
ATOM      9  C   UNL     1       2.459   7.111  19.386  0.00  0.00    +0.000 A 
ATOM     10  C   UNL     1       3.242   5.922  19.351  0.00  0.00    +0.000 C 
ATOM     11  O   UNL     1       3.384   5.088  20.226  0.00  0.00    +0.000 OA
BRANCH   7  12
ATOM     12  C   UNL     1       0.199  10.166  19.995  0.00  0.00    +0.000 A 
ATOM     13  C   UNL     1      -0.674  10.831  19.115  0.00  0.00    +0.000 A 
ATOM     14  C   UNL     1      -1.503  11.864  19.558  0.00  0.00    +0.000 A 
ATOM     15  C   UNL     1      -1.478  12.236  20.898  0.00  0.00    +0.000 A 
ATOM     16  C   UNL     1      -0.638  11.564  21.779  0.00  0.00    +0.000 A 
ATOM     17  F   UNL     1      -0.619  11.922  23.070  0.00  0.00    +0.000 F 
ATOM     18  C   UNL     1       0.195  10.537  21.344  0.00  0.00    +0.000 A 
ENDBRANCH   7  12
ENDBRANCH   2   3
BRANCH   2  19
ATOM     19  C   UNL     1       5.976   5.581  16.614  0.00  0.00    +0.000 C 
BRANCH  19  20
ATOM     20  C   UNL     1       6.940   6.574  17.318  0.00  0.00    +0.000 A 
ATOM     21  C   UNL     1       7.061   7.902  16.864  0.00  0.00    +0.000 A 
ATOM     22  C   UNL     1       7.798   8.863  17.568  0.00  0.00    +0.000 A 
ATOM     23  C   UNL     1       8.494   8.495  18.707  0.00  0.00    +0.000 A 
ATOM     24  F   UNL     1       9.188   9.413  19.391  0.00  0.00    +0.000 F 
ATOM     25  C   UNL     1       8.513   7.177  19.112  0.00  0.00    +0.000 A 
ATOM     26  C   UNL     1       7.773   6.234  18.400  0.00  0.00    +0.000 A 
ATOM     27  F   UNL     1       7.957   4.961  18.762  0.00  0.00    +0.000 F 
ENDBRANCH  19  20
BRANCH  19  28
ATOM     28  O   UNL     1       5.340   6.312  15.537  0.00  0.00    +0.000 OA
ATOM     29  H   UNL     1       5.604   5.932  14.684  0.00  0.00    +0.000 HD
ENDBRANCH  19  28
BRANCH  19  30
ATOM     30  C   UNL     1       6.691   4.388  15.883  0.00  0.00    +0.000 C 
BRANCH  30  31
ATOM     31  N   UNL     1       6.716   4.408  14.436  0.00  0.00    +0.000 N 
ATOM     32  C   UNL     1       7.630   5.036  13.643  0.00  0.00    +0.000 A 
ATOM     33  N   UNL     1       7.471   4.651  12.396  0.00  0.00    +0.000 NA
ATOM     34  C   UNL     1       6.416   3.794  12.473  0.00  0.00    +0.000 A 
ATOM     35  N   UNL     1       5.900   3.641  13.693  0.00  0.00    +0.000 NA
ENDBRANCH  30  31
ENDBRANCH  19  30
ENDBRANCH   2  19
TORSDOF 7
ENDMDL
MODEL 3
REMARK VINA RESULT:      -8.4      4.918      9.810
REMARK  Name = 
REMARK  8 active torsions:
REMARK  status: ('A' for Active; 'I' for Inactive)
REMARK    1  A    between atoms: C_1  and  C_2
REMARK    2  A    between atoms: C_2  and  N_3
REMARK    3  A    between atoms: C_2  and  C_19
REMARK    4  A    between atoms: C_7  and  C_8
REMARK    5  A    between atoms: C_19  and  O_20
REMARK    6  A    between atoms: C_19  and  C_21
REMARK    7  A    between atoms: C_19  and  C_27
REMARK    8  A    between atoms: C_21  and  N_22
REMARK                            x       y       z     vdW  Elec       q    Type
REMARK                         _______ _______ _______ _____ _____    ______ ____
ROOT
ATOM      1  C   UNL     1       1.636  12.373  19.069  0.00  0.00    +0.000 C 
ATOM      2  C   UNL     1       0.809  11.462  19.998  0.00  0.00    +0.000 C 
ENDROOT
BRANCH   2   3
ATOM      3  N   UNL     1       1.271  10.076  19.820  0.00  0.00    +0.000 N 
ATOM      4  C   UNL     1       1.693   9.583  18.485  0.00  0.00    +0.000 C 
ATOM      5  C   UNL     1       1.956   8.161  18.798  0.00  0.00    +0.000 A 
ATOM      6  C   UNL     1       2.423   7.008  18.131  0.00  0.00    +0.000 A 
ATOM      7  C   UNL     1       2.409   5.903  18.983  0.00  0.00    +0.000 A 
ATOM      8  S   UNL     1       1.891   6.340  20.586  0.00  0.00    +0.000 S 
ATOM      9  C   UNL     1       1.660   7.911  20.104  0.00  0.00    +0.000 A 
ATOM     10  C   UNL     1       1.212   9.071  20.798  0.00  0.00    +0.000 C 
ATOM     11  O   UNL     1       0.854   9.163  21.958  0.00  0.00    +0.000 OA
BRANCH   7  12
ATOM     12  C   UNL     1       2.798   4.508  18.713  0.00  0.00    +0.000 A 
ATOM     13  C   UNL     1       2.261   3.803  17.620  0.00  0.00    +0.000 A 
ATOM     14  C   UNL     1       2.584   2.464  17.391  0.00  0.00    +0.000 A 
ATOM     15  C   UNL     1       3.467   1.816  18.249  0.00  0.00    +0.000 A 
ATOM     16  C   UNL     1       4.024   2.515  19.313  0.00  0.00    +0.000 A 
ATOM     17  F   UNL     1       4.876   1.889  20.136  0.00  0.00    +0.000 F 
ATOM     18  C   UNL     1       3.701   3.848  19.552  0.00  0.00    +0.000 A 
ENDBRANCH   7  12
ENDBRANCH   2   3
BRANCH   2  19
ATOM     19  C   UNL     1      -0.787  11.713  19.908  0.00  0.00    +0.000 C 
BRANCH  19  20
ATOM     20  C   UNL     1      -1.349  12.683  20.983  0.00  0.00    +0.000 A 
ATOM     21  C   UNL     1      -1.858  13.944  20.616  0.00  0.00    +0.000 A 
ATOM     22  C   UNL     1      -2.514  14.777  21.533  0.00  0.00    +0.000 A 
ATOM     23  C   UNL     1      -2.610  14.393  22.859  0.00  0.00    +0.000 A 
ATOM     24  F   UNL     1      -3.248  15.177  23.736  0.00  0.00    +0.000 F 
ATOM     25  C   UNL     1      -2.008  13.228  23.290  0.00  0.00    +0.000 A 
ATOM     26  C   UNL     1      -1.361  12.413  22.364  0.00  0.00    +0.000 A 
ATOM     27  F   UNL     1      -0.680  11.384  22.875  0.00  0.00    +0.000 F 
ENDBRANCH  19  20
BRANCH  19  28
ATOM     28  O   UNL     1      -1.445  10.440  20.113  0.00  0.00    +0.000 OA
ATOM     29  H   UNL     1      -0.787   9.765  20.343  0.00  0.00    +0.000 HD
ENDBRANCH  19  28
BRANCH  19  30
ATOM     30  C   UNL     1      -1.159  12.092  18.431  0.00  0.00    +0.000 C 
BRANCH  30  31
ATOM     31  N   UNL     1      -2.084  11.228  17.731  0.00  0.00    +0.000 N 
ATOM     32  C   UNL     1      -3.377  11.511  17.400  0.00  0.00    +0.000 A 
ATOM     33  N   UNL     1      -3.834  10.592  16.578  0.00  0.00    +0.000 NA
ATOM     34  C   UNL     1      -2.778   9.742  16.453  0.00  0.00    +0.000 A 
ATOM     35  N   UNL     1      -1.699  10.071  17.166  0.00  0.00    +0.000 NA
ENDBRANCH  30  31
ENDBRANCH  19  30
ENDBRANCH   2  19
TORSDOF 7
ENDMDL
MODEL 4
REMARK VINA RESULT:      -8.2      1.142      1.548
REMARK  Name = 
REMARK  8 active torsions:
REMARK  status: ('A' for Active; 'I' for Inactive)
REMARK    1  A    between atoms: C_1  and  C_2
REMARK    2  A    between atoms: C_2  and  N_3
REMARK    3  A    between atoms: C_2  and  C_19
REMARK    4  A    between atoms: C_7  and  C_8
REMARK    5  A    between atoms: C_19  and  O_20
REMARK    6  A    between atoms: C_19  and  C_21
REMARK    7  A    between atoms: C_19  and  C_27
REMARK    8  A    between atoms: C_21  and  N_22
REMARK                            x       y       z     vdW  Elec       q    Type
REMARK                         _______ _______ _______ _____ _____    ______ ____
ROOT
ATOM      1  C   UNL     1       3.387   3.950  16.784  0.00  0.00    +0.000 C 
ATOM      2  C   UNL     1       4.398   4.874  17.493  0.00  0.00    +0.000 C 
ENDROOT
BRANCH   2   3
ATOM      3  N   UNL     1       3.647   5.914  18.216  0.00  0.00    +0.000 N 
ATOM      4  C   UNL     1       3.123   5.660  19.582  0.00  0.00    +0.000 C 
ATOM      5  C   UNL     1       2.385   6.918  19.822  0.00  0.00    +0.000 A 
ATOM      6  C   UNL     1       1.641   7.519  20.862  0.00  0.00    +0.000 A 
ATOM      7  C   UNL     1       1.132   8.753  20.458  0.00  0.00    +0.000 A 
ATOM      8  S   UNL     1       1.644   9.157  18.844  0.00  0.00    +0.000 S 
ATOM      9  C   UNL     1       2.453   7.714  18.718  0.00  0.00    +0.000 A 
ATOM     10  C   UNL     1       3.221   7.134  17.669  0.00  0.00    +0.000 C 
ATOM     11  O   UNL     1       3.444   7.585  16.561  0.00  0.00    +0.000 OA
BRANCH   7  12
ATOM     12  C   UNL     1       0.299   9.711  21.205  0.00  0.00    +0.000 A 
ATOM     13  C   UNL     1      -0.066   9.467  22.543  0.00  0.00    +0.000 A 
ATOM     14  C   UNL     1      -0.900  10.345  23.238  0.00  0.00    +0.000 A 
ATOM     15  C   UNL     1      -1.369  11.491  22.605  0.00  0.00    +0.000 A 
ATOM     16  C   UNL     1      -0.990  11.753  21.294  0.00  0.00    +0.000 A 
ATOM     17  F   UNL     1      -1.440  12.859  20.688  0.00  0.00    +0.000 F 
ATOM     18  C   UNL     1      -0.163  10.879  20.591  0.00  0.00    +0.000 A 
ENDBRANCH   7  12
ENDBRANCH   2   3
BRANCH   2  19
ATOM     19  C   UNL     1       5.602   5.380  16.539  0.00  0.00    +0.000 C 
BRANCH  19  20
ATOM     20  C   UNL     1       6.648   6.285  17.244  0.00  0.00    +0.000 A 
ATOM     21  C   UNL     1       6.893   7.594  16.783  0.00  0.00    +0.000 A 
ATOM     22  C   UNL     1       7.710   8.489  17.487  0.00  0.00    +0.000 A 
ATOM     23  C   UNL     1       8.360   8.067  18.633  0.00  0.00    +0.000 A 
ATOM     24  F   UNL     1       9.130   8.921  19.317  0.00  0.00    +0.000 F 
ATOM     25  C   UNL     1       8.256   6.755  19.047  0.00  0.00    +0.000 A 
ATOM     26  C   UNL     1       7.438   5.878  18.336  0.00  0.00    +0.000 A 
ATOM     27  F   UNL     1       7.502   4.597  18.707  0.00  0.00    +0.000 F 
ENDBRANCH  19  20
BRANCH  19  28
ATOM     28  O   UNL     1       5.019   6.170  15.474  0.00  0.00    +0.000 OA
ATOM     29  H   UNL     1       4.080   6.328  15.662  0.00  0.00    +0.000 HD
ENDBRANCH  19  28
BRANCH  19  30
ATOM     30  C   UNL     1       6.213   4.141  15.792  0.00  0.00    +0.000 C 
BRANCH  30  31
ATOM     31  N   UNL     1       6.405   4.249  14.362  0.00  0.00    +0.000 N 
ATOM     32  C   UNL     1       7.488   4.772  13.719  0.00  0.00    +0.000 A 
ATOM     33  N   UNL     1       7.414   4.498  12.435  0.00  0.00    +0.000 NA
ATOM     34  C   UNL     1       6.239   3.819  12.335  0.00  0.00    +0.000 A 
ATOM     35  N   UNL     1       5.570   3.673  13.480  0.00  0.00    +0.000 NA
ENDBRANCH  30  31
ENDBRANCH  19  30
ENDBRANCH   2  19
TORSDOF 7
ENDMDL
MODEL 5
REMARK VINA RESULT:      -8.2      4.337     10.017
REMARK  Name = 
REMARK  8 active torsions:
REMARK  status: ('A' for Active; 'I' for Inactive)
REMARK    1  A    between atoms: C_1  and  C_2
REMARK    2  A    between atoms: C_2  and  N_3
REMARK    3  A    between atoms: C_2  and  C_19
REMARK    4  A    between atoms: C_7  and  C_8
REMARK    5  A    between atoms: C_19  and  O_20
REMARK    6  A    between atoms: C_19  and  C_21
REMARK    7  A    between atoms: C_19  and  C_27
REMARK    8  A    between atoms: C_21  and  N_22
REMARK                            x       y       z     vdW  Elec       q    Type
REMARK                         _______ _______ _______ _____ _____    ______ ____
ROOT
ATOM      1  C   UNL     1       0.924  12.950  19.539  0.00  0.00    +0.000 C 
ATOM      2  C   UNL     1       0.224  11.720  20.151  0.00  0.00    +0.000 C 
ENDROOT
BRANCH   2   3
ATOM      3  N   UNL     1       0.954  10.513  19.730  0.00  0.00    +0.000 N 
ATOM      4  C   UNL     1       1.512  10.404  18.358  0.00  0.00    +0.000 C 
ATOM      5  C   UNL     1       2.037   9.022  18.393  0.00  0.00    +0.000 A 
ATOM      6  C   UNL     1       2.744   8.145  17.542  0.00  0.00    +0.000 A 
ATOM      7  C   UNL     1       2.916   6.900  18.148  0.00  0.00    +0.000 A 
ATOM      8  S   UNL     1       2.266   6.879  19.762  0.00  0.00    +0.000 S 
ATOM      9  C   UNL     1       1.750   8.447  19.594  0.00  0.00    +0.000 A 
ATOM     10  C   UNL     1       1.059   9.328  20.474  0.00  0.00    +0.000 C 
ATOM     11  O   UNL     1       0.649   9.102  21.598  0.00  0.00    +0.000 OA
BRANCH   7  12
ATOM     12  C   UNL     1       3.580   5.692  17.628  0.00  0.00    +0.000 A 
ATOM     13  C   UNL     1       2.995   4.420  17.776  0.00  0.00    +0.000 A 
ATOM     14  C   UNL     1       3.646   3.267  17.334  0.00  0.00    +0.000 A 
ATOM     15  C   UNL     1       4.891   3.373  16.722  0.00  0.00    +0.000 A 
ATOM     16  C   UNL     1       5.461   4.629  16.546  0.00  0.00    +0.000 A 
ATOM     17  F   UNL     1       6.658   4.729  15.953  0.00  0.00    +0.000 F 
ATOM     18  C   UNL     1       4.821   5.783  16.990  0.00  0.00    +0.000 A 
ENDBRANCH   7  12
ENDBRANCH   2   3
BRANCH   2  19
ATOM     19  C   UNL     1      -1.380  11.708  19.941  0.00  0.00    +0.000 C 
BRANCH  19  20
ATOM     20  C   UNL     1      -2.186  12.379  21.086  0.00  0.00    +0.000 A 
ATOM     21  C   UNL     1      -3.003  13.498  20.830  0.00  0.00    +0.000 A 
ATOM     22  C   UNL     1      -3.862  14.029  21.801  0.00  0.00    +0.000 A 
ATOM     23  C   UNL     1      -3.867  13.495  23.078  0.00  0.00    +0.000 A 
ATOM     24  F   UNL     1      -4.695  13.989  24.005  0.00  0.00    +0.000 F 
ATOM     25  C   UNL     1      -2.986  12.486  23.411  0.00  0.00    +0.000 A 
ATOM     26  C   UNL     1      -2.139  11.969  22.431  0.00  0.00    +0.000 A 
ATOM     27  F   UNL     1      -1.218  11.102  22.861  0.00  0.00    +0.000 F 
ENDBRANCH  19  20
BRANCH  19  28
ATOM     28  O   UNL     1      -1.808  10.325  19.887  0.00  0.00    +0.000 OA
ATOM     29  H   UNL     1      -1.489   9.917  19.066  0.00  0.00    +0.000 HD
ENDBRANCH  19  28
BRANCH  19  30
ATOM     30  C   UNL     1      -1.708  12.256  18.506  0.00  0.00    +0.000 C 
BRANCH  30  31
ATOM     31  N   UNL     1      -2.460  11.397  17.618  0.00  0.00    +0.000 N 
ATOM     32  C   UNL     1      -3.770  11.536  17.260  0.00  0.00    +0.000 A 
ATOM     33  N   UNL     1      -4.046  10.715  16.271  0.00  0.00    +0.000 NA
ATOM     34  C   UNL     1      -2.866  10.068  16.072  0.00  0.00    +0.000 A 
ATOM     35  N   UNL     1      -1.878  10.426  16.894  0.00  0.00    +0.000 NA
ENDBRANCH  30  31
ENDBRANCH  19  30
ENDBRANCH   2  19
TORSDOF 7
ENDMDL
MODEL 6
REMARK VINA RESULT:      -8.2      4.743     10.467
REMARK  Name = 
REMARK  8 active torsions:
REMARK  status: ('A' for Active; 'I' for Inactive)
REMARK    1  A    between atoms: C_1  and  C_2
REMARK    2  A    between atoms: C_2  and  N_3
REMARK    3  A    between atoms: C_2  and  C_19
REMARK    4  A    between atoms: C_7  and  C_8
REMARK    5  A    between atoms: C_19  and  O_20
REMARK    6  A    between atoms: C_19  and  C_21
REMARK    7  A    between atoms: C_19  and  C_27
REMARK    8  A    between atoms: C_21  and  N_22
REMARK                            x       y       z     vdW  Elec       q    Type
REMARK                         _______ _______ _______ _____ _____    ______ ____
ROOT
ATOM      1  C   UNL     1       0.964  13.369  19.591  0.00  0.00    +0.000 C 
ATOM      2  C   UNL     1       0.162  12.205  20.208  0.00  0.00    +0.000 C 
ENDROOT
BRANCH   2   3
ATOM      3  N   UNL     1       0.820  10.941  19.836  0.00  0.00    +0.000 N 
ATOM      4  C   UNL     1       1.406  10.761  18.484  0.00  0.00    +0.000 C 
ATOM      5  C   UNL     1       1.834   9.347  18.567  0.00  0.00    +0.000 A 
ATOM      6  C   UNL     1       2.502   8.402  17.758  0.00  0.00    +0.000 A 
ATOM      7  C   UNL     1       2.572   7.164  18.397  0.00  0.00    +0.000 A 
ATOM      8  S   UNL     1       1.877   7.228  19.991  0.00  0.00    +0.000 S 
ATOM      9  C   UNL     1       1.475   8.823  19.772  0.00  0.00    +0.000 A 
ATOM     10  C   UNL     1       0.822   9.771  20.611  0.00  0.00    +0.000 C 
ATOM     11  O   UNL     1       0.367   9.602  21.727  0.00  0.00    +0.000 OA
BRANCH   7  12
ATOM     12  C   UNL     1       3.166   5.901  17.925  0.00  0.00    +0.000 A 
ATOM     13  C   UNL     1       4.499   5.847  17.477  0.00  0.00    +0.000 A 
ATOM     14  C   UNL     1       5.049   4.665  16.978  0.00  0.00    +0.000 A 
ATOM     15  C   UNL     1       4.271   3.512  16.935  0.00  0.00    +0.000 A 
ATOM     16  C   UNL     1       2.963   3.551  17.402  0.00  0.00    +0.000 A 
ATOM     17  F   UNL     1       2.218   2.438  17.363  0.00  0.00    +0.000 F 
ATOM     18  C   UNL     1       2.405   4.728  17.896  0.00  0.00    +0.000 A 
ENDBRANCH   7  12
ENDBRANCH   2   3
BRANCH   2  19
ATOM     19  C   UNL     1      -1.431  12.299  19.947  0.00  0.00    +0.000 C 
BRANCH  19  20
ATOM     20  C   UNL     1      -1.930  11.506  18.708  0.00  0.00    +0.000 A 
ATOM     21  C   UNL     1      -2.567  10.259  18.861  0.00  0.00    +0.000 A 
ATOM     22  C   UNL     1      -3.167   9.594  17.784  0.00  0.00    +0.000 A 
ATOM     23  C   UNL     1      -3.078  10.131  16.511  0.00  0.00    +0.000 A 
ATOM     24  F   UNL     1      -3.662   9.507  15.482  0.00  0.00    +0.000 F 
ATOM     25  C   UNL     1      -2.349  11.282  16.293  0.00  0.00    +0.000 A 
ATOM     26  C   UNL     1      -1.759  11.931  17.377  0.00  0.00    +0.000 A 
ATOM     27  F   UNL     1      -0.952  12.950  17.072  0.00  0.00    +0.000 F 
ENDBRANCH  19  20
BRANCH  19  28
ATOM     28  O   UNL     1      -1.758  13.690  19.710  0.00  0.00    +0.000 OA
ATOM     29  H   UNL     1      -2.663  13.758  19.365  0.00  0.00    +0.000 HD
ENDBRANCH  19  28
BRANCH  19  30
ATOM     30  C   UNL     1      -2.185  11.961  21.282  0.00  0.00    +0.000 C 
BRANCH  30  31
ATOM     31  N   UNL     1      -2.295  13.010  22.273  0.00  0.00    +0.000 N 
ATOM     32  C   UNL     1      -1.424  13.270  23.289  0.00  0.00    +0.000 A 
ATOM     33  N   UNL     1      -1.723  14.424  23.843  0.00  0.00    +0.000 NA
ATOM     34  C   UNL     1      -2.816  14.827  23.138  0.00  0.00    +0.000 A 
ATOM     35  N   UNL     1      -3.223  13.979  22.193  0.00  0.00    +0.000 NA
ENDBRANCH  30  31
ENDBRANCH  19  30
ENDBRANCH   2  19
TORSDOF 7
ENDMDL
MODEL 7
REMARK VINA RESULT:      -8.1      2.618      4.215
REMARK  Name = 
REMARK  8 active torsions:
REMARK  status: ('A' for Active; 'I' for Inactive)
REMARK    1  A    between atoms: C_1  and  C_2
REMARK    2  A    between atoms: C_2  and  N_3
REMARK    3  A    between atoms: C_2  and  C_19
REMARK    4  A    between atoms: C_7  and  C_8
REMARK    5  A    between atoms: C_19  and  O_20
REMARK    6  A    between atoms: C_19  and  C_21
REMARK    7  A    between atoms: C_19  and  C_27
REMARK    8  A    between atoms: C_21  and  N_22
REMARK                            x       y       z     vdW  Elec       q    Type
REMARK                         _______ _______ _______ _____ _____    ______ ____
ROOT
ATOM      1  C   UNL     1       5.707   5.429  19.328  0.00  0.00    +0.000 C 
ATOM      2  C   UNL     1       4.981   5.714  17.998  0.00  0.00    +0.000 C 
ENDROOT
BRANCH   2   3
ATOM      3  N   UNL     1       3.849   6.615  18.272  0.00  0.00    +0.000 N 
ATOM      4  C   UNL     1       3.587   7.790  17.403  0.00  0.00    +0.000 C 
ATOM      5  C   UNL     1       2.455   8.408  18.127  0.00  0.00    +0.000 A 
ATOM      6  C   UNL     1       1.587   9.512  17.974  0.00  0.00    +0.000 A 
ATOM      7  C   UNL     1       0.712   9.607  19.056  0.00  0.00    +0.000 A 
ATOM      8  S   UNL     1       0.942   8.299  20.181  0.00  0.00    +0.000 S 
ATOM      9  C   UNL     1       2.184   7.699  19.258  0.00  0.00    +0.000 A 
ATOM     10  C   UNL     1       3.033   6.567  19.413  0.00  0.00    +0.000 C 
ATOM     11  O   UNL     1       3.053   5.759  20.324  0.00  0.00    +0.000 OA
BRANCH   7  12
ATOM     12  C   UNL     1      -0.345  10.599  19.319  0.00  0.00    +0.000 A 
ATOM     13  C   UNL     1      -0.356  11.352  20.507  0.00  0.00    +0.000 A 
ATOM     14  C   UNL     1      -1.385  12.254  20.785  0.00  0.00    +0.000 A 
ATOM     15  C   UNL     1      -2.415  12.424  19.865  0.00  0.00    +0.000 A 
ATOM     16  C   UNL     1      -2.395  11.704  18.676  0.00  0.00    +0.000 A 
ATOM     17  F   UNL     1      -3.386  11.873  17.790  0.00  0.00    +0.000 F 
ATOM     18  C   UNL     1      -1.375  10.799  18.394  0.00  0.00    +0.000 A 
ENDBRANCH   7  12
ENDBRANCH   2   3
BRANCH   2  19
ATOM     19  C   UNL     1       4.659   4.387  17.132  0.00  0.00    +0.000 C 
BRANCH  19  20
ATOM     20  C   UNL     1       5.433   4.289  15.789  0.00  0.00    +0.000 A 
ATOM     21  C   UNL     1       4.785   3.858  14.615  0.00  0.00    +0.000 A 
ATOM     22  C   UNL     1       5.408   3.906  13.361  0.00  0.00    +0.000 A 
ATOM     23  C   UNL     1       6.725   4.321  13.266  0.00  0.00    +0.000 A 
ATOM     24  F   UNL     1       7.320   4.384  12.069  0.00  0.00    +0.000 F 
ATOM     25  C   UNL     1       7.441   4.625  14.406  0.00  0.00    +0.000 A 
ATOM     26  C   UNL     1       6.805   4.571  15.645  0.00  0.00    +0.000 A 
ATOM     27  F   UNL     1       7.595   4.733  16.709  0.00  0.00    +0.000 F 
ENDBRANCH  19  20
BRANCH  19  28
ATOM     28  O   UNL     1       3.250   4.409  16.797  0.00  0.00    +0.000 OA
ATOM     29  H   UNL     1       2.771   3.782  17.363  0.00  0.00    +0.000 HD
ENDBRANCH  19  28
BRANCH  19  30
ATOM     30  C   UNL     1       4.803   3.128  18.059  0.00  0.00    +0.000 C 
BRANCH  30  31
ATOM     31  N   UNL     1       3.593   2.578  18.634  0.00  0.00    +0.000 N 
ATOM     32  C   UNL     1       3.187   2.677  19.932  0.00  0.00    +0.000 A 
ATOM     33  N   UNL     1       1.945   2.259  20.038  0.00  0.00    +0.000 NA
ATOM     34  C   UNL     1       1.638   1.886  18.766  0.00  0.00    +0.000 A 
ATOM     35  N   UNL     1       2.625   2.030  17.880  0.00  0.00    +0.000 NA
ENDBRANCH  30  31
ENDBRANCH  19  30
ENDBRANCH   2  19
TORSDOF 7
ENDMDL
MODEL 8
REMARK VINA RESULT:      -8.1      4.605      9.877
REMARK  Name = 
REMARK  8 active torsions:
REMARK  status: ('A' for Active; 'I' for Inactive)
REMARK    1  A    between atoms: C_1  and  C_2
REMARK    2  A    between atoms: C_2  and  N_3
REMARK    3  A    between atoms: C_2  and  C_19
REMARK    4  A    between atoms: C_7  and  C_8
REMARK    5  A    between atoms: C_19  and  O_20
REMARK    6  A    between atoms: C_19  and  C_21
REMARK    7  A    between atoms: C_19  and  C_27
REMARK    8  A    between atoms: C_21  and  N_22
REMARK                            x       y       z     vdW  Elec       q    Type
REMARK                         _______ _______ _______ _____ _____    ______ ____
ROOT
ATOM      1  C   UNL     1       1.500  12.817  19.026  0.00  0.00    +0.000 C 
ATOM      2  C   UNL     1       0.748  11.843  19.956  0.00  0.00    +0.000 C 
ENDROOT
BRANCH   2   3
ATOM      3  N   UNL     1       1.227  10.478  19.682  0.00  0.00    +0.000 N 
ATOM      4  C   UNL     1       1.633  10.077  18.311  0.00  0.00    +0.000 C 
ATOM      5  C   UNL     1       1.922   8.643  18.528  0.00  0.00    +0.000 A 
ATOM      6  C   UNL     1       2.394   7.542  17.780  0.00  0.00    +0.000 A 
ATOM      7  C   UNL     1       2.412   6.385  18.560  0.00  0.00    +0.000 A 
ATOM      8  S   UNL     1       1.916   6.711  20.196  0.00  0.00    +0.000 S 
ATOM      9  C   UNL     1       1.654   8.306  19.820  0.00  0.00    +0.000 A 
ATOM     10  C   UNL     1       1.201   9.412  20.594  0.00  0.00    +0.000 C 
ATOM     11  O   UNL     1       0.863   9.424  21.763  0.00  0.00    +0.000 OA
BRANCH   7  12
ATOM     12  C   UNL     1       2.817   5.017  18.194  0.00  0.00    +0.000 A 
ATOM     13  C   UNL     1       2.107   3.898  18.668  0.00  0.00    +0.000 A 
ATOM     14  C   UNL     1       2.519   2.598  18.369  0.00  0.00    +0.000 A 
ATOM     15  C   UNL     1       3.644   2.401  17.574  0.00  0.00    +0.000 A 
ATOM     16  C   UNL     1       4.333   3.502  17.078  0.00  0.00    +0.000 A 
ATOM     17  F   UNL     1       5.413   3.310  16.310  0.00  0.00    +0.000 F 
ATOM     18  C   UNL     1       3.932   4.802  17.377  0.00  0.00    +0.000 A 
ENDBRANCH   7  12
ENDBRANCH   2   3
BRANCH   2  19
ATOM     19  C   UNL     1      -0.854  12.060  19.973  0.00  0.00    +0.000 C 
BRANCH  19  20
ATOM     20  C   UNL     1      -1.360  13.057  21.050  0.00  0.00    +0.000 A 
ATOM     21  C   UNL     1      -1.901  14.303  20.679  0.00  0.00    +0.000 A 
ATOM     22  C   UNL     1      -2.507  15.157  21.610  0.00  0.00    +0.000 A 
ATOM     23  C   UNL     1      -2.520  14.812  22.950  0.00  0.00    +0.000 A 
ATOM     24  F   UNL     1      -3.111  15.617  23.841  0.00  0.00    +0.000 F 
ATOM     25  C   UNL     1      -1.883  13.665  23.377  0.00  0.00    +0.000 A 
ATOM     26  C   UNL     1      -1.285  12.827  22.437  0.00  0.00    +0.000 A 
ATOM     27  F   UNL     1      -0.566  11.818  22.936  0.00  0.00    +0.000 F 
ENDBRANCH  19  20
BRANCH  19  28
ATOM     28  O   UNL     1      -1.469  10.782  20.268  0.00  0.00    +0.000 OA
ATOM     29  H   UNL     1      -2.431  10.849  20.155  0.00  0.00    +0.000 HD
ENDBRANCH  19  28
BRANCH  19  30
ATOM     30  C   UNL     1      -1.339  12.379  18.513  0.00  0.00    +0.000 C 
BRANCH  30  31
ATOM     31  N   UNL     1      -2.236  11.433  17.884  0.00  0.00    +0.000 N 
ATOM     32  C   UNL     1      -3.564  11.612  17.628  0.00  0.00    +0.000 A 
ATOM     33  N   UNL     1      -3.997  10.645  16.850  0.00  0.00    +0.000 NA
ATOM     34  C   UNL     1      -2.890   9.874  16.676  0.00  0.00    +0.000 A 
ATOM     35  N   UNL     1      -1.799  10.296  17.317  0.00  0.00    +0.000 NA
ENDBRANCH  30  31
ENDBRANCH  19  30
ENDBRANCH   2  19
TORSDOF 7
ENDMDL
MODEL 9
REMARK VINA RESULT:      -8.1      4.773     10.566
REMARK  Name = 
REMARK  8 active torsions:
REMARK  status: ('A' for Active; 'I' for Inactive)
REMARK    1  A    between atoms: C_1  and  C_2
REMARK    2  A    between atoms: C_2  and  N_3
REMARK    3  A    between atoms: C_2  and  C_19
REMARK    4  A    between atoms: C_7  and  C_8
REMARK    5  A    between atoms: C_19  and  O_20
REMARK    6  A    between atoms: C_19  and  C_21
REMARK    7  A    between atoms: C_19  and  C_27
REMARK    8  A    between atoms: C_21  and  N_22
REMARK                            x       y       z     vdW  Elec       q    Type
REMARK                         _______ _______ _______ _____ _____    ______ ____
ROOT
ATOM      1  C   UNL     1       0.888  13.344  20.179  0.00  0.00    +0.000 C 
ATOM      2  C   UNL     1       0.005  12.135  20.546  0.00  0.00    +0.000 C 
ENDROOT
BRANCH   2   3
ATOM      3  N   UNL     1       0.689  10.909  20.100  0.00  0.00    +0.000 N 
ATOM      4  C   UNL     1       1.274  10.820  18.739  0.00  0.00    +0.000 C 
ATOM      5  C   UNL     1       1.734   9.414  18.739  0.00  0.00    +0.000 A 
ATOM      6  C   UNL     1       2.420   8.533  17.876  0.00  0.00    +0.000 A 
ATOM      7  C   UNL     1       2.521   7.262  18.442  0.00  0.00    +0.000 A 
ATOM      8  S   UNL     1       1.831   7.219  20.039  0.00  0.00    +0.000 S 
ATOM      9  C   UNL     1       1.392   8.814  19.914  0.00  0.00    +0.000 A 
ATOM     10  C   UNL     1       0.721   9.697  20.807  0.00  0.00    +0.000 C 
ATOM     11  O   UNL     1       0.274   9.454  21.913  0.00  0.00    +0.000 OA
BRANCH   7  12
ATOM     12  C   UNL     1       3.140   6.042  17.897  0.00  0.00    +0.000 A 
ATOM     13  C   UNL     1       4.436   6.067  17.349  0.00  0.00    +0.000 A 
ATOM     14  C   UNL     1       5.007   4.926  16.782  0.00  0.00    +0.000 A 
ATOM     15  C   UNL     1       4.289   3.734  16.770  0.00  0.00    +0.000 A 
ATOM     16  C   UNL     1       3.020   3.694  17.336  0.00  0.00    +0.000 A 
ATOM     17  F   UNL     1       2.332   2.545  17.327  0.00  0.00    +0.000 F 
ATOM     18  C   UNL     1       2.442   4.830  17.898  0.00  0.00    +0.000 A 
ENDBRANCH   7  12
ENDBRANCH   2   3
BRANCH   2  19
ATOM     19  C   UNL     1      -1.544  12.300  20.111  0.00  0.00    +0.000 C 
BRANCH  19  20
ATOM     20  C   UNL     1      -1.942  11.517  18.830  0.00  0.00    +0.000 A 
ATOM     21  C   UNL     1      -2.537  10.243  18.923  0.00  0.00    +0.000 A 
ATOM     22  C   UNL     1      -3.050   9.579  17.801  0.00  0.00    +0.000 A 
ATOM     23  C   UNL     1      -2.912  10.147  16.546  0.00  0.00    +0.000 A 
ATOM     24  F   UNL     1      -3.413   9.524  15.473  0.00  0.00    +0.000 F 
ATOM     25  C   UNL     1      -2.218  11.329  16.392  0.00  0.00    +0.000 A 
ATOM     26  C   UNL     1      -1.715  11.976  17.520  0.00  0.00    +0.000 A 
ATOM     27  F   UNL     1      -0.932  13.032  17.281  0.00  0.00    +0.000 F 
ENDBRANCH  19  20
BRANCH  19  28
ATOM     28  O   UNL     1      -1.776  13.702  19.829  0.00  0.00    +0.000 OA
ATOM     29  H   UNL     1      -2.723  13.898  19.909  0.00  0.00    +0.000 HD
ENDBRANCH  19  28
BRANCH  19  30
ATOM     30  C   UNL     1      -2.455  12.014  21.358  0.00  0.00    +0.000 C 
BRANCH  30  31
ATOM     31  N   UNL     1      -3.632  12.838  21.529  0.00  0.00    +0.000 N 
ATOM     32  C   UNL     1      -3.903  13.671  22.575  0.00  0.00    +0.000 A 
ATOM     33  N   UNL     1      -4.942  14.421  22.285  0.00  0.00    +0.000 NA
ATOM     34  C   UNL     1      -5.294  13.988  21.044  0.00  0.00    +0.000 A 
ATOM     35  N   UNL     1      -4.545  12.998  20.556  0.00  0.00    +0.000 NA
ENDBRANCH  30  31
ENDBRANCH  19  30
ENDBRANCH   2  19
TORSDOF 7
ENDMDL
