MODEL 1
REMARK VINA RESULT:      -6.9      0.000      0.000
REMARK  Name = 
REMARK  9 active torsions:
REMARK  status: ('A' for Active; 'I' for Inactive)
REMARK    1  A    between atoms: C_1  and  O_2
REMARK    2  A    between atoms: O_2  and  C_3
REMARK    3  A    between atoms: C_5  and  N_6
REMARK    4  A    between atoms: C_7  and  C_9
REMARK    5  A    between atoms: C_11  and  C_12
REMARK    6  A    between atoms: C_16  and  O_17
REMARK    7  A    between atoms: O_17  and  C_18
REMARK    8  A    between atoms: C_19  and  O_20
REMARK    9  A    between atoms: O_20  and  C_21
REMARK                            x       y       z     vdW  Elec       q    Type
REMARK                         _______ _______ _______ _____ _____    ______ ____
ROOT
ATOM      1  C   UNL     1       2.223   5.853  20.233  0.00  0.00    +0.000 A 
ATOM      2  C   UNL     1       2.969   5.326  19.167  0.00  0.00    +0.000 A 
ATOM      3  C   UNL     1       3.389   6.121  18.108  0.00  0.00    +0.000 A 
ATOM      4  C   UNL     1       2.971   7.448  18.078  0.00  0.00    +0.000 A 
ATOM      5  C   UNL     1       2.135   7.979  19.082  0.00  0.00    +0.000 A 
ATOM      6  C   UNL     1       1.748   7.178  20.181  0.00  0.00    +0.000 A 
ENDROOT
BRANCH   3   7
ATOM      7  N   UNL     1       4.254   5.655  17.092  0.00  0.00    +0.000 N 
ATOM      8  C   UNL     1       5.612   5.910  16.973  0.00  0.00    +0.000 C 
ATOM      9  O   UNL     1       6.318   6.473  17.806  0.00  0.00    +0.000 OA
ATOM     10  H   UNL     1       3.849   5.104  16.343  0.00  0.00    +0.000 HD
BRANCH   8  11
ATOM     11  C   UNL     1       6.204   5.424  15.724  0.00  0.00    +0.000 A 
ATOM     12  C   UNL     1       5.587   4.564  14.781  0.00  0.00    +0.000 A 
ATOM     13  C   UNL     1       6.521   4.403  13.793  0.00  0.00    +0.000 A 
ATOM     14  C   UNL     1       6.540   3.680  12.510  0.00  0.00    +0.000 C 
ATOM     15  O   UNL     1       7.646   5.095  14.126  0.00  0.00    +0.000 OA
ATOM     16  N   UNL     1       7.452   5.743  15.336  0.00  0.00    +0.000 NA
ENDBRANCH   8  11
ENDBRANCH   3   7
BRANCH   1  18
ATOM     17  C   UNL     1       1.736   3.676  21.032  0.00  0.00    +0.000 C 
ATOM     18  O   UNL     1       1.943   5.060  21.320  0.00  0.00    +0.000 OA
ENDBRANCH   1  18
BRANCH   5  19
ATOM     19  O   UNL     1       1.820   9.293  18.829  0.00  0.00    +0.000 OA
ATOM     20  C   UNL     1       0.703   9.603  18.009  0.00  0.00    +0.000 C 
ENDBRANCH   5  19
BRANCH   6  21
ATOM     21  O   UNL     1       0.925   7.765  21.102  0.00  0.00    +0.000 OA
ATOM     22  C   UNL     1       1.384   8.839  21.906  0.00  0.00    +0.000 C 
ENDBRANCH   6  21
TORSDOF 5
ENDMDL
MODEL 2
REMARK VINA RESULT:      -6.9      0.407      2.800
REMARK  Name = 
REMARK  9 active torsions:
REMARK  status: ('A' for Active; 'I' for Inactive)
REMARK    1  A    between atoms: C_1  and  O_2
REMARK    2  A    between atoms: O_2  and  C_3
REMARK    3  A    between atoms: C_5  and  N_6
REMARK    4  A    between atoms: C_7  and  C_9
REMARK    5  A    between atoms: C_11  and  C_12
REMARK    6  A    between atoms: C_16  and  O_17
REMARK    7  A    between atoms: O_17  and  C_18
REMARK    8  A    between atoms: C_19  and  O_20
REMARK    9  A    between atoms: O_20  and  C_21
REMARK                            x       y       z     vdW  Elec       q    Type
REMARK                         _______ _______ _______ _____ _____    ______ ____
ROOT
ATOM      1  C   UNL     1       2.007   8.446  18.936  0.00  0.00    +0.000 A 
ATOM      2  C   UNL     1       2.930   7.942  18.004  0.00  0.00    +0.000 A 
ATOM      3  C   UNL     1       3.371   6.626  18.054  0.00  0.00    +0.000 A 
ATOM      4  C   UNL     1       2.946   5.831  19.115  0.00  0.00    +0.000 A 
ATOM      5  C   UNL     1       2.103   6.340  20.124  0.00  0.00    +0.000 A 
ATOM      6  C   UNL     1       1.620   7.667  20.044  0.00  0.00    +0.000 A 
ENDROOT
BRANCH   3   7
ATOM      7  N   UNL     1       4.189   6.050  17.055  0.00  0.00    +0.000 N 
ATOM      8  C   UNL     1       5.563   5.871  17.105  0.00  0.00    +0.000 C 
ATOM      9  O   UNL     1       6.281   6.058  18.084  0.00  0.00    +0.000 OA
ATOM     10  H   UNL     1       3.745   5.767  16.188  0.00  0.00    +0.000 HD
BRANCH   8  11
ATOM     11  C   UNL     1       6.150   5.396  15.850  0.00  0.00    +0.000 A 
ATOM     12  C   UNL     1       5.560   4.484  14.938  0.00  0.00    +0.000 A 
ATOM     13  C   UNL     1       6.476   4.360  13.929  0.00  0.00    +0.000 A 
ATOM     14  C   UNL     1       6.504   3.615  12.658  0.00  0.00    +0.000 C 
ATOM     15  O   UNL     1       7.566   5.122  14.219  0.00  0.00    +0.000 OA
ATOM     16  N   UNL     1       7.366   5.781  15.423  0.00  0.00    +0.000 NA
ENDBRANCH   8  11
ENDBRANCH   3   7
BRANCH   1  18
ATOM     17  C   UNL     1       0.310   9.798  17.984  0.00  0.00    +0.000 C 
ATOM     18  O   UNL     1       1.501   9.713  18.770  0.00  0.00    +0.000 OA
ENDBRANCH   1  18
BRANCH   5  19
ATOM     19  O   UNL     1       1.844   5.392  21.086  0.00  0.00    +0.000 OA
ATOM     20  C   UNL     1       2.343   4.073  20.925  0.00  0.00    +0.000 C 
ENDBRANCH   5  19
BRANCH   6  21
ATOM     21  O   UNL     1       0.819   8.086  21.070  0.00  0.00    +0.000 OA
ATOM     22  C   UNL     1       1.314   8.966  22.065  0.00  0.00    +0.000 C 
ENDBRANCH   6  21
TORSDOF 5
ENDMDL
MODEL 3
REMARK VINA RESULT:      -6.7      2.518      7.494
REMARK  Name = 
REMARK  9 active torsions:
REMARK  status: ('A' for Active; 'I' for Inactive)
REMARK    1  A    between atoms: C_1  and  O_2
REMARK    2  A    between atoms: O_2  and  C_3
REMARK    3  A    between atoms: C_5  and  N_6
REMARK    4  A    between atoms: C_7  and  C_9
REMARK    5  A    between atoms: C_11  and  C_12
REMARK    6  A    between atoms: C_16  and  O_17
REMARK    7  A    between atoms: O_17  and  C_18
REMARK    8  A    between atoms: C_19  and  O_20
REMARK    9  A    between atoms: O_20  and  C_21
REMARK                            x       y       z     vdW  Elec       q    Type
REMARK                         _______ _______ _______ _____ _____    ______ ____
ROOT
ATOM      1  C   UNL     1       5.558   6.053  16.923  0.00  0.00    +0.000 A 
ATOM      2  C   UNL     1       4.639   6.906  17.556  0.00  0.00    +0.000 A 
ATOM      3  C   UNL     1       3.429   6.435  18.049  0.00  0.00    +0.000 A 
ATOM      4  C   UNL     1       3.099   5.103  17.818  0.00  0.00    +0.000 A 
ATOM      5  C   UNL     1       3.955   4.248  17.094  0.00  0.00    +0.000 A 
ATOM      6  C   UNL     1       5.207   4.719  16.634  0.00  0.00    +0.000 A 
ENDROOT
BRANCH   3   7
ATOM      7  N   UNL     1       2.546   7.236  18.810  0.00  0.00    +0.000 N 
ATOM      8  C   UNL     1       2.029   8.473  18.456  0.00  0.00    +0.000 C 
ATOM      9  O   UNL     1       2.145   9.019  17.363  0.00  0.00    +0.000 OA
ATOM     10  H   UNL     1       2.281   6.901  19.729  0.00  0.00    +0.000 HD
BRANCH   8  11
ATOM     11  C   UNL     1       1.270   9.130  19.523  0.00  0.00    +0.000 A 
ATOM     12  C   UNL     1       1.050   8.627  20.830  0.00  0.00    +0.000 A 
ATOM     13  C   UNL     1       0.302   9.590  21.452  0.00  0.00    +0.000 A 
ATOM     14  C   UNL     1      -0.246   9.742  22.811  0.00  0.00    +0.000 C 
ATOM     15  O   UNL     1       0.055  10.600  20.573  0.00  0.00    +0.000 OA
ATOM     16  N   UNL     1       0.665  10.321  19.360  0.00  0.00    +0.000 NA
ENDBRANCH   8  11
ENDBRANCH   3   7
BRANCH   1  18
ATOM     17  C   UNL     1       7.329   7.543  17.429  0.00  0.00    +0.000 C 
ATOM     18  O   UNL     1       6.796   6.534  16.569  0.00  0.00    +0.000 OA
ENDBRANCH   1  18
BRANCH   5  19
ATOM     19  O   UNL     1       3.411   2.993  16.957  0.00  0.00    +0.000 OA
ATOM     20  C   UNL     1       3.452   2.087  18.049  0.00  0.00    +0.000 C 
ENDBRANCH   5  19
BRANCH   6  21
ATOM     21  O   UNL     1       5.970   3.830  15.929  0.00  0.00    +0.000 OA
ATOM     22  C   UNL     1       6.080   3.927  14.519  0.00  0.00    +0.000 C 
ENDBRANCH   6  21
TORSDOF 5
ENDMDL
MODEL 4
REMARK VINA RESULT:      -6.5      2.618      7.196
REMARK  Name = 
REMARK  9 active torsions:
REMARK  status: ('A' for Active; 'I' for Inactive)
REMARK    1  A    between atoms: C_1  and  O_2
REMARK    2  A    between atoms: O_2  and  C_3
REMARK    3  A    between atoms: C_5  and  N_6
REMARK    4  A    between atoms: C_7  and  C_9
REMARK    5  A    between atoms: C_11  and  C_12
REMARK    6  A    between atoms: C_16  and  O_17
REMARK    7  A    between atoms: O_17  and  C_18
REMARK    8  A    between atoms: C_19  and  O_20
REMARK    9  A    between atoms: O_20  and  C_21
REMARK                            x       y       z     vdW  Elec       q    Type
REMARK                         _______ _______ _______ _____ _____    ______ ____
ROOT
ATOM      1  C   UNL     1       3.545   4.455  17.285  0.00  0.00    +0.000 A 
ATOM      2  C   UNL     1       2.721   5.295  18.052  0.00  0.00    +0.000 A 
ATOM      3  C   UNL     1       3.016   6.641  18.230  0.00  0.00    +0.000 A 
ATOM      4  C   UNL     1       4.209   7.127  17.704  0.00  0.00    +0.000 A 
ATOM      5  C   UNL     1       5.108   6.283  17.018  0.00  0.00    +0.000 A 
ATOM      6  C   UNL     1       4.782   4.925  16.799  0.00  0.00    +0.000 A 
ENDROOT
BRANCH   3   7
ATOM      7  N   UNL     1       2.140   7.541  18.879  0.00  0.00    +0.000 N 
ATOM      8  C   UNL     1       1.769   8.803  18.441  0.00  0.00    +0.000 C 
ATOM      9  O   UNL     1       2.034   9.296  17.348  0.00  0.00    +0.000 OA
ATOM     10  H   UNL     1       1.762   7.264  19.778  0.00  0.00    +0.000 HD
BRANCH   8  11
ATOM     11  C   UNL     1       0.974   9.562  19.409  0.00  0.00    +0.000 A 
ATOM     12  C   UNL     1       0.857   9.291  20.796  0.00  0.00    +0.000 A 
ATOM     13  C   UNL     1       0.023  10.266  21.272  0.00  0.00    +0.000 A 
ATOM     14  C   UNL     1      -0.494  10.608  22.608  0.00  0.00    +0.000 C 
ATOM     15  O   UNL     1      -0.368  11.062  20.239  0.00  0.00    +0.000 OA
ATOM     16  N   UNL     1       0.230  10.629  19.066  0.00  0.00    +0.000 NA
ENDBRANCH   8  11
ENDBRANCH   3   7
BRANCH   1  18
ATOM     17  C   UNL     1       2.570   2.471  18.136  0.00  0.00    +0.000 C 
ATOM     18  O   UNL     1       3.146   3.166  17.028  0.00  0.00    +0.000 OA
ENDBRANCH   1  18
BRANCH   5  19
ATOM     19  O   UNL     1       6.233   6.967  16.621  0.00  0.00    +0.000 OA
ATOM     20  C   UNL     1       7.385   6.967  17.451  0.00  0.00    +0.000 C 
ENDBRANCH   5  19
BRANCH   6  21
ATOM     21  O   UNL     1       5.714   4.174  16.138  0.00  0.00    +0.000 OA
ATOM     22  C   UNL     1       5.756   4.150  14.721  0.00  0.00    +0.000 C 
ENDBRANCH   6  21
TORSDOF 5
ENDMDL
MODEL 5
REMARK VINA RESULT:      -6.4      3.024      7.491
REMARK  Name = 
REMARK  9 active torsions:
REMARK  status: ('A' for Active; 'I' for Inactive)
REMARK    1  A    between atoms: C_1  and  O_2
REMARK    2  A    between atoms: O_2  and  C_3
REMARK    3  A    between atoms: C_5  and  N_6
REMARK    4  A    between atoms: C_7  and  C_9
REMARK    5  A    between atoms: C_11  and  C_12
REMARK    6  A    between atoms: C_16  and  O_17
REMARK    7  A    between atoms: O_17  and  C_18
REMARK    8  A    between atoms: C_19  and  O_20
REMARK    9  A    between atoms: O_20  and  C_21
REMARK                            x       y       z     vdW  Elec       q    Type
REMARK                         _______ _______ _______ _____ _____    ______ ____
ROOT
ATOM      1  C   UNL     1       6.339   4.029  14.060  0.00  0.00    +0.000 A 
ATOM      2  C   UNL     1       5.387   3.526  14.961  0.00  0.00    +0.000 A 
ATOM      3  C   UNL     1       5.185   4.108  16.207  0.00  0.00    +0.000 A 
ATOM      4  C   UNL     1       6.020   5.155  16.586  0.00  0.00    +0.000 A 
ATOM      5  C   UNL     1       7.054   5.612  15.744  0.00  0.00    +0.000 A 
ATOM      6  C   UNL     1       7.226   5.048  14.458  0.00  0.00    +0.000 A 
ENDROOT
BRANCH   3   7
ATOM      7  N   UNL     1       4.144   3.714  17.079  0.00  0.00    +0.000 N 
ATOM      8  C   UNL     1       3.227   4.542  17.708  0.00  0.00    +0.000 C 
ATOM      9  O   UNL     1       3.080   5.744  17.504  0.00  0.00    +0.000 OA
ATOM     10  H   UNL     1       4.070   2.730  17.309  0.00  0.00    +0.000 HD
BRANCH   8  11
ATOM     11  C   UNL     1       2.372   3.857  18.680  0.00  0.00    +0.000 A 
ATOM     12  C   UNL     1       2.661   3.647  20.052  0.00  0.00    +0.000 A 
ATOM     13  C   UNL     1       1.570   2.977  20.538  0.00  0.00    +0.000 A 
ATOM     14  C   UNL     1       1.185   2.481  21.871  0.00  0.00    +0.000 C 
ATOM     15  O   UNL     1       0.688   2.766  19.524  0.00  0.00    +0.000 OA
ATOM     16  N   UNL     1       1.182   3.321  18.353  0.00  0.00    +0.000 NA
ENDBRANCH   8  11
ENDBRANCH   3   7
BRANCH   1  18
ATOM     17  C   UNL     1       5.159   3.308  12.136  0.00  0.00    +0.000 C 
ATOM     18  O   UNL     1       6.414   3.505  12.791  0.00  0.00    +0.000 OA
ENDBRANCH   1  18
BRANCH   5  19
ATOM     19  O   UNL     1       7.772   6.625  16.337  0.00  0.00    +0.000 OA
ATOM     20  C   UNL     1       7.386   7.102  17.616  0.00  0.00    +0.000 C 
ENDBRANCH   5  19
BRANCH   6  21
ATOM     21  O   UNL     1       8.261   5.540  13.711  0.00  0.00    +0.000 OA
ATOM     22  C   UNL     1       8.073   5.888  12.350  0.00  0.00    +0.000 C 
ENDBRANCH   6  21
TORSDOF 5
ENDMDL
MODEL 6
REMARK VINA RESULT:      -6.4      2.037      3.255
REMARK  Name = 
REMARK  9 active torsions:
REMARK  status: ('A' for Active; 'I' for Inactive)
REMARK    1  A    between atoms: C_1  and  O_2
REMARK    2  A    between atoms: O_2  and  C_3
REMARK    3  A    between atoms: C_5  and  N_6
REMARK    4  A    between atoms: C_7  and  C_9
REMARK    5  A    between atoms: C_11  and  C_12
REMARK    6  A    between atoms: C_16  and  O_17
REMARK    7  A    between atoms: O_17  and  C_18
REMARK    8  A    between atoms: C_19  and  O_20
REMARK    9  A    between atoms: O_20  and  C_21
REMARK                            x       y       z     vdW  Elec       q    Type
REMARK                         _______ _______ _______ _____ _____    ______ ____
ROOT
ATOM      1  C   UNL     1       4.043   2.533  20.673  0.00  0.00    +0.000 A 
ATOM      2  C   UNL     1       4.708   2.603  19.437  0.00  0.00    +0.000 A 
ATOM      3  C   UNL     1       4.398   3.579  18.498  0.00  0.00    +0.000 A 
ATOM      4  C   UNL     1       3.340   4.440  18.770  0.00  0.00    +0.000 A 
ATOM      5  C   UNL     1       2.585   4.326  19.956  0.00  0.00    +0.000 A 
ATOM      6  C   UNL     1       2.934   3.362  20.930  0.00  0.00    +0.000 A 
ENDROOT
BRANCH   3   7
ATOM      7  N   UNL     1       5.139   3.762  17.307  0.00  0.00    +0.000 N 
ATOM      8  C   UNL     1       6.145   4.691  17.087  0.00  0.00    +0.000 C 
ATOM      9  O   UNL     1       6.654   5.420  17.934  0.00  0.00    +0.000 OA
ATOM     10  H   UNL     1       4.897   3.186  16.509  0.00  0.00    +0.000 HD
BRANCH   8  11
ATOM     11  C   UNL     1       6.612   4.748  15.700  0.00  0.00    +0.000 A 
ATOM     12  C   UNL     1       6.149   3.948  14.624  0.00  0.00    +0.000 A 
ATOM     13  C   UNL     1       6.873   4.370  13.542  0.00  0.00    +0.000 A 
ATOM     14  C   UNL     1       6.885   4.006  12.114  0.00  0.00    +0.000 C 
ATOM     15  O   UNL     1       7.742   5.341  13.936  0.00  0.00    +0.000 OA
ATOM     16  N   UNL     1       7.580   5.588  15.291  0.00  0.00    +0.000 NA
ENDBRANCH   8  11
ENDBRANCH   3   7
BRANCH   1  18
ATOM     17  C   UNL     1       5.493   0.732  21.193  0.00  0.00    +0.000 C 
ATOM     18  O   UNL     1       4.471   1.636  21.621  0.00  0.00    +0.000 OA
ENDBRANCH   1  18
BRANCH   5  19
ATOM     19  O   UNL     1       1.570   5.253  19.995  0.00  0.00    +0.000 OA
ATOM     20  C   UNL     1       1.831   6.561  20.481  0.00  0.00    +0.000 C 
ENDBRANCH   5  19
BRANCH   6  21
ATOM     21  O   UNL     1       2.143   3.309  22.044  0.00  0.00    +0.000 OA
ATOM     22  C   UNL     1       1.103   2.351  22.153  0.00  0.00    +0.000 C 
ENDBRANCH   6  21
TORSDOF 5
ENDMDL
MODEL 7
REMARK VINA RESULT:      -6.4      2.553      7.120
REMARK  Name = 
REMARK  9 active torsions:
REMARK  status: ('A' for Active; 'I' for Inactive)
REMARK    1  A    between atoms: C_1  and  O_2
REMARK    2  A    between atoms: O_2  and  C_3
REMARK    3  A    between atoms: C_5  and  N_6
REMARK    4  A    between atoms: C_7  and  C_9
REMARK    5  A    between atoms: C_11  and  C_12
REMARK    6  A    between atoms: C_16  and  O_17
REMARK    7  A    between atoms: O_17  and  C_18
REMARK    8  A    between atoms: C_19  and  O_20
REMARK    9  A    between atoms: O_20  and  C_21
REMARK                            x       y       z     vdW  Elec       q    Type
REMARK                         _______ _______ _______ _____ _____    ______ ____
ROOT
ATOM      1  C   UNL     1       3.972   4.277  17.362  0.00  0.00    +0.000 A 
ATOM      2  C   UNL     1       3.115   5.102  18.109  0.00  0.00    +0.000 A 
ATOM      3  C   UNL     1       3.335   6.469  18.222  0.00  0.00    +0.000 A 
ATOM      4  C   UNL     1       4.487   6.998  17.649  0.00  0.00    +0.000 A 
ATOM      5  C   UNL     1       5.420   6.178  16.981  0.00  0.00    +0.000 A 
ATOM      6  C   UNL     1       5.169   4.794  16.829  0.00  0.00    +0.000 A 
ENDROOT
BRANCH   3   7
ATOM      7  N   UNL     1       2.420   7.345  18.850  0.00  0.00    +0.000 N 
ATOM      8  C   UNL     1       1.952   8.553  18.356  0.00  0.00    +0.000 C 
ATOM      9  O   UNL     1       2.150   8.999  17.229  0.00  0.00    +0.000 OA
ATOM     10  H   UNL     1       2.089   7.097  19.775  0.00  0.00    +0.000 HD
BRANCH   8  11
ATOM     11  C   UNL     1       1.138   9.313  19.308  0.00  0.00    +0.000 A 
ATOM     12  C   UNL     1       0.340  10.448  19.013  0.00  0.00    +0.000 A 
ATOM     13  C   UNL     1      -0.226  10.795  20.210  0.00  0.00    +0.000 A 
ATOM     14  C   UNL     1      -1.177  11.839  20.628  0.00  0.00    +0.000 C 
ATOM     15  O   UNL     1       0.220   9.947  21.177  0.00  0.00    +0.000 OA
ATOM     16  N   UNL     1       1.074   9.009  20.617  0.00  0.00    +0.000 NA
ENDBRANCH   8  11
ENDBRANCH   3   7
BRANCH   1  18
ATOM     17  C   UNL     1       2.455   2.519  17.831  0.00  0.00    +0.000 C 
ATOM     18  O   UNL     1       3.644   2.957  17.170  0.00  0.00    +0.000 OA
ENDBRANCH   1  18
BRANCH   5  19
ATOM     19  O   UNL     1       6.495   6.907  16.530  0.00  0.00    +0.000 OA
ATOM     20  C   UNL     1       7.476   7.356  17.453  0.00  0.00    +0.000 C 
ENDBRANCH   5  19
BRANCH   6  21
ATOM     21  O   UNL     1       6.131   4.069  16.181  0.00  0.00    +0.000 OA
ATOM     22  C   UNL     1       6.116   3.941  14.769  0.00  0.00    +0.000 C 
ENDBRANCH   6  21
TORSDOF 5
ENDMDL
MODEL 8
REMARK VINA RESULT:      -6.4      3.168      7.965
REMARK  Name = 
REMARK  9 active torsions:
REMARK  status: ('A' for Active; 'I' for Inactive)
REMARK    1  A    between atoms: C_1  and  O_2
REMARK    2  A    between atoms: O_2  and  C_3
REMARK    3  A    between atoms: C_5  and  N_6
REMARK    4  A    between atoms: C_7  and  C_9
REMARK    5  A    between atoms: C_11  and  C_12
REMARK    6  A    between atoms: C_16  and  O_17
REMARK    7  A    between atoms: O_17  and  C_18
REMARK    8  A    between atoms: C_19  and  O_20
REMARK    9  A    between atoms: O_20  and  C_21
REMARK                            x       y       z     vdW  Elec       q    Type
REMARK                         _______ _______ _______ _____ _____    ______ ____
ROOT
ATOM      1  C   UNL     1       4.030   5.804  18.791  0.00  0.00    +0.000 A 
ATOM      2  C   UNL     1       3.199   6.787  19.354  0.00  0.00    +0.000 A 
ATOM      3  C   UNL     1       2.223   6.468  20.290  0.00  0.00    +0.000 A 
ATOM      4  C   UNL     1       2.020   5.125  20.595  0.00  0.00    +0.000 A 
ATOM      5  C   UNL     1       2.768   4.107  19.968  0.00  0.00    +0.000 A 
ATOM      6  C   UNL     1       3.791   4.440  19.050  0.00  0.00    +0.000 A 
ENDROOT
BRANCH   3   7
ATOM      7  N   UNL     1       1.466   7.446  20.975  0.00  0.00    +0.000 N 
ATOM      8  C   UNL     1       1.136   8.714  20.519  0.00  0.00    +0.000 C 
ATOM      9  O   UNL     1       1.333   9.148  19.388  0.00  0.00    +0.000 OA
ATOM     10  H   UNL     1       1.154   7.227  21.914  0.00  0.00    +0.000 HD
BRANCH   8  11
ATOM     11  C   UNL     1       0.481   9.557  21.522  0.00  0.00    +0.000 A 
ATOM     12  C   UNL     1      -0.521  10.530  21.276  0.00  0.00    +0.000 A 
ATOM     13  C   UNL     1      -0.818  11.041  22.510  0.00  0.00    +0.000 A 
ATOM     14  C   UNL     1      -1.779  12.047  22.997  0.00  0.00    +0.000 C 
ATOM     15  O   UNL     1      -0.029  10.442  23.444  0.00  0.00    +0.000 OA
ATOM     16  N   UNL     1       0.787   9.504  22.831  0.00  0.00    +0.000 NA
ENDBRANCH   8  11
ENDBRANCH   3   7
BRANCH   1  18
ATOM     17  C   UNL     1       4.680   6.670  16.684  0.00  0.00    +0.000 C 
ATOM     18  O   UNL     1       5.065   6.181  17.970  0.00  0.00    +0.000 OA
ENDBRANCH   1  18
BRANCH   5  19
ATOM     19  O   UNL     1       2.372   2.861  20.393  0.00  0.00    +0.000 OA
ATOM     20  C   UNL     1       1.360   2.745  21.382  0.00  0.00    +0.000 C 
ENDBRANCH   5  19
BRANCH   6  21
ATOM     21  O   UNL     1       4.459   3.392  18.477  0.00  0.00    +0.000 OA
ATOM     22  C   UNL     1       4.127   2.946  17.173  0.00  0.00    +0.000 C 
ENDBRANCH   6  21
TORSDOF 5
ENDMDL
MODEL 9
REMARK VINA RESULT:      -6.3      0.965      2.942
REMARK  Name = 
REMARK  9 active torsions:
REMARK  status: ('A' for Active; 'I' for Inactive)
REMARK    1  A    between atoms: C_1  and  O_2
REMARK    2  A    between atoms: O_2  and  C_3
REMARK    3  A    between atoms: C_5  and  N_6
REMARK    4  A    between atoms: C_7  and  C_9
REMARK    5  A    between atoms: C_11  and  C_12
REMARK    6  A    between atoms: C_16  and  O_17
REMARK    7  A    between atoms: O_17  and  C_18
REMARK    8  A    between atoms: C_19  and  O_20
REMARK    9  A    between atoms: O_20  and  C_21
REMARK                            x       y       z     vdW  Elec       q    Type
REMARK                         _______ _______ _______ _____ _____    ______ ____
ROOT
ATOM      1  C   UNL     1       2.420   7.188  18.836  0.00  0.00    +0.000 A 
ATOM      2  C   UNL     1       3.300   6.826  17.802  0.00  0.00    +0.000 A 
ATOM      3  C   UNL     1       3.855   5.555  17.730  0.00  0.00    +0.000 A 
ATOM      4  C   UNL     1       3.592   4.664  18.766  0.00  0.00    +0.000 A 
ATOM      5  C   UNL     1       2.798   5.034  19.871  0.00  0.00    +0.000 A 
ATOM      6  C   UNL     1       2.197   6.313  19.917  0.00  0.00    +0.000 A 
ENDROOT
BRANCH   3   7
ATOM      7  N   UNL     1       4.631   5.116  16.633  0.00  0.00    +0.000 N 
ATOM      8  C   UNL     1       5.794   5.697  16.150  0.00  0.00    +0.000 C 
ATOM      9  O   UNL     1       6.419   6.611  16.681  0.00  0.00    +0.000 OA
ATOM     10  H   UNL     1       4.296   4.315  16.109  0.00  0.00    +0.000 HD
BRANCH   8  11
ATOM     11  C   UNL     1       6.281   5.110  14.900  0.00  0.00    +0.000 A 
ATOM     12  C   UNL     1       5.649   4.085  14.151  0.00  0.00    +0.000 A 
ATOM     13  C   UNL     1       6.471   3.884  13.075  0.00  0.00    +0.000 A 
ATOM     14  C   UNL     1       6.412   3.007  11.892  0.00  0.00    +0.000 C 
ATOM     15  O   UNL     1       7.548   4.709  13.176  0.00  0.00    +0.000 OA
ATOM     16  N   UNL     1       7.434   5.487  14.317  0.00  0.00    +0.000 NA
ENDBRANCH   8  11
ENDBRANCH   3   7
BRANCH   1  18
ATOM     17  C   UNL     1       2.205   9.274  17.732  0.00  0.00    +0.000 C 
ATOM     18  O   UNL     1       1.794   8.411  18.795  0.00  0.00    +0.000 OA
ENDBRANCH   1  18
BRANCH   5  19
ATOM     19  O   UNL     1       2.705   4.012  20.787  0.00  0.00    +0.000 OA
ATOM     20  C   UNL     1       1.610   3.110  20.724  0.00  0.00    +0.000 C 
ENDBRANCH   5  19
BRANCH   6  21
ATOM     21  O   UNL     1       1.454   6.597  21.030  0.00  0.00    +0.000 OA
ATOM     22  C   UNL     1       1.116   7.934  21.356  0.00  0.00    +0.000 C 
ENDBRANCH   6  21
TORSDOF 5
ENDMDL
