MODEL 1
REMARK VINA RESULT:      -8.0      0.000      0.000
REMARK  Name = 
REMARK  2 active torsions:
REMARK  status: ('A' for Active; 'I' for Inactive)
REMARK    1  A    between atoms: O_1  and  C_2
REMARK    2  A    between atoms: C_7  and  O_8
REMARK                            x       y       z     vdW  Elec       q    Type
REMARK                         _______ _______ _______ _____ _____    ______ ____
ROOT
ATOM      1  C   UNL     1       2.460   8.784  17.861  0.00  0.00    +0.000 A 
ATOM      2  C   UNL     1       3.474   8.166  17.138  0.00  0.00    +0.000 A 
ATOM      3  C   UNL     1       4.054   6.933  17.548  0.00  0.00    +0.000 A 
ATOM      4  C   UNL     1       3.528   6.333  18.745  0.00  0.00    +0.000 A 
ATOM      5  C   UNL     1       2.488   7.001  19.485  0.00  0.00    +0.000 A 
ATOM      6  C   UNL     1       1.967   8.211  19.024  0.00  0.00    +0.000 A 
ATOM      7  C   UNL     1       1.996   6.366  20.774  0.00  0.00    +0.000 C 
ATOM      8  C   UNL     1       1.133   5.132  20.522  0.00  0.00    +0.000 C 
ATOM      9  C   UNL     1       1.721   3.928  19.814  0.00  0.00    +0.000 A 
ATOM     10  C   UNL     1       0.853   2.816  19.705  0.00  0.00    +0.000 A 
ATOM     11  C   UNL     1       1.218   1.661  19.020  0.00  0.00    +0.000 A 
ATOM     12  C   UNL     1       2.465   1.588  18.427  0.00  0.00    +0.000 A 
ATOM     13  C   UNL     1       3.348   2.659  18.548  0.00  0.00    +0.000 A 
ATOM     14  C   UNL     1       3.007   3.851  19.234  0.00  0.00    +0.000 A 
ATOM     15  C   UNL     1       4.031   5.003  19.351  0.00  0.00    +0.000 C 
ATOM     16  C   UNL     1       5.456   4.718  18.815  0.00  0.00    +0.000 C 
ATOM     17  N   UNL     1       6.467   4.474  17.781  0.00  0.00    +0.000 NA
ATOM     18  C   UNL     1       6.158   5.255  16.568  0.00  0.00    +0.000 C 
ATOM     19  C   UNL     1       5.230   6.522  16.622  0.00  0.00    +0.000 C 
ATOM     20  H   UNL     1       6.485   3.479  17.550  0.00  0.00    +0.000 HD
ENDROOT
BRANCH   1  21
ATOM     21  O   UNL     1       1.931   9.972  17.431  0.00  0.00    +0.000 OA
ATOM     22  H   UNL     1       2.604  10.457  16.931  0.00  0.00    +0.000 HD
ENDBRANCH   1  21
BRANCH   6  23
ATOM     23  O   UNL     1       0.986   8.885  19.694  0.00  0.00    +0.000 OA
ATOM     24  H   UNL     1       1.387   9.464  20.353  0.00  0.00    +0.000 HD
ENDBRANCH   6  23
TORSDOF 2
ENDMDL
MODEL 2
REMARK VINA RESULT:      -7.1      1.618      4.375
REMARK  Name = 
REMARK  2 active torsions:
REMARK  status: ('A' for Active; 'I' for Inactive)
REMARK    1  A    between atoms: O_1  and  C_2
REMARK    2  A    between atoms: C_7  and  O_8
REMARK                            x       y       z     vdW  Elec       q    Type
REMARK                         _______ _______ _______ _____ _____    ______ ____
ROOT
ATOM      1  C   UNL     1       1.279   7.763  20.808  0.00  0.00    +0.000 A 
ATOM      2  C   UNL     1       1.458   6.441  21.200  0.00  0.00    +0.000 A 
ATOM      3  C   UNL     1       2.068   5.475  20.352  0.00  0.00    +0.000 A 
ATOM      4  C   UNL     1       2.519   5.932  19.064  0.00  0.00    +0.000 A 
ATOM      5  C   UNL     1       2.308   7.303  18.675  0.00  0.00    +0.000 A 
ATOM      6  C   UNL     1       1.699   8.196  19.559  0.00  0.00    +0.000 A 
ATOM      7  C   UNL     1       2.746   7.736  17.287  0.00  0.00    +0.000 C 
ATOM      8  C   UNL     1       4.264   7.853  17.166  0.00  0.00    +0.000 C 
ATOM      9  C   UNL     1       5.136   6.630  17.374  0.00  0.00    +0.000 A 
ATOM     10  C   UNL     1       6.519   6.840  17.161  0.00  0.00    +0.000 A 
ATOM     11  C   UNL     1       7.458   5.837  17.381  0.00  0.00    +0.000 A 
ATOM     12  C   UNL     1       7.037   4.595  17.820  0.00  0.00    +0.000 A 
ATOM     13  C   UNL     1       5.677   4.357  18.007  0.00  0.00    +0.000 A 
ATOM     14  C   UNL     1       4.694   5.357  17.796  0.00  0.00    +0.000 A 
ATOM     15  C   UNL     1       3.197   5.034  18.005  0.00  0.00    +0.000 C 
ATOM     16  C   UNL     1       2.844   3.555  18.305  0.00  0.00    +0.000 C 
ATOM     17  N   UNL     1       2.798   2.334  19.115  0.00  0.00    +0.000 NA
ATOM     18  C   UNL     1       2.628   2.672  20.542  0.00  0.00    +0.000 C 
ATOM     19  C   UNL     1       2.046   4.061  20.992  0.00  0.00    +0.000 C 
ATOM     20  H   UNL     1       3.665   1.809  18.991  0.00  0.00    +0.000 HD
ENDROOT
BRANCH   1  21
ATOM     21  O   UNL     1       0.685   8.660  21.655  0.00  0.00    +0.000 OA
ATOM     22  H   UNL     1      -0.020   8.213  22.146  0.00  0.00    +0.000 HD
ENDBRANCH   1  21
BRANCH   6  23
ATOM     23  O   UNL     1       1.473   9.503  19.234  0.00  0.00    +0.000 OA
ATOM     24  H   UNL     1       2.295  10.001  19.316  0.00  0.00    +0.000 HD
ENDBRANCH   6  23
TORSDOF 2
ENDMDL
MODEL 3
REMARK VINA RESULT:      -7.0      6.659      9.040
REMARK  Name = 
REMARK  2 active torsions:
REMARK  status: ('A' for Active; 'I' for Inactive)
REMARK    1  A    between atoms: O_1  and  C_2
REMARK    2  A    between atoms: C_7  and  O_8
REMARK                            x       y       z     vdW  Elec       q    Type
REMARK                         _______ _______ _______ _____ _____    ______ ____
ROOT
ATOM      1  C   UNL     1      -0.266  10.057  23.049  0.00  0.00    +0.000 A 
ATOM      2  C   UNL     1      -1.345  10.922  23.193  0.00  0.00    +0.000 A 
ATOM      3  C   UNL     1      -1.808  11.740  22.126  0.00  0.00    +0.000 A 
ATOM      4  C   UNL     1      -1.120  11.620  20.868  0.00  0.00    +0.000 A 
ATOM      5  C   UNL     1       0.005  10.728  20.748  0.00  0.00    +0.000 A 
ATOM      6  C   UNL     1       0.406   9.955  21.839  0.00  0.00    +0.000 A 
ATOM      7  C   UNL     1       0.741  10.669  19.421  0.00  0.00    +0.000 C 
ATOM      8  C   UNL     1      -0.057   9.935  18.345  0.00  0.00    +0.000 C 
ATOM      9  C   UNL     1      -1.404  10.472  17.903  0.00  0.00    +0.000 A 
ATOM     10  C   UNL     1      -2.015   9.754  16.847  0.00  0.00    +0.000 A 
ATOM     11  C   UNL     1      -3.285  10.077  16.376  0.00  0.00    +0.000 A 
ATOM     12  C   UNL     1      -3.975  11.129  16.950  0.00  0.00    +0.000 A 
ATOM     13  C   UNL     1      -3.380  11.868  17.969  0.00  0.00    +0.000 A 
ATOM     14  C   UNL     1      -2.091  11.565  18.475  0.00  0.00    +0.000 A 
ATOM     15  C   UNL     1      -1.472  12.428  19.598  0.00  0.00    +0.000 C 
ATOM     16  C   UNL     1      -2.264  13.693  20.015  0.00  0.00    +0.000 C 
ATOM     17  N   UNL     1      -3.375  14.428  20.626  0.00  0.00    +0.000 NA
ATOM     18  C   UNL     1      -3.856  13.721  21.829  0.00  0.00    +0.000 C 
ATOM     19  C   UNL     1      -2.952  12.683  22.588  0.00  0.00    +0.000 C 
ATOM     20  H   UNL     1      -4.139  14.513  19.954  0.00  0.00    +0.000 HD
ENDROOT
BRANCH   1  21
ATOM     21  O   UNL     1       0.149   9.287  24.103  0.00  0.00    +0.000 OA
ATOM     22  H   UNL     1      -0.441   8.525  24.191  0.00  0.00    +0.000 HD
ENDBRANCH   1  21
BRANCH   6  23
ATOM     23  O   UNL     1       1.469   9.101  21.775  0.00  0.00    +0.000 OA
ATOM     24  H   UNL     1       1.591   8.677  22.633  0.00  0.00    +0.000 HD
ENDBRANCH   6  23
TORSDOF 2
ENDMDL
MODEL 4
REMARK VINA RESULT:      -6.8      7.074      9.356
REMARK  Name = 
REMARK  2 active torsions:
REMARK  status: ('A' for Active; 'I' for Inactive)
REMARK    1  A    between atoms: O_1  and  C_2
REMARK    2  A    between atoms: C_7  and  O_8
REMARK                            x       y       z     vdW  Elec       q    Type
REMARK                         _______ _______ _______ _____ _____    ______ ____
ROOT
ATOM      1  C   UNL     1      -6.140  12.407  20.662  0.00  0.00    +0.000 A 
ATOM      2  C   UNL     1      -5.638  11.994  19.432  0.00  0.00    +0.000 A 
ATOM      3  C   UNL     1      -4.243  11.966  19.154  0.00  0.00    +0.000 A 
ATOM      4  C   UNL     1      -3.359  12.366  20.216  0.00  0.00    +0.000 A 
ATOM      5  C   UNL     1      -3.904  12.804  21.476  0.00  0.00    +0.000 A 
ATOM      6  C   UNL     1      -5.286  12.808  21.678  0.00  0.00    +0.000 A 
ATOM      7  C   UNL     1      -2.943  13.272  22.555  0.00  0.00    +0.000 C 
ATOM      8  C   UNL     1      -2.182  12.115  23.197  0.00  0.00    +0.000 C 
ATOM      9  C   UNL     1      -1.267  11.249  22.353  0.00  0.00    +0.000 A 
ATOM     10  C   UNL     1      -0.555  10.258  23.069  0.00  0.00    +0.000 A 
ATOM     11  C   UNL     1       0.270   9.338  22.429  0.00  0.00    +0.000 A 
ATOM     12  C   UNL     1       0.405   9.387  21.053  0.00  0.00    +0.000 A 
ATOM     13  C   UNL     1      -0.263  10.374  20.332  0.00  0.00    +0.000 A 
ATOM     14  C   UNL     1      -1.113  11.324  20.951  0.00  0.00    +0.000 A 
ATOM     15  C   UNL     1      -1.818  12.408  20.104  0.00  0.00    +0.000 C 
ATOM     16  C   UNL     1      -1.429  12.476  18.606  0.00  0.00    +0.000 C 
ATOM     17  N   UNL     1      -1.384  12.004  17.218  0.00  0.00    +0.000 NA
ATOM     18  C   UNL     1      -2.643  11.319  16.868  0.00  0.00    +0.000 C 
ATOM     19  C   UNL     1      -3.966  11.568  17.679  0.00  0.00    +0.000 C 
ATOM     20  H   UNL     1      -0.601  11.358  17.103  0.00  0.00    +0.000 HD
ENDROOT
BRANCH   1  21
ATOM     21  O   UNL     1      -7.491  12.421  20.887  0.00  0.00    +0.000 OA
ATOM     22  H   UNL     1      -7.653  12.478  21.840  0.00  0.00    +0.000 HD
ENDBRANCH   1  21
BRANCH   6  23
ATOM     23  O   UNL     1      -5.849  13.220  22.853  0.00  0.00    +0.000 OA
ATOM     24  H   UNL     1      -5.722  12.540  23.524  0.00  0.00    +0.000 HD
ENDBRANCH   6  23
TORSDOF 2
ENDMDL
MODEL 5
REMARK VINA RESULT:      -6.7      3.111      4.508
REMARK  Name = 
REMARK  2 active torsions:
REMARK  status: ('A' for Active; 'I' for Inactive)
REMARK    1  A    between atoms: O_1  and  C_2
REMARK    2  A    between atoms: C_7  and  O_8
REMARK                            x       y       z     vdW  Elec       q    Type
REMARK                         _______ _______ _______ _____ _____    ______ ____
ROOT
ATOM      1  C   UNL     1       6.347   5.389  15.973  0.00  0.00    +0.000 A 
ATOM      2  C   UNL     1       5.742   6.539  16.468  0.00  0.00    +0.000 A 
ATOM      3  C   UNL     1       4.461   6.516  17.084  0.00  0.00    +0.000 A 
ATOM      4  C   UNL     1       3.815   5.235  17.196  0.00  0.00    +0.000 A 
ATOM      5  C   UNL     1       4.455   4.060  16.661  0.00  0.00    +0.000 A 
ATOM      6  C   UNL     1       5.714   4.158  16.067  0.00  0.00    +0.000 A 
ATOM      7  C   UNL     1       3.719   2.734  16.748  0.00  0.00    +0.000 C 
ATOM      8  C   UNL     1       3.697   2.172  18.167  0.00  0.00    +0.000 C 
ATOM      9  C   UNL     1       3.020   2.950  19.279  0.00  0.00    +0.000 A 
ATOM     10  C   UNL     1       2.994   2.296  20.533  0.00  0.00    +0.000 A 
ATOM     11  C   UNL     1       2.473   2.907  21.671  0.00  0.00    +0.000 A 
ATOM     12  C   UNL     1       1.961   4.189  21.580  0.00  0.00    +0.000 A 
ATOM     13  C   UNL     1       1.949   4.839  20.348  0.00  0.00    +0.000 A 
ATOM     14  C   UNL     1       2.475   4.248  19.172  0.00  0.00    +0.000 A 
ATOM     15  C   UNL     1       2.422   5.009  17.827  0.00  0.00    +0.000 C 
ATOM     16  C   UNL     1       1.649   6.351  17.822  0.00  0.00    +0.000 C 
ATOM     17  N   UNL     1       1.423   7.761  18.158  0.00  0.00    +0.000 NA
ATOM     18  C   UNL     1       2.705   8.491  18.191  0.00  0.00    +0.000 C 
ATOM     19  C   UNL     1       3.979   7.947  17.449  0.00  0.00    +0.000 C 
ATOM     20  H   UNL     1       0.971   7.826  19.071  0.00  0.00    +0.000 HD
ENDROOT
BRANCH   1  21
ATOM     21  O   UNL     1       7.582   5.456  15.384  0.00  0.00    +0.000 OA
ATOM     22  H   UNL     1       7.530   5.078  14.495  0.00  0.00    +0.000 HD
ENDBRANCH   1  21
BRANCH   6  23
ATOM     23  O   UNL     1       6.358   3.074  15.541  0.00  0.00    +0.000 OA
ATOM     24  H   UNL     1       5.733   2.551  15.025  0.00  0.00    +0.000 HD
ENDBRANCH   6  23
TORSDOF 2
ENDMDL
MODEL 6
REMARK VINA RESULT:      -6.5      6.164      9.037
REMARK  Name = 
REMARK  2 active torsions:
REMARK  status: ('A' for Active; 'I' for Inactive)
REMARK    1  A    between atoms: O_1  and  C_2
REMARK    2  A    between atoms: C_7  and  O_8
REMARK                            x       y       z     vdW  Elec       q    Type
REMARK                         _______ _______ _______ _____ _____    ______ ____
ROOT
ATOM      1  C   UNL     1       0.789   9.281  21.517  0.00  0.00    +0.000 A 
ATOM      2  C   UNL     1       0.074  10.073  22.408  0.00  0.00    +0.000 A 
ATOM      3  C   UNL     1      -0.772  11.130  21.970  0.00  0.00    +0.000 A 
ATOM      4  C   UNL     1      -0.875  11.336  20.550  0.00  0.00    +0.000 A 
ATOM      5  C   UNL     1      -0.111  10.512  19.649  0.00  0.00    +0.000 A 
ATOM      6  C   UNL     1       0.701   9.492  20.149  0.00  0.00    +0.000 A 
ATOM      7  C   UNL     1      -0.202  10.794  18.159  0.00  0.00    +0.000 C 
ATOM      8  C   UNL     1      -1.535  10.348  17.563  0.00  0.00    +0.000 C 
ATOM      9  C   UNL     1      -2.829  10.969  18.052  0.00  0.00    +0.000 A 
ATOM     10  C   UNL     1      -3.993  10.535  17.375  0.00  0.00    +0.000 A 
ATOM     11  C   UNL     1      -5.265  10.956  17.753  0.00  0.00    +0.000 A 
ATOM     12  C   UNL     1      -5.404  11.825  18.820  0.00  0.00    +0.000 A 
ATOM     13  C   UNL     1      -4.269  12.289  19.482  0.00  0.00    +0.000 A 
ATOM     14  C   UNL     1      -2.960  11.877  19.126  0.00  0.00    +0.000 A 
ATOM     15  C   UNL     1      -1.735  12.435  19.885  0.00  0.00    +0.000 C 
ATOM     16  C   UNL     1      -2.014  13.548  20.926  0.00  0.00    +0.000 C 
ATOM     17  N   UNL     1      -2.528  14.096  22.186  0.00  0.00    +0.000 NA
ATOM     18  C   UNL     1      -2.388  13.106  23.271  0.00  0.00    +0.000 C 
ATOM     19  C   UNL     1      -1.364  11.917  23.170  0.00  0.00    +0.000 C 
ATOM     20  H   UNL     1      -3.513  14.342  22.074  0.00  0.00    +0.000 HD
ENDROOT
BRANCH   1  21
ATOM     21  O   UNL     1       1.594   8.274  21.981  0.00  0.00    +0.000 OA
ATOM     22  H   UNL     1       2.133   7.937  21.251  0.00  0.00    +0.000 HD
ENDBRANCH   1  21
BRANCH   6  23
ATOM     23  O   UNL     1       1.448   8.689  19.334  0.00  0.00    +0.000 OA
ATOM     24  H   UNL     1       2.381   8.906  19.441  0.00  0.00    +0.000 HD
ENDBRANCH   6  23
TORSDOF 2
ENDMDL
MODEL 7
REMARK VINA RESULT:      -6.5      7.996     10.548
REMARK  Name = 
REMARK  2 active torsions:
REMARK  status: ('A' for Active; 'I' for Inactive)
REMARK    1  A    between atoms: O_1  and  C_2
REMARK    2  A    between atoms: C_7  and  O_8
REMARK                            x       y       z     vdW  Elec       q    Type
REMARK                         _______ _______ _______ _____ _____    ______ ____
ROOT
ATOM      1  C   UNL     1      -0.421  10.860  22.161  0.00  0.00    +0.000 A 
ATOM      2  C   UNL     1      -1.361  11.339  23.066  0.00  0.00    +0.000 A 
ATOM      3  C   UNL     1      -2.461  12.145  22.661  0.00  0.00    +0.000 A 
ATOM      4  C   UNL     1      -2.575  12.430  21.255  0.00  0.00    +0.000 A 
ATOM      5  C   UNL     1      -1.580  11.935  20.339  0.00  0.00    +0.000 A 
ATOM      6  C   UNL     1      -0.525  11.151  20.808  0.00  0.00    +0.000 A 
ATOM      7  C   UNL     1      -1.703  12.303  18.871  0.00  0.00    +0.000 C 
ATOM      8  C   UNL     1      -2.832  11.548  18.174  0.00  0.00    +0.000 C 
ATOM      9  C   UNL     1      -4.264  11.732  18.637  0.00  0.00    +0.000 A 
ATOM     10  C   UNL     1      -5.233  11.043  17.870  0.00  0.00    +0.000 A 
ATOM     11  C   UNL     1      -6.583  11.052  18.209  0.00  0.00    +0.000 A 
ATOM     12  C   UNL     1      -6.999  11.754  19.326  0.00  0.00    +0.000 A 
ATOM     13  C   UNL     1      -6.066  12.464  20.079  0.00  0.00    +0.000 A 
ATOM     14  C   UNL     1      -4.684  12.472  19.764  0.00  0.00    +0.000 A 
ATOM     15  C   UNL     1      -3.695  13.290  20.625  0.00  0.00    +0.000 C 
ATOM     16  C   UNL     1      -4.314  14.187  21.727  0.00  0.00    +0.000 C 
ATOM     17  N   UNL     1      -5.002  14.460  22.993  0.00  0.00    +0.000 NA
ATOM     18  C   UNL     1      -4.616  13.463  24.010  0.00  0.00    +0.000 C 
ATOM     19  C   UNL     1      -3.291  12.628  23.880  0.00  0.00    +0.000 C 
ATOM     20  H   UNL     1      -6.012  14.424  22.846  0.00  0.00    +0.000 HD
ENDROOT
BRANCH   1  21
ATOM     21  O   UNL     1       0.625  10.089  22.594  0.00  0.00    +0.000 OA
ATOM     22  H   UNL     1       0.963   9.567  21.852  0.00  0.00    +0.000 HD
ENDBRANCH   1  21
BRANCH   6  23
ATOM     23  O   UNL     1       0.446  10.664  19.979  0.00  0.00    +0.000 OA
ATOM     24  H   UNL     1       0.827   9.867  20.366  0.00  0.00    +0.000 HD
ENDBRANCH   6  23
TORSDOF 2
ENDMDL
MODEL 8
REMARK VINA RESULT:      -6.4      6.934      9.672
REMARK  Name = 
REMARK  2 active torsions:
REMARK  status: ('A' for Active; 'I' for Inactive)
REMARK    1  A    between atoms: O_1  and  C_2
REMARK    2  A    between atoms: C_7  and  O_8
REMARK                            x       y       z     vdW  Elec       q    Type
REMARK                         _______ _______ _______ _____ _____    ______ ____
ROOT
ATOM      1  C   UNL     1       0.319   9.928  20.040  0.00  0.00    +0.000 A 
ATOM      2  C   UNL     1      -0.090  10.464  21.256  0.00  0.00    +0.000 A 
ATOM      3  C   UNL     1      -1.123  11.439  21.344  0.00  0.00    +0.000 A 
ATOM      4  C   UNL     1      -1.749  11.838  20.112  0.00  0.00    +0.000 A 
ATOM      5  C   UNL     1      -1.296  11.279  18.863  0.00  0.00    +0.000 A 
ATOM      6  C   UNL     1      -0.276  10.327  18.852  0.00  0.00    +0.000 A 
ATOM      7  C   UNL     1      -1.943  11.764  17.578  0.00  0.00    +0.000 C 
ATOM      8  C   UNL     1      -3.359  11.222  17.398  0.00  0.00    +0.000 C 
ATOM      9  C   UNL     1      -4.436  11.565  18.408  0.00  0.00    +0.000 A 
ATOM     10  C   UNL     1      -5.725  11.071  18.098  0.00  0.00    +0.000 A 
ATOM     11  C   UNL     1      -6.805  11.239  18.961  0.00  0.00    +0.000 A 
ATOM     12  C   UNL     1      -6.622  11.908  20.157  0.00  0.00    +0.000 A 
ATOM     13  C   UNL     1      -5.368  12.429  20.469  0.00  0.00    +0.000 A 
ATOM     14  C   UNL     1      -4.246  12.273  19.616  0.00  0.00    +0.000 A 
ATOM     15  C   UNL     1      -2.881  12.885  20.004  0.00  0.00    +0.000 C 
ATOM     16  C   UNL     1      -2.858  13.776  21.271  0.00  0.00    +0.000 C 
ATOM     17  N   UNL     1      -2.926  14.048  22.711  0.00  0.00    +0.000 NA
ATOM     18  C   UNL     1      -2.321  12.938  23.471  0.00  0.00    +0.000 C 
ATOM     19  C   UNL     1      -1.306  11.942  22.802  0.00  0.00    +0.000 C 
ATOM     20  H   UNL     1      -3.902  14.161  22.991  0.00  0.00    +0.000 HD
ENDROOT
BRANCH   1  21
ATOM     21  O   UNL     1       1.319   8.993  19.999  0.00  0.00    +0.000 OA
ATOM     22  H   UNL     1       2.156   9.413  20.242  0.00  0.00    +0.000 HD
ENDBRANCH   1  21
BRANCH   6  23
ATOM     23  O   UNL     1       0.191   9.774  17.693  0.00  0.00    +0.000 OA
ATOM     24  H   UNL     1       0.662  10.445  17.185  0.00  0.00    +0.000 HD
ENDBRANCH   6  23
TORSDOF 2
ENDMDL
MODEL 9
REMARK VINA RESULT:      -6.3     10.109     11.945
REMARK  Name = 
REMARK  2 active torsions:
REMARK  status: ('A' for Active; 'I' for Inactive)
REMARK    1  A    between atoms: O_1  and  C_2
REMARK    2  A    between atoms: C_7  and  O_8
REMARK                            x       y       z     vdW  Elec       q    Type
REMARK                         _______ _______ _______ _____ _____    ______ ____
ROOT
ATOM      1  C   UNL     1       8.414  13.176  22.199  0.00  0.00    +0.000 A 
ATOM      2  C   UNL     1       9.584  12.555  21.775  0.00  0.00    +0.000 A 
ATOM      3  C   UNL     1      10.091  12.714  20.455  0.00  0.00    +0.000 A 
ATOM      4  C   UNL     1       9.347  13.572  19.571  0.00  0.00    +0.000 A 
ATOM      5  C   UNL     1       8.130  14.191  20.029  0.00  0.00    +0.000 A 
ATOM      6  C   UNL     1       7.690  13.989  21.339  0.00  0.00    +0.000 A 
ATOM      7  C   UNL     1       7.342  15.046  19.052  0.00  0.00    +0.000 C 
ATOM      8  C   UNL     1       8.015  16.389  18.778  0.00  0.00    +0.000 C 
ATOM      9  C   UNL     1       9.394  16.430  18.149  0.00  0.00    +0.000 A 
ATOM     10  C   UNL     1       9.884  17.728  17.871  0.00  0.00    +0.000 A 
ATOM     11  C   UNL     1      11.163  17.938  17.361  0.00  0.00    +0.000 A 
ATOM     12  C   UNL     1      11.983  16.852  17.113  0.00  0.00    +0.000 A 
ATOM     13  C   UNL     1      11.508  15.564  17.351  0.00  0.00    +0.000 A 
ATOM     14  C   UNL     1      10.215  15.314  17.874  0.00  0.00    +0.000 A 
ATOM     15  C   UNL     1       9.734  13.863  18.103  0.00  0.00    +0.000 C 
ATOM     16  C   UNL     1      10.672  12.736  17.602  0.00  0.00    +0.000 C 
ATOM     17  N   UNL     1      11.878  11.902  17.613  0.00  0.00    +0.000 NA
ATOM     18  C   UNL     1      12.326  11.669  19.000  0.00  0.00    +0.000 C 
ATOM     19  C   UNL     1      11.346  11.831  20.218  0.00  0.00    +0.000 C 
ATOM     20  H   UNL     1      12.620  12.369  17.090  0.00  0.00    +0.000 HD
ENDROOT
BRANCH   1  21
ATOM     21  O   UNL     1       7.960  12.993  23.478  0.00  0.00    +0.000 OA
ATOM     22  H   UNL     1       8.695  13.115  24.096  0.00  0.00    +0.000 HD
ENDBRANCH   1  21
BRANCH   6  23
ATOM     23  O   UNL     1       6.540  14.550  21.816  0.00  0.00    +0.000 OA
ATOM     24  H   UNL     1       6.572  15.505  21.687  0.00  0.00    +0.000 HD
ENDBRANCH   6  23
TORSDOF 2
ENDMDL
