MODEL 1
REMARK VINA RESULT:      -7.5      0.000      0.000
REMARK  Name = 
REMARK  2 active torsions:
REMARK  status: ('A' for Active; 'I' for Inactive)
REMARK    1  A    between atoms: N_3  and  C_4
REMARK    2  A    between atoms: N_19  and  C_20
REMARK                            x       y       z     vdW  Elec       q    Type
REMARK                         _______ _______ _______ _____ _____    ______ ____
ROOT
ATOM      1  O   UNL     1       1.358   4.966  17.888  0.00  0.00    +0.000 OA
ATOM      2  C   UNL     1       2.554   5.020  18.160  0.00  0.00    +0.000 C 
ATOM      3  N   UNL     1       3.200   6.170  18.617  0.00  0.00    +0.000 N 
ATOM      4  N   UNL     1       3.425   3.941  17.981  0.00  0.00    +0.000 N 
ATOM      5  C   UNL     1       2.928   2.719  17.364  0.00  0.00    +0.000 C 
ATOM      6  C   UNL     1       2.562   1.609  18.357  0.00  0.00    +0.000 C 
ATOM      7  C   UNL     1       3.784   1.004  19.050  0.00  0.00    +0.000 C 
ATOM      8  C   UNL     1       4.314   1.787  20.256  0.00  0.00    +0.000 C 
ATOM      9  C   UNL     1       4.247   3.309  20.168  0.00  0.00    +0.000 C 
ATOM     10  C   UNL     1       4.544   3.825  18.775  0.00  0.00    +0.000 C 
ATOM     11  N   UNL     1       5.757   4.089  18.411  0.00  0.00    +0.000 NA
ATOM     12  H   UNL     1       4.195   6.201  18.428  0.00  0.00    +0.000 HD
ENDROOT
BRANCH   3  13
ATOM     13  C   UNL     1       2.557   7.415  18.728  0.00  0.00    +0.000 A 
ATOM     14  C   UNL     1       2.609   8.298  17.646  0.00  0.00    +0.000 A 
ATOM     15  C   UNL     1       1.952   9.529  17.724  0.00  0.00    +0.000 A 
ATOM     16  C   UNL     1       1.297   9.901  18.901  0.00  0.00    +0.000 A 
ATOM     17 CL   UNL     1       0.531  11.449  18.942  0.00  0.00    +0.000 Cl
ATOM     18  C   UNL     1       1.282   9.028  19.996  0.00  0.00    +0.000 A 
ATOM     19 CL   UNL     1       0.552   9.446  21.505  0.00  0.00    +0.000 Cl
ATOM     20  C   UNL     1       1.892   7.776  19.896  0.00  0.00    +0.000 A 
ENDBRANCH   3  13
BRANCH  11  21
ATOM     21  C   UNL     1       6.162   4.518  17.132  0.00  0.00    +0.000 A 
ATOM     22  C   UNL     1       6.804   5.724  16.821  0.00  0.00    +0.000 A 
ATOM     23  C   UNL     1       7.237   6.023  15.529  0.00  0.00    +0.000 A 
ATOM     24  C   UNL     1       7.023   5.103  14.513  0.00  0.00    +0.000 A 
ATOM     25 BR   UNL     1       7.612   5.508  12.760  0.00  0.00    +0.000 Br
ATOM     26  C   UNL     1       6.390   3.898  14.779  0.00  0.00    +0.000 A 
ATOM     27  C   UNL     1       5.968   3.612  16.084  0.00  0.00    +0.000 A 
ENDBRANCH  11  21
TORSDOF 2
ENDMDL
MODEL 2
REMARK VINA RESULT:      -7.1      5.006      9.138
REMARK  Name = 
REMARK  2 active torsions:
REMARK  status: ('A' for Active; 'I' for Inactive)
REMARK    1  A    between atoms: N_3  and  C_4
REMARK    2  A    between atoms: N_19  and  C_20
REMARK                            x       y       z     vdW  Elec       q    Type
REMARK                         _______ _______ _______ _____ _____    ______ ____
ROOT
ATOM      1  O   UNL     1       2.308  11.296  18.475  0.00  0.00    +0.000 OA
ATOM      2  C   UNL     1       1.164  10.939  18.746  0.00  0.00    +0.000 C 
ATOM      3  N   UNL     1       0.797   9.615  18.992  0.00  0.00    +0.000 N 
ATOM      4  N   UNL     1       0.079  11.820  18.775  0.00  0.00    +0.000 N 
ATOM      5  C   UNL     1       0.279  13.209  18.386  0.00  0.00    +0.000 C 
ATOM      6  C   UNL     1       0.452  14.179  19.561  0.00  0.00    +0.000 C 
ATOM      7  C   UNL     1      -0.834  14.376  20.366  0.00  0.00    +0.000 C 
ATOM      8  C   UNL     1      -1.128  13.299  21.414  0.00  0.00    +0.000 C 
ATOM      9  C   UNL     1      -0.749  11.866  21.049  0.00  0.00    +0.000 C 
ATOM     10  C   UNL     1      -0.999  11.551  19.589  0.00  0.00    +0.000 C 
ATOM     11  N   UNL     1      -2.146  11.101  19.196  0.00  0.00    +0.000 NA
ATOM     12  H   UNL     1      -0.178   9.404  18.811  0.00  0.00    +0.000 HD
ENDROOT
BRANCH   3  13
ATOM     13  C   UNL     1       1.691   8.537  18.867  0.00  0.00    +0.000 A 
ATOM     14  C   UNL     1       2.531   8.486  17.751  0.00  0.00    +0.000 A 
ATOM     15  C   UNL     1       3.448   7.439  17.622  0.00  0.00    +0.000 A 
ATOM     16  C   UNL     1       3.483   6.415  18.574  0.00  0.00    +0.000 A 
ATOM     17 CL   UNL     1       4.618   5.136  18.339  0.00  0.00    +0.000 Cl
ATOM     18  C   UNL     1       2.610   6.453  19.669  0.00  0.00    +0.000 A 
ATOM     19 CL   UNL     1       2.548   5.191  20.847  0.00  0.00    +0.000 Cl
ATOM     20  C   UNL     1       1.734   7.528  19.824  0.00  0.00    +0.000 A 
ENDBRANCH   3  13
BRANCH  11  21
ATOM     21  C   UNL     1      -2.515  10.826  17.865  0.00  0.00    +0.000 A 
ATOM     22  C   UNL     1      -1.916   9.895  17.007  0.00  0.00    +0.000 A 
ATOM     23  C   UNL     1      -2.407   9.640  15.726  0.00  0.00    +0.000 A 
ATOM     24  C   UNL     1      -3.523  10.333  15.279  0.00  0.00    +0.000 A 
ATOM     25 BR   UNL     1      -4.189   9.986  13.541  0.00  0.00    +0.000 Br
ATOM     26  C   UNL     1      -4.144  11.265  16.096  0.00  0.00    +0.000 A 
ATOM     27  C   UNL     1      -3.641  11.502  17.382  0.00  0.00    +0.000 A 
ENDBRANCH  11  21
TORSDOF 2
ENDMDL
MODEL 3
REMARK VINA RESULT:      -6.9      5.118      9.352
REMARK  Name = 
REMARK  2 active torsions:
REMARK  status: ('A' for Active; 'I' for Inactive)
REMARK    1  A    between atoms: N_3  and  C_4
REMARK    2  A    between atoms: N_19  and  C_20
REMARK                            x       y       z     vdW  Elec       q    Type
REMARK                         _______ _______ _______ _____ _____    ______ ____
ROOT
ATOM      1  O   UNL     1       2.136  11.375  18.755  0.00  0.00    +0.000 OA
ATOM      2  C   UNL     1       0.968  11.062  18.972  0.00  0.00    +0.000 C 
ATOM      3  N   UNL     1       0.551   9.766  19.277  0.00  0.00    +0.000 N 
ATOM      4  N   UNL     1      -0.093  11.968  18.875  0.00  0.00    +0.000 N 
ATOM      5  C   UNL     1       0.168  13.323  18.413  0.00  0.00    +0.000 C 
ATOM      6  C   UNL     1       0.292  14.364  19.533  0.00  0.00    +0.000 C 
ATOM      7  C   UNL     1      -1.037  14.641  20.238  0.00  0.00    +0.000 C 
ATOM      8  C   UNL     1      -1.426  13.641  21.331  0.00  0.00    +0.000 C 
ATOM      9  C   UNL     1      -1.063  12.179  21.082  0.00  0.00    +0.000 C 
ATOM     10  C   UNL     1      -1.228  11.776  19.631  0.00  0.00    +0.000 C 
ATOM     11  N   UNL     1      -2.358  11.327  19.193  0.00  0.00    +0.000 NA
ATOM     12  H   UNL     1      -0.415   9.566  19.046  0.00  0.00    +0.000 HD
ENDROOT
BRANCH   3  13
ATOM     13  C   UNL     1       1.422   8.662  19.280  0.00  0.00    +0.000 A 
ATOM     14  C   UNL     1       1.481   7.854  20.419  0.00  0.00    +0.000 A 
ATOM     15  C   UNL     1       2.319   6.736  20.432  0.00  0.00    +0.000 A 
ATOM     16  C   UNL     1       3.139   6.460  19.334  0.00  0.00    +0.000 A 
ATOM     17 CL   UNL     1       4.172   5.080  19.428  0.00  0.00    +0.000 Cl
ATOM     18  C   UNL     1       3.104   7.297  18.212  0.00  0.00    +0.000 A 
ATOM     19 CL   UNL     1       4.136   7.059  16.847  0.00  0.00    +0.000 Cl
ATOM     20  C   UNL     1       2.226   8.382  18.179  0.00  0.00    +0.000 A 
ENDBRANCH   3  13
BRANCH  11  21
ATOM     21  C   UNL     1      -2.649  10.975  17.860  0.00  0.00    +0.000 A 
ATOM     22  C   UNL     1      -1.979  10.021  17.084  0.00  0.00    +0.000 A 
ATOM     23  C   UNL     1      -2.394   9.688  15.795  0.00  0.00    +0.000 A 
ATOM     24  C   UNL     1      -3.504  10.323  15.255  0.00  0.00    +0.000 A 
ATOM     25 BR   UNL     1      -4.068   9.870  13.506  0.00  0.00    +0.000 Br
ATOM     26  C   UNL     1      -4.194  11.275  15.990  0.00  0.00    +0.000 A 
ATOM     27  C   UNL     1      -3.766  11.592  17.287  0.00  0.00    +0.000 A 
ENDBRANCH  11  21
TORSDOF 2
ENDMDL
MODEL 4
REMARK VINA RESULT:      -6.9      4.926      9.112
REMARK  Name = 
REMARK  2 active torsions:
REMARK  status: ('A' for Active; 'I' for Inactive)
REMARK    1  A    between atoms: N_3  and  C_4
REMARK    2  A    between atoms: N_19  and  C_20
REMARK                            x       y       z     vdW  Elec       q    Type
REMARK                         _______ _______ _______ _____ _____    ______ ____
ROOT
ATOM      1  O   UNL     1       2.416  11.328  18.348  0.00  0.00    +0.000 OA
ATOM      2  C   UNL     1       1.303  11.021  18.767  0.00  0.00    +0.000 C 
ATOM      3  N   UNL     1       0.923   9.716  19.087  0.00  0.00    +0.000 N 
ATOM      4  N   UNL     1       0.262  11.943  18.912  0.00  0.00    +0.000 N 
ATOM      5  C   UNL     1       0.461  13.316  18.469  0.00  0.00    +0.000 C 
ATOM      6  C   UNL     1       0.815  14.300  19.590  0.00  0.00    +0.000 C 
ATOM      7  C   UNL     1      -0.353  14.560  20.545  0.00  0.00    +0.000 C 
ATOM      8  C   UNL     1      -0.551  13.514  21.646  0.00  0.00    +0.000 C 
ATOM      9  C   UNL     1      -0.272  12.062  21.269  0.00  0.00    +0.000 C 
ATOM     10  C   UNL     1      -0.715  11.730  19.859  0.00  0.00    +0.000 C 
ATOM     11  N   UNL     1      -1.917  11.317  19.622  0.00  0.00    +0.000 NA
ATOM     12  H   UNL     1      -0.074   9.540  19.034  0.00  0.00    +0.000 HD
ENDROOT
BRANCH   3  13
ATOM     13  C   UNL     1       1.755   8.603  18.877  0.00  0.00    +0.000 A 
ATOM     14  C   UNL     1       2.519   8.546  17.708  0.00  0.00    +0.000 A 
ATOM     15  C   UNL     1       3.375   7.462  17.493  0.00  0.00    +0.000 A 
ATOM     16  C   UNL     1       3.422   6.411  18.413  0.00  0.00    +0.000 A 
ATOM     17 CL   UNL     1       4.479   5.089  18.071  0.00  0.00    +0.000 Cl
ATOM     18  C   UNL     1       2.625   6.457  19.563  0.00  0.00    +0.000 A 
ATOM     19 CL   UNL     1       2.578   5.165  20.710  0.00  0.00    +0.000 Cl
ATOM     20  C   UNL     1       1.811   7.566  19.803  0.00  0.00    +0.000 A 
ENDBRANCH   3  13
BRANCH  11  21
ATOM     21  C   UNL     1      -2.459  11.032  18.354  0.00  0.00    +0.000 A 
ATOM     22  C   UNL     1      -3.511  11.710  17.725  0.00  0.00    +0.000 A 
ATOM     23  C   UNL     1      -3.926  11.401  16.429  0.00  0.00    +0.000 A 
ATOM     24  C   UNL     1      -3.283  10.385  15.737  0.00  0.00    +0.000 A 
ATOM     25 BR   UNL     1      -3.845   9.965  13.979  0.00  0.00    +0.000 Br
ATOM     26  C   UNL     1      -2.238   9.687  16.325  0.00  0.00    +0.000 A 
ATOM     27  C   UNL     1      -1.831  10.017  17.624  0.00  0.00    +0.000 A 
ENDBRANCH  11  21
TORSDOF 2
ENDMDL
MODEL 5
REMARK VINA RESULT:      -6.9      5.120      9.203
REMARK  Name = 
REMARK  2 active torsions:
REMARK  status: ('A' for Active; 'I' for Inactive)
REMARK    1  A    between atoms: N_3  and  C_4
REMARK    2  A    between atoms: N_19  and  C_20
REMARK                            x       y       z     vdW  Elec       q    Type
REMARK                         _______ _______ _______ _____ _____    ______ ____
ROOT
ATOM      1  O   UNL     1       0.667   9.937  21.606  0.00  0.00    +0.000 OA
ATOM      2  C   UNL     1       0.486  10.600  20.588  0.00  0.00    +0.000 C 
ATOM      3  N   UNL     1       0.872  10.190  19.311  0.00  0.00    +0.000 N 
ATOM      4  N   UNL     1      -0.075  11.880  20.604  0.00  0.00    +0.000 N 
ATOM      5  C   UNL     1      -0.384  12.507  21.881  0.00  0.00    +0.000 C 
ATOM      6  C   UNL     1      -1.857  12.404  22.298  0.00  0.00    +0.000 C 
ATOM      7  C   UNL     1      -2.784  13.252  21.425  0.00  0.00    +0.000 C 
ATOM      8  C   UNL     1      -3.207  12.615  20.098  0.00  0.00    +0.000 C 
ATOM      9  C   UNL     1      -2.160  11.766  19.381  0.00  0.00    +0.000 C 
ATOM     10  C   UNL     1      -0.764  12.339  19.503  0.00  0.00    +0.000 C 
ATOM     11  N   UNL     1      -0.322  13.196  18.641  0.00  0.00    +0.000 NA
ATOM     12  H   UNL     1       1.032  10.945  18.654  0.00  0.00    +0.000 HD
ENDROOT
BRANCH   3  13
ATOM     13  C   UNL     1       1.591   9.006  19.072  0.00  0.00    +0.000 A 
ATOM     14  C   UNL     1       2.345   8.901  17.899  0.00  0.00    +0.000 A 
ATOM     15  C   UNL     1       3.090   7.744  17.656  0.00  0.00    +0.000 A 
ATOM     16  C   UNL     1       3.035   6.673  18.551  0.00  0.00    +0.000 A 
ATOM     17 CL   UNL     1       3.956   5.261  18.175  0.00  0.00    +0.000 Cl
ATOM     18  C   UNL     1       2.247   6.769  19.705  0.00  0.00    +0.000 A 
ATOM     19 CL   UNL     1       2.075   5.462  20.822  0.00  0.00    +0.000 Cl
ATOM     20  C   UNL     1       1.547   7.947  19.973  0.00  0.00    +0.000 A 
ENDBRANCH   3  13
BRANCH  11  21
ATOM     21  C   UNL     1       0.932  13.838  18.680  0.00  0.00    +0.000 A 
ATOM     22  C   UNL     1       2.143  13.335  18.187  0.00  0.00    +0.000 A 
ATOM     23  C   UNL     1       3.319  14.084  18.203  0.00  0.00    +0.000 A 
ATOM     24  C   UNL     1       3.298  15.368  18.727  0.00  0.00    +0.000 A 
ATOM     25 BR   UNL     1       4.895  16.385  18.748  0.00  0.00    +0.000 Br
ATOM     26  C   UNL     1       2.119  15.903  19.227  0.00  0.00    +0.000 A 
ATOM     27  C   UNL     1       0.946  15.138  19.196  0.00  0.00    +0.000 A 
ENDBRANCH  11  21
TORSDOF 2
ENDMDL
MODEL 6
REMARK VINA RESULT:      -6.7      7.570     11.931
REMARK  Name = 
REMARK  2 active torsions:
REMARK  status: ('A' for Active; 'I' for Inactive)
REMARK    1  A    between atoms: N_3  and  C_4
REMARK    2  A    between atoms: N_19  and  C_20
REMARK                            x       y       z     vdW  Elec       q    Type
REMARK                         _______ _______ _______ _____ _____    ______ ____
ROOT
ATOM      1  O   UNL     1      -0.546  13.589  21.172  0.00  0.00    +0.000 OA
ATOM      2  C   UNL     1      -1.618  12.995  21.257  0.00  0.00    +0.000 C 
ATOM      3  N   UNL     1      -1.827  11.693  20.802  0.00  0.00    +0.000 N 
ATOM      4  N   UNL     1      -2.777  13.588  21.767  0.00  0.00    +0.000 N 
ATOM      5  C   UNL     1      -2.754  14.996  22.137  0.00  0.00    +0.000 C 
ATOM      6  C   UNL     1      -2.566  15.255  23.637  0.00  0.00    +0.000 C 
ATOM      7  C   UNL     1      -3.784  14.845  24.469  0.00  0.00    +0.000 C 
ATOM      8  C   UNL     1      -3.870  13.358  24.826  0.00  0.00    +0.000 C 
ATOM      9  C   UNL     1      -3.386  12.370  23.768  0.00  0.00    +0.000 C 
ATOM     10  C   UNL     1      -3.742  12.804  22.361  0.00  0.00    +0.000 C 
ATOM     11  N   UNL     1      -4.870  12.465  21.828  0.00  0.00    +0.000 NA
ATOM     12  H   UNL     1      -2.789  11.474  20.569  0.00  0.00    +0.000 HD
ENDROOT
BRANCH   3  13
ATOM     13  C   UNL     1      -0.847  10.955  20.116  0.00  0.00    +0.000 A 
ATOM     14  C   UNL     1      -0.632  11.219  18.760  0.00  0.00    +0.000 A 
ATOM     15  C   UNL     1       0.358  10.518  18.066  0.00  0.00    +0.000 A 
ATOM     16  C   UNL     1       1.088   9.514  18.709  0.00  0.00    +0.000 A 
ATOM     17 CL   UNL     1       2.276   8.666  17.785  0.00  0.00    +0.000 Cl
ATOM     18  C   UNL     1       0.841   9.228  20.057  0.00  0.00    +0.000 A 
ATOM     19 CL   UNL     1       1.655   7.957  20.899  0.00  0.00    +0.000 Cl
ATOM     20  C   UNL     1      -0.110   9.967  20.763  0.00  0.00    +0.000 A 
ENDBRANCH   3  13
BRANCH  11  21
ATOM     21  C   UNL     1      -5.335  12.853  20.556  0.00  0.00    +0.000 A 
ATOM     22  C   UNL     1      -5.204  12.129  19.364  0.00  0.00    +0.000 A 
ATOM     23  C   UNL     1      -5.769  12.565  18.165  0.00  0.00    +0.000 A 
ATOM     24  C   UNL     1      -6.481  13.755  18.145  0.00  0.00    +0.000 A 
ATOM     25 BR   UNL     1      -7.249  14.345  16.518  0.00  0.00    +0.000 Br
ATOM     26  C   UNL     1      -6.632  14.502  19.303  0.00  0.00    +0.000 A 
ATOM     27  C   UNL     1      -6.063  14.046  20.500  0.00  0.00    +0.000 A 
ENDBRANCH  11  21
TORSDOF 2
ENDMDL
MODEL 7
REMARK VINA RESULT:      -6.6      9.299     11.015
REMARK  Name = 
REMARK  2 active torsions:
REMARK  status: ('A' for Active; 'I' for Inactive)
REMARK    1  A    between atoms: N_3  and  C_4
REMARK    2  A    between atoms: N_19  and  C_20
REMARK                            x       y       z     vdW  Elec       q    Type
REMARK                         _______ _______ _______ _____ _____    ______ ____
ROOT
ATOM      1  O   UNL     1       9.004  10.967  21.430  0.00  0.00    +0.000 OA
ATOM      2  C   UNL     1       8.936  12.173  21.208  0.00  0.00    +0.000 C 
ATOM      3  N   UNL     1       8.556  13.121  22.159  0.00  0.00    +0.000 N 
ATOM      4  N   UNL     1       9.172  12.730  19.948  0.00  0.00    +0.000 N 
ATOM      5  C   UNL     1       9.426  11.849  18.817  0.00  0.00    +0.000 C 
ATOM      6  C   UNL     1      10.909  11.680  18.464  0.00  0.00    +0.000 C 
ATOM      7  C   UNL     1      11.530  12.949  17.877  0.00  0.00    +0.000 C 
ATOM      8  C   UNL     1      11.983  13.996  18.899  0.00  0.00    +0.000 C 
ATOM      9  C   UNL     1      11.116  14.158  20.145  0.00  0.00    +0.000 C 
ATOM     10  C   UNL     1       9.637  14.022  19.846  0.00  0.00    +0.000 C 
ATOM     11  N   UNL     1       8.933  15.052  19.506  0.00  0.00    +0.000 NA
ATOM     12  H   UNL     1       8.166  13.975  21.776  0.00  0.00    +0.000 HD
ENDROOT
BRANCH   3  13
ATOM     13  C   UNL     1       8.125  12.778  23.453  0.00  0.00    +0.000 A 
ATOM     14  C   UNL     1       7.148  11.789  23.596  0.00  0.00    +0.000 A 
ATOM     15  C   UNL     1       6.726  11.412  24.874  0.00  0.00    +0.000 A 
ATOM     16  C   UNL     1       7.236  12.062  26.002  0.00  0.00    +0.000 A 
ATOM     17 CL   UNL     1       6.650  11.568  27.549  0.00  0.00    +0.000 Cl
ATOM     18  C   UNL     1       8.185  13.080  25.848  0.00  0.00    +0.000 A 
ATOM     19 CL   UNL     1       8.809  13.974  27.189  0.00  0.00    +0.000 Cl
ATOM     20  C   UNL     1       8.645  13.417  24.574  0.00  0.00    +0.000 A 
ENDBRANCH   3  13
BRANCH  11  21
ATOM     21  C   UNL     1       7.570  15.042  19.151  0.00  0.00    +0.000 A 
ATOM     22  C   UNL     1       7.033  14.672  17.911  0.00  0.00    +0.000 A 
ATOM     23  C   UNL     1       5.657  14.621  17.683  0.00  0.00    +0.000 A 
ATOM     24  C   UNL     1       4.787  14.951  18.712  0.00  0.00    +0.000 A 
ATOM     25 BR   UNL     1       2.921  14.880  18.402  0.00  0.00    +0.000 Br
ATOM     26  C   UNL     1       5.279  15.323  19.954  0.00  0.00    +0.000 A 
ATOM     27  C   UNL     1       6.663  15.362  20.167  0.00  0.00    +0.000 A 
ENDBRANCH  11  21
TORSDOF 2
ENDMDL
MODEL 8
REMARK VINA RESULT:      -6.5      4.936      9.162
REMARK  Name = 
REMARK  2 active torsions:
REMARK  status: ('A' for Active; 'I' for Inactive)
REMARK    1  A    between atoms: N_3  and  C_4
REMARK    2  A    between atoms: N_19  and  C_20
REMARK                            x       y       z     vdW  Elec       q    Type
REMARK                         _______ _______ _______ _____ _____    ______ ____
ROOT
ATOM      1  O   UNL     1       2.513  11.237  18.366  0.00  0.00    +0.000 OA
ATOM      2  C   UNL     1       1.392  10.959  18.784  0.00  0.00    +0.000 C 
ATOM      3  N   UNL     1       0.986   9.670  19.132  0.00  0.00    +0.000 N 
ATOM      4  N   UNL     1       0.367  11.903  18.899  0.00  0.00    +0.000 N 
ATOM      5  C   UNL     1       0.594  13.261  18.425  0.00  0.00    +0.000 C 
ATOM      6  C   UNL     1       0.958  14.266  19.526  0.00  0.00    +0.000 C 
ATOM      7  C   UNL     1      -0.211  14.570  20.465  0.00  0.00    +0.000 C 
ATOM      8  C   UNL     1      -0.436  13.554  21.589  0.00  0.00    +0.000 C 
ATOM      9  C   UNL     1      -0.180  12.088  21.249  0.00  0.00    +0.000 C 
ATOM     10  C   UNL     1      -0.619  11.731  19.844  0.00  0.00    +0.000 C 
ATOM     11  N   UNL     1      -1.827  11.334  19.609  0.00  0.00    +0.000 NA
ATOM     12  H   UNL     1      -0.013   9.510  19.076  0.00  0.00    +0.000 HD
ENDROOT
BRANCH   3  13
ATOM     13  C   UNL     1       1.800   8.537  18.955  0.00  0.00    +0.000 A 
ATOM     14  C   UNL     1       1.842   7.574  19.966  0.00  0.00    +0.000 A 
ATOM     15  C   UNL     1       2.622   6.426  19.798  0.00  0.00    +0.000 A 
ATOM     16  C   UNL     1       3.403   6.271  18.649  0.00  0.00    +0.000 A 
ATOM     17 CL   UNL     1       4.366   4.844  18.518  0.00  0.00    +0.000 Cl
ATOM     18  C   UNL     1       3.387   7.260  17.658  0.00  0.00    +0.000 A 
ATOM     19 CL   UNL     1       4.376   7.170  16.244  0.00  0.00    +0.000 Cl
ATOM     20  C   UNL     1       2.565   8.379  17.803  0.00  0.00    +0.000 A 
ENDBRANCH   3  13
BRANCH  11  21
ATOM     21  C   UNL     1      -2.366  11.029  18.344  0.00  0.00    +0.000 A 
ATOM     22  C   UNL     1      -3.414  11.699  17.699  0.00  0.00    +0.000 A 
ATOM     23  C   UNL     1      -3.825  11.368  16.408  0.00  0.00    +0.000 A 
ATOM     24  C   UNL     1      -3.182  10.339  15.736  0.00  0.00    +0.000 A 
ATOM     25 BR   UNL     1      -3.740   9.890  13.983  0.00  0.00    +0.000 Br
ATOM     26  C   UNL     1      -2.141   9.649  16.339  0.00  0.00    +0.000 A 
ATOM     27  C   UNL     1      -1.738  10.000  17.634  0.00  0.00    +0.000 A 
ENDBRANCH  11  21
TORSDOF 2
ENDMDL
MODEL 9
REMARK VINA RESULT:      -6.5      5.416      9.454
REMARK  Name = 
REMARK  2 active torsions:
REMARK  status: ('A' for Active; 'I' for Inactive)
REMARK    1  A    between atoms: N_3  and  C_4
REMARK    2  A    between atoms: N_19  and  C_20
REMARK                            x       y       z     vdW  Elec       q    Type
REMARK                         _______ _______ _______ _____ _____    ______ ____
ROOT
ATOM      1  O   UNL     1       0.462  10.587  22.315  0.00  0.00    +0.000 OA
ATOM      2  C   UNL     1       0.222  11.094  21.222  0.00  0.00    +0.000 C 
ATOM      3  N   UNL     1       0.460  10.463  20.000  0.00  0.00    +0.000 N 
ATOM      4  N   UNL     1      -0.263  12.397  21.078  0.00  0.00    +0.000 N 
ATOM      5  C   UNL     1      -0.414  13.236  22.258  0.00  0.00    +0.000 C 
ATOM      6  C   UNL     1      -1.843  13.304  22.811  0.00  0.00    +0.000 C 
ATOM      7  C   UNL     1      -2.800  14.068  21.894  0.00  0.00    +0.000 C 
ATOM      8  C   UNL     1      -3.384  13.262  20.730  0.00  0.00    +0.000 C 
ATOM      9  C   UNL     1      -2.460  12.240  20.073  0.00  0.00    +0.000 C 
ATOM     10  C   UNL     1      -1.028  12.725  19.980  0.00  0.00    +0.000 C 
ATOM     11  N   UNL     1      -0.624  13.403  18.956  0.00  0.00    +0.000 NA
ATOM     12  H   UNL     1       0.598  11.093  19.218  0.00  0.00    +0.000 HD
ENDROOT
BRANCH   3  13
ATOM     13  C   UNL     1       1.086   9.209  19.896  0.00  0.00    +0.000 A 
ATOM     14  C   UNL     1       0.952   8.300  20.950  0.00  0.00    +0.000 A 
ATOM     15  C   UNL     1       1.542   7.037  20.855  0.00  0.00    +0.000 A 
ATOM     16  C   UNL     1       2.313   6.705  19.737  0.00  0.00    +0.000 A 
ATOM     17 CL   UNL     1       3.038   5.138  19.696  0.00  0.00    +0.000 Cl
ATOM     18  C   UNL     1       2.475   7.635  18.703  0.00  0.00    +0.000 A 
ATOM     19 CL   UNL     1       3.468   7.321  17.324  0.00  0.00    +0.000 Cl
ATOM     20  C   UNL     1       1.840   8.876  18.775  0.00  0.00    +0.000 A 
ENDBRANCH   3  13
BRANCH  11  21
ATOM     21  C   UNL     1       0.661  13.954  18.782  0.00  0.00    +0.000 A 
ATOM     22  C   UNL     1       1.075  15.241  19.151  0.00  0.00    +0.000 A 
ATOM     23  C   UNL     1       2.396  15.666  19.007  0.00  0.00    +0.000 A 
ATOM     24  C   UNL     1       3.335  14.793  18.478  0.00  0.00    +0.000 A 
ATOM     25 BR   UNL     1       5.127  15.370  18.284  0.00  0.00    +0.000 Br
ATOM     26  C   UNL     1       2.966  13.511  18.098  0.00  0.00    +0.000 A 
ATOM     27  C   UNL     1       1.636  13.099  18.257  0.00  0.00    +0.000 A 
ENDBRANCH  11  21
TORSDOF 2
ENDMDL
