MODEL 1
REMARK VINA RESULT:      -7.2      0.000      0.000
REMARK  Name = 
REMARK  3 active torsions:
REMARK  status: ('A' for Active; 'I' for Inactive)
REMARK    1  A    between atoms: C_1  and  C_2
REMARK    2  A    between atoms: C_9  and  O_10
REMARK    3  A    between atoms: C_11  and  O_12
REMARK                            x       y       z     vdW  Elec       q    Type
REMARK                         _______ _______ _______ _____ _____    ______ ____
ROOT
ATOM      1  C   UNL     1       3.816   7.415  17.392  0.00  0.00    +0.000 C 
ATOM      2  C   UNL     1       4.541   6.136  17.730  0.00  0.00    +0.000 A 
ATOM      3  C   UNL     1       5.881   6.016  17.801  0.00  0.00    +0.000 A 
ATOM      4 CL   UNL     1       6.948   7.345  17.463  0.00  0.00    +0.000 Cl
ATOM      5  C   UNL     1       6.566   4.749  18.174  0.00  0.00    +0.000 A 
ATOM      6  O   UNL     1       7.786   4.624  18.202  0.00  0.00    +0.000 OA
ATOM      7  O   UNL     1       5.749   3.682  18.522  0.00  0.00    +0.000 OA
ATOM      8  C   UNL     1       4.354   3.759  18.396  0.00  0.00    +0.000 A 
ATOM      9  C   UNL     1       3.637   2.594  18.663  0.00  0.00    +0.000 A 
ATOM     10  C   UNL     1       2.260   2.585  18.507  0.00  0.00    +0.000 A 
ATOM     11  C   UNL     1       1.594   3.731  18.106  0.00  0.00    +0.000 A 
ATOM     12  C   UNL     1       2.320   4.905  17.861  0.00  0.00    +0.000 A 
ATOM     13  C   UNL     1       3.719   4.937  17.998  0.00  0.00    +0.000 A 
ENDROOT
BRANCH   9  14
ATOM     14  O   UNL     1       4.252   1.441  19.073  0.00  0.00    +0.000 OA
ATOM     15  H   UNL     1       4.353   1.506  20.043  0.00  0.00    +0.000 HD
ENDBRANCH   9  14
BRANCH  10  16
ATOM     16  O   UNL     1       1.549   1.445  18.740  0.00  0.00    +0.000 OA
ATOM     17  H   UNL     1       2.184   0.716  18.593  0.00  0.00    +0.000 HD
ENDBRANCH  10  16
TORSDOF 2
ENDMDL
MODEL 2
REMARK VINA RESULT:      -7.2      1.179      1.194
REMARK  Name = 
REMARK  3 active torsions:
REMARK  status: ('A' for Active; 'I' for Inactive)
REMARK    1  A    between atoms: C_1  and  C_2
REMARK    2  A    between atoms: C_9  and  O_10
REMARK    3  A    between atoms: C_11  and  O_12
REMARK                            x       y       z     vdW  Elec       q    Type
REMARK                         _______ _______ _______ _____ _____    ______ ____
ROOT
ATOM      1  C   UNL     1       4.834   6.900  16.163  0.00  0.00    +0.000 C 
ATOM      2  C   UNL     1       5.399   6.013  17.244  0.00  0.00    +0.000 A 
ATOM      3  C   UNL     1       6.554   6.249  17.895  0.00  0.00    +0.000 A 
ATOM      4 CL   UNL     1       7.565   7.613  17.524  0.00  0.00    +0.000 Cl
ATOM      5  C   UNL     1       7.067   5.374  18.984  0.00  0.00    +0.000 A 
ATOM      6  O   UNL     1       8.138   5.563  19.554  0.00  0.00    +0.000 OA
ATOM      7  O   UNL     1       6.255   4.314  19.362  0.00  0.00    +0.000 OA
ATOM      8  C   UNL     1       5.081   4.007  18.660  0.00  0.00    +0.000 A 
ATOM      9  C   UNL     1       4.401   2.854  19.050  0.00  0.00    +0.000 A 
ATOM     10  C   UNL     1       3.262   2.465  18.364  0.00  0.00    +0.000 A 
ATOM     11  C   UNL     1       2.786   3.224  17.309  0.00  0.00    +0.000 A 
ATOM     12  C   UNL     1       3.462   4.394  16.937  0.00  0.00    +0.000 A 
ATOM     13  C   UNL     1       4.629   4.804  17.606  0.00  0.00    +0.000 A 
ENDROOT
BRANCH   9  14
ATOM     14  O   UNL     1       4.827   2.080  20.096  0.00  0.00    +0.000 OA
ATOM     15  H   UNL     1       5.780   2.263  20.211  0.00  0.00    +0.000 HD
ENDBRANCH   9  14
BRANCH  10  16
ATOM     16  O   UNL     1       2.601   1.326  18.719  0.00  0.00    +0.000 OA
ATOM     17  H   UNL     1       2.783   1.214  19.674  0.00  0.00    +0.000 HD
ENDBRANCH  10  16
TORSDOF 2
ENDMDL
MODEL 3
REMARK VINA RESULT:      -7.2      2.381      4.507
REMARK  Name = 
REMARK  3 active torsions:
REMARK  status: ('A' for Active; 'I' for Inactive)
REMARK    1  A    between atoms: C_1  and  C_2
REMARK    2  A    between atoms: C_9  and  O_10
REMARK    3  A    between atoms: C_11  and  O_12
REMARK                            x       y       z     vdW  Elec       q    Type
REMARK                         _______ _______ _______ _____ _____    ______ ____
ROOT
ATOM      1  C   UNL     1       1.673   4.695  17.963  0.00  0.00    +0.000 C 
ATOM      2  C   UNL     1       3.014   4.233  18.477  0.00  0.00    +0.000 A 
ATOM      3  C   UNL     1       3.186   3.238  19.368  0.00  0.00    +0.000 A 
ATOM      4 CL   UNL     1       1.846   2.382  20.070  0.00  0.00    +0.000 Cl
ATOM      5  C   UNL     1       4.525   2.780  19.829  0.00  0.00    +0.000 A 
ATOM      6  O   UNL     1       4.686   1.901  20.669  0.00  0.00    +0.000 OA
ATOM      7  O   UNL     1       5.625   3.388  19.238  0.00  0.00    +0.000 OA
ATOM      8  C   UNL     1       5.476   4.469  18.357  0.00  0.00    +0.000 A 
ATOM      9  C   UNL     1       6.648   5.079  17.911  0.00  0.00    +0.000 A 
ATOM     10  C   UNL     1       6.572   6.185  17.081  0.00  0.00    +0.000 A 
ATOM     11  C   UNL     1       5.341   6.674  16.677  0.00  0.00    +0.000 A 
ATOM     12  C   UNL     1       4.168   6.042  17.110  0.00  0.00    +0.000 A 
ATOM     13  C   UNL     1       4.216   4.926  17.966  0.00  0.00    +0.000 A 
ENDROOT
BRANCH   9  14
ATOM     14  O   UNL     1       7.886   4.622  18.275  0.00  0.00    +0.000 OA
ATOM     15  H   UNL     1       8.535   5.270  17.936  0.00  0.00    +0.000 HD
ENDBRANCH   9  14
BRANCH  10  16
ATOM     16  O   UNL     1       7.709   6.807  16.658  0.00  0.00    +0.000 OA
ATOM     17  H   UNL     1       7.437   7.723  16.452  0.00  0.00    +0.000 HD
ENDBRANCH  10  16
TORSDOF 2
ENDMDL
MODEL 4
REMARK VINA RESULT:      -7.1      2.119      2.342
REMARK  Name = 
REMARK  3 active torsions:
REMARK  status: ('A' for Active; 'I' for Inactive)
REMARK    1  A    between atoms: C_1  and  C_2
REMARK    2  A    between atoms: C_9  and  O_10
REMARK    3  A    between atoms: C_11  and  O_12
REMARK                            x       y       z     vdW  Elec       q    Type
REMARK                         _______ _______ _______ _____ _____    ______ ____
ROOT
ATOM      1  C   UNL     1       4.963   3.995  15.701  0.00  0.00    +0.000 C 
ATOM      2  C   UNL     1       5.002   4.342  17.169  0.00  0.00    +0.000 A 
ATOM      3  C   UNL     1       6.103   4.761  17.822  0.00  0.00    +0.000 A 
ATOM      4 CL   UNL     1       7.644   4.915  17.036  0.00  0.00    +0.000 Cl
ATOM      5  C   UNL     1       6.101   5.132  19.264  0.00  0.00    +0.000 A 
ATOM      6  O   UNL     1       7.109   5.477  19.873  0.00  0.00    +0.000 OA
ATOM      7  O   UNL     1       4.875   5.093  19.912  0.00  0.00    +0.000 OA
ATOM      8  C   UNL     1       3.727   4.600  19.275  0.00  0.00    +0.000 A 
ATOM      9  C   UNL     1       2.574   4.498  20.053  0.00  0.00    +0.000 A 
ATOM     10  C   UNL     1       1.419   3.969  19.500  0.00  0.00    +0.000 A 
ATOM     11  C   UNL     1       1.398   3.561  18.177  0.00  0.00    +0.000 A 
ATOM     12  C   UNL     1       2.555   3.688  17.395  0.00  0.00    +0.000 A 
ATOM     13  C   UNL     1       3.745   4.207  17.935  0.00  0.00    +0.000 A 
ENDROOT
BRANCH   9  14
ATOM     14  O   UNL     1       2.544   4.900  21.361  0.00  0.00    +0.000 OA
ATOM     15  H   UNL     1       2.493   4.089  21.904  0.00  0.00    +0.000 HD
ENDBRANCH   9  14
BRANCH  10  16
ATOM     16  O   UNL     1       0.292   3.840  20.257  0.00  0.00    +0.000 OA
ATOM     17  H   UNL     1       0.245   2.890  20.483  0.00  0.00    +0.000 HD
ENDBRANCH  10  16
TORSDOF 2
ENDMDL
MODEL 5
REMARK VINA RESULT:      -6.8      2.555      4.480
REMARK  Name = 
REMARK  3 active torsions:
REMARK  status: ('A' for Active; 'I' for Inactive)
REMARK    1  A    between atoms: C_1  and  C_2
REMARK    2  A    between atoms: C_9  and  O_10
REMARK    3  A    between atoms: C_11  and  O_12
REMARK                            x       y       z     vdW  Elec       q    Type
REMARK                         _______ _______ _______ _____ _____    ______ ____
ROOT
ATOM      1  C   UNL     1       2.436   6.625  19.288  0.00  0.00    +0.000 C 
ATOM      2  C   UNL     1       2.953   5.330  18.714  0.00  0.00    +0.000 A 
ATOM      3  C   UNL     1       2.436   4.116  18.987  0.00  0.00    +0.000 A 
ATOM      4 CL   UNL     1       1.110   3.902  20.089  0.00  0.00    +0.000 Cl
ATOM      5  C   UNL     1       2.945   2.859  18.375  0.00  0.00    +0.000 A 
ATOM      6  O   UNL     1       2.503   1.748  18.650  0.00  0.00    +0.000 OA
ATOM      7  O   UNL     1       3.956   2.993  17.434  0.00  0.00    +0.000 OA
ATOM      8  C   UNL     1       4.556   4.234  17.178  0.00  0.00    +0.000 A 
ATOM      9  C   UNL     1       5.639   4.237  16.299  0.00  0.00    +0.000 A 
ATOM     10  C   UNL     1       6.311   5.422  16.043  0.00  0.00    +0.000 A 
ATOM     11  C   UNL     1       5.901   6.603  16.639  0.00  0.00    +0.000 A 
ATOM     12  C   UNL     1       4.797   6.596  17.503  0.00  0.00    +0.000 A 
ATOM     13  C   UNL     1       4.106   5.405  17.792  0.00  0.00    +0.000 A 
ENDROOT
BRANCH   9  14
ATOM     14  O   UNL     1       6.072   3.097  15.678  0.00  0.00    +0.000 OA
ATOM     15  H   UNL     1       6.359   3.357  14.781  0.00  0.00    +0.000 HD
ENDBRANCH   9  14
BRANCH  10  16
ATOM     16  O   UNL     1       7.387   5.434  15.206  0.00  0.00    +0.000 OA
ATOM     17  H   UNL     1       7.881   6.245  15.440  0.00  0.00    +0.000 HD
ENDBRANCH  10  16
TORSDOF 2
ENDMDL
MODEL 6
REMARK VINA RESULT:      -6.7      2.699      4.388
REMARK  Name = 
REMARK  3 active torsions:
REMARK  status: ('A' for Active; 'I' for Inactive)
REMARK    1  A    between atoms: C_1  and  C_2
REMARK    2  A    between atoms: C_9  and  O_10
REMARK    3  A    between atoms: C_11  and  O_12
REMARK                            x       y       z     vdW  Elec       q    Type
REMARK                         _______ _______ _______ _____ _____    ______ ____
ROOT
ATOM      1  C   UNL     1       1.368   4.998  20.121  0.00  0.00    +0.000 C 
ATOM      2  C   UNL     1       2.719   4.354  19.935  0.00  0.00    +0.000 A 
ATOM      3  C   UNL     1       3.141   3.264  20.604  0.00  0.00    +0.000 A 
ATOM      4 CL   UNL     1       2.166   2.485  21.813  0.00  0.00    +0.000 Cl
ATOM      5  C   UNL     1       4.467   2.630  20.372  0.00  0.00    +0.000 A 
ATOM      6  O   UNL     1       4.872   1.660  21.006  0.00  0.00    +0.000 OA
ATOM      7  O   UNL     1       5.248   3.177  19.364  0.00  0.00    +0.000 OA
ATOM      8  C   UNL     1       4.863   4.349  18.696  0.00  0.00    +0.000 A 
ATOM      9  C   UNL     1       5.773   4.877  17.782  0.00  0.00    +0.000 A 
ATOM     10  C   UNL     1       5.478   6.061  17.126  0.00  0.00    +0.000 A 
ATOM     11  C   UNL     1       4.277   6.710  17.359  0.00  0.00    +0.000 A 
ATOM     12  C   UNL     1       3.356   6.161  18.262  0.00  0.00    +0.000 A 
ATOM     13  C   UNL     1       3.637   4.968  18.953  0.00  0.00    +0.000 A 
ENDROOT
BRANCH   9  14
ATOM     14  O   UNL     1       6.967   4.263  17.510  0.00  0.00    +0.000 OA
ATOM     15  H   UNL     1       7.396   4.090  18.371  0.00  0.00    +0.000 HD
ENDBRANCH   9  14
BRANCH  10  16
ATOM     16  O   UNL     1       6.371   6.602  16.249  0.00  0.00    +0.000 OA
ATOM     17  H   UNL     1       6.310   6.044  15.448  0.00  0.00    +0.000 HD
ENDBRANCH  10  16
TORSDOF 2
ENDMDL
MODEL 7
REMARK VINA RESULT:      -6.7      1.986      2.058
REMARK  Name = 
REMARK  3 active torsions:
REMARK  status: ('A' for Active; 'I' for Inactive)
REMARK    1  A    between atoms: C_1  and  C_2
REMARK    2  A    between atoms: C_9  and  O_10
REMARK    3  A    between atoms: C_11  and  O_12
REMARK                            x       y       z     vdW  Elec       q    Type
REMARK                         _______ _______ _______ _____ _____    ______ ____
ROOT
ATOM      1  C   UNL     1       2.961   7.594  17.815  0.00  0.00    +0.000 C 
ATOM      2  C   UNL     1       3.609   6.234  17.881  0.00  0.00    +0.000 A 
ATOM      3  C   UNL     1       4.525   5.784  17.002  0.00  0.00    +0.000 A 
ATOM      4 CL   UNL     1       5.044   6.729  15.640  0.00  0.00    +0.000 Cl
ATOM      5  C   UNL     1       5.174   4.449  17.116  0.00  0.00    +0.000 A 
ATOM      6  O   UNL     1       5.980   4.019  16.297  0.00  0.00    +0.000 OA
ATOM      7  O   UNL     1       4.843   3.691  18.230  0.00  0.00    +0.000 OA
ATOM      8  C   UNL     1       3.846   4.106  19.125  0.00  0.00    +0.000 A 
ATOM      9  C   UNL     1       3.511   3.217  20.145  0.00  0.00    +0.000 A 
ATOM     10  C   UNL     1       2.498   3.542  21.033  0.00  0.00    +0.000 A 
ATOM     11  C   UNL     1       1.832   4.751  20.924  0.00  0.00    +0.000 A 
ATOM     12  C   UNL     1       2.190   5.650  19.910  0.00  0.00    +0.000 A 
ATOM     13  C   UNL     1       3.204   5.339  18.986  0.00  0.00    +0.000 A 
ENDROOT
BRANCH   9  14
ATOM     14  O   UNL     1       4.150   2.016  20.299  0.00  0.00    +0.000 OA
ATOM     15  H   UNL     1       4.981   2.072  19.789  0.00  0.00    +0.000 HD
ENDBRANCH   9  14
BRANCH  10  16
ATOM     16  O   UNL     1       2.142   2.670  22.019  0.00  0.00    +0.000 OA
ATOM     17  H   UNL     1       2.914   2.639  22.620  0.00  0.00    +0.000 HD
ENDBRANCH  10  16
TORSDOF 2
ENDMDL
MODEL 8
REMARK VINA RESULT:      -6.6      1.026      1.026
REMARK  Name = 
REMARK  3 active torsions:
REMARK  status: ('A' for Active; 'I' for Inactive)
REMARK    1  A    between atoms: C_1  and  C_2
REMARK    2  A    between atoms: C_9  and  O_10
REMARK    3  A    between atoms: C_11  and  O_12
REMARK                            x       y       z     vdW  Elec       q    Type
REMARK                         _______ _______ _______ _____ _____    ______ ____
ROOT
ATOM      1  C   UNL     1       3.827   7.404  17.389  0.00  0.00    +0.000 C 
ATOM      2  C   UNL     1       4.547   6.204  17.954  0.00  0.00    +0.000 A 
ATOM      3  C   UNL     1       5.875   6.002  17.866  0.00  0.00    +0.000 A 
ATOM      4 CL   UNL     1       6.927   7.110  17.038  0.00  0.00    +0.000 Cl
ATOM      5  C   UNL     1       6.561   4.825  18.466  0.00  0.00    +0.000 A 
ATOM      6  O   UNL     1       7.765   4.617  18.356  0.00  0.00    +0.000 OA
ATOM      7  O   UNL     1       5.768   3.953  19.199  0.00  0.00    +0.000 OA
ATOM      8  C   UNL     1       4.375   4.103  19.253  0.00  0.00    +0.000 A 
ATOM      9  C   UNL     1       3.664   3.107  19.922  0.00  0.00    +0.000 A 
ATOM     10  C   UNL     1       2.280   3.167  19.967  0.00  0.00    +0.000 A 
ATOM     11  C   UNL     1       1.604   4.217  19.371  0.00  0.00    +0.000 A 
ATOM     12  C   UNL     1       2.327   5.227  18.721  0.00  0.00    +0.000 A 
ATOM     13  C   UNL     1       3.731   5.184  18.647  0.00  0.00    +0.000 A 
ENDROOT
BRANCH   9  14
ATOM     14  O   UNL     1       4.290   2.057  20.536  0.00  0.00    +0.000 OA
ATOM     15  H   UNL     1       5.147   1.936  20.082  0.00  0.00    +0.000 HD
ENDBRANCH   9  14
BRANCH  10  16
ATOM     16  O   UNL     1       1.571   2.186  20.595  0.00  0.00    +0.000 OA
ATOM     17  H   UNL     1       0.863   2.655  21.080  0.00  0.00    +0.000 HD
ENDBRANCH  10  16
TORSDOF 2
ENDMDL
MODEL 9
REMARK VINA RESULT:      -6.5      3.106      4.939
REMARK  Name = 
REMARK  3 active torsions:
REMARK  status: ('A' for Active; 'I' for Inactive)
REMARK    1  A    between atoms: C_1  and  C_2
REMARK    2  A    between atoms: C_9  and  O_10
REMARK    3  A    between atoms: C_11  and  O_12
REMARK                            x       y       z     vdW  Elec       q    Type
REMARK                         _______ _______ _______ _____ _____    ______ ____
ROOT
ATOM      1  C   UNL     1       2.732   2.359  17.780  0.00  0.00    +0.000 C 
ATOM      2  C   UNL     1       3.188   3.788  17.946  0.00  0.00    +0.000 A 
ATOM      3  C   UNL     1       2.610   4.680  18.772  0.00  0.00    +0.000 A 
ATOM      4 CL   UNL     1       1.217   4.285  19.733  0.00  0.00    +0.000 Cl
ATOM      5  C   UNL     1       3.106   6.073  18.941  0.00  0.00    +0.000 A 
ATOM      6  O   UNL     1       2.560   6.901  19.664  0.00  0.00    +0.000 OA
ATOM      7  O   UNL     1       4.261   6.408  18.248  0.00  0.00    +0.000 OA
ATOM      8  C   UNL     1       4.845   5.522  17.331  0.00  0.00    +0.000 A 
ATOM      9  C   UNL     1       5.934   6.001  16.605  0.00  0.00    +0.000 A 
ATOM     10  C   UNL     1       6.526   5.195  15.646  0.00  0.00    +0.000 A 
ATOM     11  C   UNL     1       6.056   3.912  15.421  0.00  0.00    +0.000 A 
ATOM     12  C   UNL     1       4.975   3.429  16.172  0.00  0.00    +0.000 A 
ATOM     13  C   UNL     1       4.346   4.231  17.141  0.00  0.00    +0.000 A 
ENDROOT
BRANCH   9  14
ATOM     14  O   UNL     1       6.442   7.257  16.801  0.00  0.00    +0.000 OA
ATOM     15  H   UNL     1       6.029   7.602  17.617  0.00  0.00    +0.000 HD
ENDBRANCH   9  14
BRANCH  10  16
ATOM     16  O   UNL     1       7.576   5.660  14.909  0.00  0.00    +0.000 OA
ATOM     17  H   UNL     1       7.572   6.629  15.046  0.00  0.00    +0.000 HD
ENDBRANCH  10  16
TORSDOF 2
ENDMDL
