MODEL 1
REMARK VINA RESULT:      -7.7      0.000      0.000
REMARK  Name = 
REMARK  10 active torsions:
REMARK  status: ('A' for Active; 'I' for Inactive)
REMARK    1  A    between atoms: C_2  and  C_3
REMARK    2  A    between atoms: C_3  and  C_4
REMARK    3  A    between atoms: C_6  and  C_7
REMARK    4  A    between atoms: C_7  and  C_8
REMARK    5  A    between atoms: C_7  and  C_9
REMARK    6  A    between atoms: C_9  and  C_10
REMARK    7  A    between atoms: C_13  and  O_14
REMARK    8  A    between atoms: O_14  and  C_15
REMARK    9  A    between atoms: C_16  and  O_17
REMARK   10  A    between atoms: O_17  and  C_18
REMARK                            x       y       z     vdW  Elec       q    Type
REMARK                         _______ _______ _______ _____ _____    ______ ____
ROOT
ATOM      1  C   UNL     1       2.949   6.336  19.182  0.00  0.00    +0.000 C 
ATOM      2  C   UNL     1       2.277   5.273  18.294  0.00  0.00    +0.000 C 
ATOM      3  C   UNL     1       2.240   3.874  18.984  0.00  0.00    +0.000 C 
ATOM      4  O   UNL     1       0.993   3.152  18.758  0.00  0.00    +0.000 OA
ATOM      5  C   UNL     1       0.950   2.231  19.868  0.00  0.00    +0.000 C 
ATOM      6  O   UNL     1       1.412   2.913  21.033  0.00  0.00    +0.000 OA
ATOM      7  C   UNL     1       1.973   4.055  20.468  0.00  0.00    +0.000 C 
ATOM      8  C   UNL     1       1.708   5.243  21.053  0.00  0.00    +0.000 C 
ATOM      9  C   UNL     1       1.983   6.507  20.321  0.00  0.00    +0.000 C 
ATOM     10  O   UNL     1       1.435   7.556  20.651  0.00  0.00    +0.000 OA
ENDROOT
BRANCH   3  11
ATOM     11  C   UNL     1       3.327   2.927  18.249  0.00  0.00    +0.000 C 
ATOM     12  C   UNL     1       4.522   2.614  19.148  0.00  0.00    +0.000 C 
BRANCH  11  13
ATOM     13  C   UNL     1       3.625   3.666  16.874  0.00  0.00    +0.000 C 
BRANCH  13  14
ATOM     14  C   UNL     1       4.804   4.315  16.208  0.00  0.00    +0.000 A 
ATOM     15  C   UNL     1       5.015   3.880  14.878  0.00  0.00    +0.000 A 
ATOM     16  C   UNL     1       6.132   4.254  14.141  0.00  0.00    +0.000 A 
ATOM     17  C   UNL     1       7.103   5.067  14.711  0.00  0.00    +0.000 A 
ATOM     18  C   UNL     1       6.863   5.588  16.009  0.00  0.00    +0.000 A 
ATOM     19  C   UNL     1       5.708   5.212  16.741  0.00  0.00    +0.000 A 
BRANCH  17  20
ATOM     20  O   UNL     1       8.232   5.411  14.011  0.00  0.00    +0.000 OA
ATOM     21  C   UNL     1       8.054   5.581  12.602  0.00  0.00    +0.000 C 
ENDBRANCH  17  20
BRANCH  18  22
ATOM     22  O   UNL     1       7.639   6.461  16.728  0.00  0.00    +0.000 OA
ATOM     23  C   UNL     1       7.334   6.692  18.092  0.00  0.00    +0.000 C 
ENDBRANCH  18  22
ENDBRANCH  13  14
ENDBRANCH  11  13
ENDBRANCH   3  11
BRANCH   1  24
ATOM     24  C   UNL     1       3.319   7.557  18.338  0.00  0.00    +0.000 C 
BRANCH  24  26
ATOM     25  C   UNL     1       1.768   9.459  17.797  0.00  0.00    +0.000 C 
ATOM     26  C   UNL     1       2.197   8.208  17.577  0.00  0.00    +0.000 C 
ENDBRANCH  24  26
ENDBRANCH   1  24
TORSDOF 7
ENDMDL
MODEL 2
REMARK VINA RESULT:      -7.6      2.086      6.399
REMARK  Name = 
REMARK  10 active torsions:
REMARK  status: ('A' for Active; 'I' for Inactive)
REMARK    1  A    between atoms: C_2  and  C_3
REMARK    2  A    between atoms: C_3  and  C_4
REMARK    3  A    between atoms: C_6  and  C_7
REMARK    4  A    between atoms: C_7  and  C_8
REMARK    5  A    between atoms: C_7  and  C_9
REMARK    6  A    between atoms: C_9  and  C_10
REMARK    7  A    between atoms: C_13  and  O_14
REMARK    8  A    between atoms: O_14  and  C_15
REMARK    9  A    between atoms: C_16  and  O_17
REMARK   10  A    between atoms: O_17  and  C_18
REMARK                            x       y       z     vdW  Elec       q    Type
REMARK                         _______ _______ _______ _____ _____    ______ ____
ROOT
ATOM      1  C   UNL     1       5.413   5.852  16.960  0.00  0.00    +0.000 C 
ATOM      2  C   UNL     1       5.051   5.423  18.393  0.00  0.00    +0.000 C 
ATOM      3  C   UNL     1       4.048   4.229  18.411  0.00  0.00    +0.000 C 
ATOM      4  O   UNL     1       4.338   3.247  19.450  0.00  0.00    +0.000 OA
ATOM      5  C   UNL     1       3.702   2.053  18.949  0.00  0.00    +0.000 C 
ATOM      6  O   UNL     1       3.925   1.985  17.541  0.00  0.00    +0.000 OA
ATOM      7  C   UNL     1       4.390   3.271  17.283  0.00  0.00    +0.000 C 
ATOM      8  C   UNL     1       5.464   3.403  16.473  0.00  0.00    +0.000 C 
ATOM      9  C   UNL     1       6.206   4.689  16.432  0.00  0.00    +0.000 C 
ATOM     10  O   UNL     1       7.360   4.736  16.011  0.00  0.00    +0.000 OA
ENDROOT
BRANCH   3  11
ATOM     11  C   UNL     1       2.603   4.799  18.866  0.00  0.00    +0.000 C 
ATOM     12  C   UNL     1       1.536   4.585  17.794  0.00  0.00    +0.000 C 
BRANCH  11  13
ATOM     13  C   UNL     1       2.895   6.295  19.314  0.00  0.00    +0.000 C 
BRANCH  13  14
ATOM     14  C   UNL     1       2.163   7.605  19.313  0.00  0.00    +0.000 A 
ATOM     15  C   UNL     1       2.135   8.240  18.048  0.00  0.00    +0.000 A 
ATOM     16  C   UNL     1       1.631   9.521  17.868  0.00  0.00    +0.000 A 
ATOM     17  C   UNL     1       1.146  10.238  18.954  0.00  0.00    +0.000 A 
ATOM     18  C   UNL     1       1.078   9.584  20.212  0.00  0.00    +0.000 A 
ATOM     19  C   UNL     1       1.581   8.267  20.375  0.00  0.00    +0.000 A 
BRANCH  17  20
ATOM     20  O   UNL     1       0.682  11.520  18.801  0.00  0.00    +0.000 OA
ATOM     21  C   UNL     1      -0.721  11.640  18.546  0.00  0.00    +0.000 C 
ENDBRANCH  17  20
BRANCH  18  22
ATOM     22  O   UNL     1       0.571  10.067  21.392  0.00  0.00    +0.000 OA
ATOM     23  C   UNL     1       0.608   9.245  22.546  0.00  0.00    +0.000 C 
ENDBRANCH  18  22
ENDBRANCH  13  14
ENDBRANCH  11  13
ENDBRANCH   3  11
BRANCH   1  24
ATOM     24  C   UNL     1       6.059   7.238  16.981  0.00  0.00    +0.000 C 
BRANCH  24  26
ATOM     25  C   UNL     1       8.059   8.490  17.846  0.00  0.00    +0.000 C 
ATOM     26  C   UNL     1       7.407   7.337  17.639  0.00  0.00    +0.000 C 
ENDBRANCH  24  26
ENDBRANCH   1  24
TORSDOF 7
ENDMDL
MODEL 3
REMARK VINA RESULT:      -7.5      2.079      6.399
REMARK  Name = 
REMARK  10 active torsions:
REMARK  status: ('A' for Active; 'I' for Inactive)
REMARK    1  A    between atoms: C_2  and  C_3
REMARK    2  A    between atoms: C_3  and  C_4
REMARK    3  A    between atoms: C_6  and  C_7
REMARK    4  A    between atoms: C_7  and  C_8
REMARK    5  A    between atoms: C_7  and  C_9
REMARK    6  A    between atoms: C_9  and  C_10
REMARK    7  A    between atoms: C_13  and  O_14
REMARK    8  A    between atoms: O_14  and  C_15
REMARK    9  A    between atoms: C_16  and  O_17
REMARK   10  A    between atoms: O_17  and  C_18
REMARK                            x       y       z     vdW  Elec       q    Type
REMARK                         _______ _______ _______ _____ _____    ______ ____
ROOT
ATOM      1  C   UNL     1       6.537   5.874  17.943  0.00  0.00    +0.000 C 
ATOM      2  C   UNL     1       6.060   5.042  19.147  0.00  0.00    +0.000 C 
ATOM      3  C   UNL     1       4.646   4.428  18.910  0.00  0.00    +0.000 C 
ATOM      4  O   UNL     1       4.516   3.067  19.418  0.00  0.00    +0.000 OA
ATOM      5  C   UNL     1       3.423   2.538  18.638  0.00  0.00    +0.000 C 
ATOM      6  O   UNL     1       3.565   3.002  17.296  0.00  0.00    +0.000 OA
ATOM      7  C   UNL     1       4.524   3.996  17.459  0.00  0.00    +0.000 C 
ATOM      8  C   UNL     1       5.535   4.050  16.563  0.00  0.00    +0.000 C 
ATOM      9  C   UNL     1       6.751   4.847  16.866  0.00  0.00    +0.000 C 
ATOM     10  O   UNL     1       7.806   4.634  16.273  0.00  0.00    +0.000 OA
ENDROOT
BRANCH   3  11
ATOM     11  C   UNL     1       3.589   5.243  19.826  0.00  0.00    +0.000 C 
ATOM     12  C   UNL     1       2.613   4.313  20.544  0.00  0.00    +0.000 C 
BRANCH  11  13
ATOM     13  C   UNL     1       2.972   6.327  18.842  0.00  0.00    +0.000 C 
BRANCH  13  14
ATOM     14  C   UNL     1       2.242   7.633  18.965  0.00  0.00    +0.000 A 
ATOM     15  C   UNL     1       2.398   8.480  17.841  0.00  0.00    +0.000 A 
ATOM     16  C   UNL     1       1.920   9.784  17.819  0.00  0.00    +0.000 A 
ATOM     17  C   UNL     1       1.277  10.309  18.932  0.00  0.00    +0.000 A 
ATOM     18  C   UNL     1       1.028   9.446  20.032  0.00  0.00    +0.000 A 
ATOM     19  C   UNL     1       1.507   8.111  20.031  0.00  0.00    +0.000 A 
BRANCH  17  20
ATOM     20  O   UNL     1       0.835  11.608  18.942  0.00  0.00    +0.000 OA
ATOM     21  C   UNL     1       1.833  12.599  18.682  0.00  0.00    +0.000 C 
ENDBRANCH  17  20
BRANCH  18  22
ATOM     22  O   UNL     1       0.351   9.726  21.191  0.00  0.00    +0.000 OA
ATOM     23  C   UNL     1      -0.394   8.698  21.820  0.00  0.00    +0.000 C 
ENDBRANCH  18  22
ENDBRANCH  13  14
ENDBRANCH  11  13
ENDBRANCH   3  11
BRANCH   1  24
ATOM     24  C   UNL     1       7.710   6.763  18.359  0.00  0.00    +0.000 C 
BRANCH  24  26
ATOM     25  C   UNL     1       8.288   9.189  18.049  0.00  0.00    +0.000 C 
ATOM     26  C   UNL     1       7.935   8.001  17.537  0.00  0.00    +0.000 C 
ENDBRANCH  24  26
ENDBRANCH   1  24
TORSDOF 7
ENDMDL
MODEL 4
REMARK VINA RESULT:      -7.2      2.289      6.916
REMARK  Name = 
REMARK  10 active torsions:
REMARK  status: ('A' for Active; 'I' for Inactive)
REMARK    1  A    between atoms: C_2  and  C_3
REMARK    2  A    between atoms: C_3  and  C_4
REMARK    3  A    between atoms: C_6  and  C_7
REMARK    4  A    between atoms: C_7  and  C_8
REMARK    5  A    between atoms: C_7  and  C_9
REMARK    6  A    between atoms: C_9  and  C_10
REMARK    7  A    between atoms: C_13  and  O_14
REMARK    8  A    between atoms: O_14  and  C_15
REMARK    9  A    between atoms: C_16  and  O_17
REMARK   10  A    between atoms: O_17  and  C_18
REMARK                            x       y       z     vdW  Elec       q    Type
REMARK                         _______ _______ _______ _____ _____    ______ ____
ROOT
ATOM      1  C   UNL     1       5.430   5.906  16.914  0.00  0.00    +0.000 C 
ATOM      2  C   UNL     1       4.989   5.555  18.346  0.00  0.00    +0.000 C 
ATOM      3  C   UNL     1       3.957   4.386  18.370  0.00  0.00    +0.000 C 
ATOM      4  O   UNL     1       4.172   3.449  19.468  0.00  0.00    +0.000 OA
ATOM      5  C   UNL     1       3.533   2.246  18.993  0.00  0.00    +0.000 C 
ATOM      6  O   UNL     1       3.822   2.106  17.603  0.00  0.00    +0.000 OA
ATOM      7  C   UNL     1       4.330   3.367  17.307  0.00  0.00    +0.000 C 
ATOM      8  C   UNL     1       5.445   3.436  16.547  0.00  0.00    +0.000 C 
ATOM      9  C   UNL     1       6.220   4.702  16.482  0.00  0.00    +0.000 C 
ATOM     10  O   UNL     1       7.394   4.702  16.118  0.00  0.00    +0.000 OA
ENDROOT
BRANCH   3  11
ATOM     11  C   UNL     1       2.506   5.008  18.725  0.00  0.00    +0.000 C 
ATOM     12  C   UNL     1       1.443   4.611  17.702  0.00  0.00    +0.000 C 
BRANCH  11  13
ATOM     13  C   UNL     1       2.783   6.561  18.921  0.00  0.00    +0.000 C 
BRANCH  13  14
ATOM     14  C   UNL     1       2.068   7.737  19.520  0.00  0.00    +0.000 A 
ATOM     15  C   UNL     1       1.855   7.622  20.915  0.00  0.00    +0.000 A 
ATOM     16  C   UNL     1       1.091   8.536  21.630  0.00  0.00    +0.000 A 
ATOM     17  C   UNL     1       0.485   9.600  20.975  0.00  0.00    +0.000 A 
ATOM     18  C   UNL     1       0.765   9.785  19.595  0.00  0.00    +0.000 A 
ATOM     19  C   UNL     1       1.563   8.853  18.884  0.00  0.00    +0.000 A 
BRANCH  17  20
ATOM     20  O   UNL     1      -0.306  10.488  21.659  0.00  0.00    +0.000 OA
ATOM     21  C   UNL     1      -0.725  10.064  22.959  0.00  0.00    +0.000 C 
ENDBRANCH  17  20
BRANCH  18  22
ATOM     22  O   UNL     1       0.342  10.799  18.774  0.00  0.00    +0.000 OA
ATOM     23  C   UNL     1      -0.934  10.707  18.166  0.00  0.00    +0.000 C 
ENDBRANCH  18  22
ENDBRANCH  13  14
ENDBRANCH  11  13
ENDBRANCH   3  11
BRANCH   1  24
ATOM     24  C   UNL     1       6.108   7.277  16.901  0.00  0.00    +0.000 C 
BRANCH  24  26
ATOM     25  C   UNL     1       8.056   8.544  17.859  0.00  0.00    +0.000 C 
ATOM     26  C   UNL     1       7.398   7.391  17.664  0.00  0.00    +0.000 C 
ENDBRANCH  24  26
ENDBRANCH   1  24
TORSDOF 7
ENDMDL
MODEL 5
REMARK VINA RESULT:      -7.1      1.053      2.239
REMARK  Name = 
REMARK  10 active torsions:
REMARK  status: ('A' for Active; 'I' for Inactive)
REMARK    1  A    between atoms: C_2  and  C_3
REMARK    2  A    between atoms: C_3  and  C_4
REMARK    3  A    between atoms: C_6  and  C_7
REMARK    4  A    between atoms: C_7  and  C_8
REMARK    5  A    between atoms: C_7  and  C_9
REMARK    6  A    between atoms: C_9  and  C_10
REMARK    7  A    between atoms: C_13  and  O_14
REMARK    8  A    between atoms: O_14  and  C_15
REMARK    9  A    between atoms: C_16  and  O_17
REMARK   10  A    between atoms: O_17  and  C_18
REMARK                            x       y       z     vdW  Elec       q    Type
REMARK                         _______ _______ _______ _____ _____    ______ ____
ROOT
ATOM      1  C   UNL     1       2.498   6.017  18.996  0.00  0.00    +0.000 C 
ATOM      2  C   UNL     1       1.812   4.660  18.757  0.00  0.00    +0.000 C 
ATOM      3  C   UNL     1       2.239   3.594  19.813  0.00  0.00    +0.000 C 
ATOM      4  O   UNL     1       1.138   2.743  20.251  0.00  0.00    +0.000 OA
ATOM      5  C   UNL     1       1.592   2.270  21.537  0.00  0.00    +0.000 C 
ATOM      6  O   UNL     1       2.233   3.352  22.210  0.00  0.00    +0.000 OA
ATOM      7  C   UNL     1       2.382   4.263  21.169  0.00  0.00    +0.000 C 
ATOM      8  C   UNL     1       2.078   5.557  21.414  0.00  0.00    +0.000 C 
ATOM      9  C   UNL     1       1.888   6.500  20.282  0.00  0.00    +0.000 C 
ATOM     10  O   UNL     1       1.270   7.552  20.437  0.00  0.00    +0.000 OA
ENDROOT
BRANCH   3  11
ATOM     11  C   UNL     1       3.226   2.539  19.085  0.00  0.00    +0.000 C 
ATOM     12  C   UNL     1       4.324   2.036  20.020  0.00  0.00    +0.000 C 
BRANCH  11  13
ATOM     13  C   UNL     1       3.684   3.282  17.757  0.00  0.00    +0.000 C 
BRANCH  13  14
ATOM     14  C   UNL     1       4.834   4.142  17.321  0.00  0.00    +0.000 A 
ATOM     15  C   UNL     1       5.542   4.732  18.395  0.00  0.00    +0.000 A 
ATOM     16  C   UNL     1       6.548   5.670  18.199  0.00  0.00    +0.000 A 
ATOM     17  C   UNL     1       6.880   6.077  16.913  0.00  0.00    +0.000 A 
ATOM     18  C   UNL     1       6.247   5.428  15.821  0.00  0.00    +0.000 A 
ATOM     19  C   UNL     1       5.235   4.458  16.038  0.00  0.00    +0.000 A 
BRANCH  17  20
ATOM     20  O   UNL     1       7.842   7.032  16.704  0.00  0.00    +0.000 OA
ATOM     21  C   UNL     1       7.803   8.150  17.596  0.00  0.00    +0.000 C 
ENDBRANCH  17  20
BRANCH  18  22
ATOM     22  O   UNL     1       6.472   5.613  14.480  0.00  0.00    +0.000 OA
ATOM     23  C   UNL     1       6.875   4.508  13.690  0.00  0.00    +0.000 C 
ENDBRANCH  18  22
ENDBRANCH  13  14
ENDBRANCH  11  13
ENDBRANCH   3  11
BRANCH   1  24
ATOM     24  C   UNL     1       2.372   6.889  17.746  0.00  0.00    +0.000 C 
BRANCH  24  26
ATOM     25  C   UNL     1       2.093   9.386  17.796  0.00  0.00    +0.000 C 
ATOM     26  C   UNL     1       2.877   8.300  17.861  0.00  0.00    +0.000 C 
ENDBRANCH  24  26
ENDBRANCH   1  24
TORSDOF 7
ENDMDL
MODEL 6
REMARK VINA RESULT:      -7.1      2.074      6.567
REMARK  Name = 
REMARK  10 active torsions:
REMARK  status: ('A' for Active; 'I' for Inactive)
REMARK    1  A    between atoms: C_2  and  C_3
REMARK    2  A    between atoms: C_3  and  C_4
REMARK    3  A    between atoms: C_6  and  C_7
REMARK    4  A    between atoms: C_7  and  C_8
REMARK    5  A    between atoms: C_7  and  C_9
REMARK    6  A    between atoms: C_9  and  C_10
REMARK    7  A    between atoms: C_13  and  O_14
REMARK    8  A    between atoms: O_14  and  C_15
REMARK    9  A    between atoms: C_16  and  O_17
REMARK   10  A    between atoms: O_17  and  C_18
REMARK                            x       y       z     vdW  Elec       q    Type
REMARK                         _______ _______ _______ _____ _____    ______ ____
ROOT
ATOM      1  C   UNL     1       5.947   5.050  17.984  0.00  0.00    +0.000 C 
ATOM      2  C   UNL     1       5.210   4.243  19.068  0.00  0.00    +0.000 C 
ATOM      3  C   UNL     1       3.664   4.268  18.866  0.00  0.00    +0.000 C 
ATOM      4  O   UNL     1       3.024   2.986  19.143  0.00  0.00    +0.000 OA
ATOM      5  C   UNL     1       1.795   3.073  18.393  0.00  0.00    +0.000 C 
ATOM      6  O   UNL     1       2.077   3.702  17.143  0.00  0.00    +0.000 OA
ATOM      7  C   UNL     1       3.352   4.207  17.381  0.00  0.00    +0.000 C 
ATOM      8  C   UNL     1       4.284   4.048  16.415  0.00  0.00    +0.000 C 
ATOM      9  C   UNL     1       5.721   4.250  16.732  0.00  0.00    +0.000 C 
ATOM     10  O   UNL     1       6.596   3.774  16.013  0.00  0.00    +0.000 OA
ENDROOT
BRANCH   3  11
ATOM     11  C   UNL     1       3.028   5.226  20.005  0.00  0.00    +0.000 C 
ATOM     12  C   UNL     1       1.747   4.644  20.599  0.00  0.00    +0.000 C 
BRANCH  11  13
ATOM     13  C   UNL     1       2.925   6.650  19.307  0.00  0.00    +0.000 C 
BRANCH  13  14
ATOM     14  C   UNL     1       2.021   7.846  19.379  0.00  0.00    +0.000 A 
ATOM     15  C   UNL     1       1.951   8.579  18.170  0.00  0.00    +0.000 A 
ATOM     16  C   UNL     1       1.282   9.793  18.072  0.00  0.00    +0.000 A 
ATOM     17  C   UNL     1       0.667  10.341  19.190  0.00  0.00    +0.000 A 
ATOM     18  C   UNL     1       0.646   9.576  20.386  0.00  0.00    +0.000 A 
ATOM     19  C   UNL     1       1.318   8.330  20.464  0.00  0.00    +0.000 A 
BRANCH  17  20
ATOM     20  O   UNL     1       0.038  11.558  19.121  0.00  0.00    +0.000 OA
ATOM     21  C   UNL     1      -1.310  11.528  18.643  0.00  0.00    +0.000 C 
ENDBRANCH  17  20
BRANCH  18  22
ATOM     22  O   UNL     1       0.037   9.883  21.577  0.00  0.00    +0.000 OA
ATOM     23  C   UNL     1       0.561   9.343  22.778  0.00  0.00    +0.000 C 
ENDBRANCH  18  22
ENDBRANCH  13  14
ENDBRANCH  11  13
ENDBRANCH   3  11
BRANCH   1  24
ATOM     24  C   UNL     1       7.383   5.330  18.433  0.00  0.00    +0.000 C 
BRANCH  24  26
ATOM     25  C   UNL     1       7.577   7.633  17.447  0.00  0.00    +0.000 C 
ATOM     26  C   UNL     1       7.810   6.771  18.447  0.00  0.00    +0.000 C 
ENDBRANCH  24  26
ENDBRANCH   1  24
TORSDOF 7
ENDMDL
MODEL 7
REMARK VINA RESULT:      -7.1      2.142      6.455
REMARK  Name = 
REMARK  10 active torsions:
REMARK  status: ('A' for Active; 'I' for Inactive)
REMARK    1  A    between atoms: C_2  and  C_3
REMARK    2  A    between atoms: C_3  and  C_4
REMARK    3  A    between atoms: C_6  and  C_7
REMARK    4  A    between atoms: C_7  and  C_8
REMARK    5  A    between atoms: C_7  and  C_9
REMARK    6  A    between atoms: C_9  and  C_10
REMARK    7  A    between atoms: C_13  and  O_14
REMARK    8  A    between atoms: O_14  and  C_15
REMARK    9  A    between atoms: C_16  and  O_17
REMARK   10  A    between atoms: O_17  and  C_18
REMARK                            x       y       z     vdW  Elec       q    Type
REMARK                         _______ _______ _______ _____ _____    ______ ____
ROOT
ATOM      1  C   UNL     1       5.307   5.751  16.977  0.00  0.00    +0.000 C 
ATOM      2  C   UNL     1       4.962   5.288  18.404  0.00  0.00    +0.000 C 
ATOM      3  C   UNL     1       3.978   4.078  18.405  0.00  0.00    +0.000 C 
ATOM      4  O   UNL     1       4.292   3.080  19.422  0.00  0.00    +0.000 OA
ATOM      5  C   UNL     1       3.671   1.886  18.901  0.00  0.00    +0.000 C 
ATOM      6  O   UNL     1       3.885   1.850  17.491  0.00  0.00    +0.000 OA
ATOM      7  C   UNL     1       4.327   3.148  17.255  0.00  0.00    +0.000 C 
ATOM      8  C   UNL     1       5.393   3.314  16.441  0.00  0.00    +0.000 C 
ATOM      9  C   UNL     1       6.115   4.612  16.421  0.00  0.00    +0.000 C 
ATOM     10  O   UNL     1       7.265   4.685  15.993  0.00  0.00    +0.000 OA
ENDROOT
BRANCH   3  11
ATOM     11  C   UNL     1       2.528   4.615  18.881  0.00  0.00    +0.000 C 
ATOM     12  C   UNL     1       1.520   4.648  17.733  0.00  0.00    +0.000 C 
BRANCH  11  13
ATOM     13  C   UNL     1       2.841   5.990  19.614  0.00  0.00    +0.000 C 
BRANCH  13  14
ATOM     14  C   UNL     1       2.284   7.384  19.619  0.00  0.00    +0.000 A 
ATOM     15  C   UNL     1       1.569   7.707  20.797  0.00  0.00    +0.000 A 
ATOM     16  C   UNL     1       0.860   8.893  20.936  0.00  0.00    +0.000 A 
ATOM     17  C   UNL     1       0.818   9.807  19.891  0.00  0.00    +0.000 A 
ATOM     18  C   UNL     1       1.606   9.544  18.739  0.00  0.00    +0.000 A 
ATOM     19  C   UNL     1       2.339   8.336  18.620  0.00  0.00    +0.000 A 
BRANCH  17  20
ATOM     20  O   UNL     1       0.089  10.965  19.997  0.00  0.00    +0.000 OA
ATOM     21  C   UNL     1      -0.881  10.986  21.048  0.00  0.00    +0.000 C 
ENDBRANCH  17  20
BRANCH  18  22
ATOM     22  O   UNL     1       1.774  10.334  17.631  0.00  0.00    +0.000 OA
ATOM     23  C   UNL     1       2.464  11.565  17.760  0.00  0.00    +0.000 C 
ENDBRANCH  18  22
ENDBRANCH  13  14
ENDBRANCH  11  13
ENDBRANCH   3  11
BRANCH   1  24
ATOM     24  C   UNL     1       5.931   7.147  17.022  0.00  0.00    +0.000 C 
BRANCH  24  26
ATOM     25  C   UNL     1       7.969   8.399  17.794  0.00  0.00    +0.000 C 
ATOM     26  C   UNL     1       7.263   7.262  17.709  0.00  0.00    +0.000 C 
ENDBRANCH  24  26
ENDBRANCH   1  24
TORSDOF 7
ENDMDL
MODEL 8
REMARK VINA RESULT:      -7.0      1.048      2.411
REMARK  Name = 
REMARK  10 active torsions:
REMARK  status: ('A' for Active; 'I' for Inactive)
REMARK    1  A    between atoms: C_2  and  C_3
REMARK    2  A    between atoms: C_3  and  C_4
REMARK    3  A    between atoms: C_6  and  C_7
REMARK    4  A    between atoms: C_7  and  C_8
REMARK    5  A    between atoms: C_7  and  C_9
REMARK    6  A    between atoms: C_9  and  C_10
REMARK    7  A    between atoms: C_13  and  O_14
REMARK    8  A    between atoms: O_14  and  C_15
REMARK    9  A    between atoms: C_16  and  O_17
REMARK   10  A    between atoms: O_17  and  C_18
REMARK                            x       y       z     vdW  Elec       q    Type
REMARK                         _______ _______ _______ _____ _____    ______ ____
ROOT
ATOM      1  C   UNL     1       2.786   6.672  18.690  0.00  0.00    +0.000 C 
ATOM      2  C   UNL     1       1.858   5.602  18.087  0.00  0.00    +0.000 C 
ATOM      3  C   UNL     1       2.006   4.227  18.808  0.00  0.00    +0.000 C 
ATOM      4  O   UNL     1       0.735   3.534  18.996  0.00  0.00    +0.000 OA
ATOM      5  C   UNL     1       1.014   2.649  20.101  0.00  0.00    +0.000 C 
ATOM      6  O   UNL     1       1.819   3.353  21.046  0.00  0.00    +0.000 OA
ATOM      7  C   UNL     1       2.204   4.460  20.296  0.00  0.00    +0.000 C 
ATOM      8  C   UNL     1       2.149   5.673  20.888  0.00  0.00    +0.000 C 
ATOM      9  C   UNL     1       2.214   6.905  20.060  0.00  0.00    +0.000 C 
ATOM     10  O   UNL     1       1.810   7.980  20.500  0.00  0.00    +0.000 OA
ENDROOT
BRANCH   3  11
ATOM     11  C   UNL     1       2.802   3.227  17.815  0.00  0.00    +0.000 C 
ATOM     12  C   UNL     1       2.201   1.822  17.809  0.00  0.00    +0.000 C 
BRANCH  11  13
ATOM     13  C   UNL     1       4.322   3.367  18.255  0.00  0.00    +0.000 C 
BRANCH  13  14
ATOM     14  C   UNL     1       5.472   4.284  17.955  0.00  0.00    +0.000 A 
ATOM     15  C   UNL     1       5.900   5.043  19.071  0.00  0.00    +0.000 A 
ATOM     16  C   UNL     1       6.854   6.048  18.967  0.00  0.00    +0.000 A 
ATOM     17  C   UNL     1       7.412   6.353  17.733  0.00  0.00    +0.000 A 
ATOM     18  C   UNL     1       7.066   5.541  16.621  0.00  0.00    +0.000 A 
ATOM     19  C   UNL     1       6.104   4.507  16.748  0.00  0.00    +0.000 A 
BRANCH  17  20
ATOM     20  O   UNL     1       8.325   7.370  17.605  0.00  0.00    +0.000 OA
ATOM     21  C   UNL     1       7.796   8.692  17.743  0.00  0.00    +0.000 C 
ENDBRANCH  17  20
BRANCH  18  22
ATOM     22  O   UNL     1       7.547   5.612  15.338  0.00  0.00    +0.000 OA
ATOM     23  C   UNL     1       6.907   4.863  14.320  0.00  0.00    +0.000 C 
ENDBRANCH  18  22
ENDBRANCH  13  14
ENDBRANCH  11  13
ENDBRANCH   3  11
BRANCH   1  24
ATOM     24  C   UNL     1       2.905   7.855  17.728  0.00  0.00    +0.000 C 
BRANCH  24  26
ATOM     25  C   UNL     1       1.849  10.128  17.911  0.00  0.00    +0.000 C 
ATOM     26  C   UNL     1       1.744   8.809  17.695  0.00  0.00    +0.000 C 
ENDBRANCH  24  26
ENDBRANCH   1  24
TORSDOF 7
ENDMDL
MODEL 9
REMARK VINA RESULT:      -7.0      1.116      1.307
REMARK  Name = 
REMARK  10 active torsions:
REMARK  status: ('A' for Active; 'I' for Inactive)
REMARK    1  A    between atoms: C_2  and  C_3
REMARK    2  A    between atoms: C_3  and  C_4
REMARK    3  A    between atoms: C_6  and  C_7
REMARK    4  A    between atoms: C_7  and  C_8
REMARK    5  A    between atoms: C_7  and  C_9
REMARK    6  A    between atoms: C_9  and  C_10
REMARK    7  A    between atoms: C_13  and  O_14
REMARK    8  A    between atoms: O_14  and  C_15
REMARK    9  A    between atoms: C_16  and  O_17
REMARK   10  A    between atoms: O_17  and  C_18
REMARK                            x       y       z     vdW  Elec       q    Type
REMARK                         _______ _______ _______ _____ _____    ______ ____
ROOT
ATOM      1  C   UNL     1       2.817   5.987  18.940  0.00  0.00    +0.000 C 
ATOM      2  C   UNL     1       2.057   4.685  18.631  0.00  0.00    +0.000 C 
ATOM      3  C   UNL     1       2.286   3.600  19.727  0.00  0.00    +0.000 C 
ATOM      4  O   UNL     1       1.083   2.839  20.048  0.00  0.00    +0.000 OA
ATOM      5  C   UNL     1       1.360   2.345  21.375  0.00  0.00    +0.000 C 
ATOM      6  O   UNL     1       2.009   3.381  22.111  0.00  0.00    +0.000 OA
ATOM      7  C   UNL     1       2.337   4.268  21.091  0.00  0.00    +0.000 C 
ATOM      8  C   UNL     1       2.110   5.584  21.300  0.00  0.00    +0.000 C 
ATOM      9  C   UNL     1       2.114   6.528  20.154  0.00  0.00    +0.000 C 
ATOM     10  O   UNL     1       1.568   7.625  20.241  0.00  0.00    +0.000 OA
ENDROOT
BRANCH   3  11
ATOM     11  C   UNL     1       3.259   2.464  19.109  0.00  0.00    +0.000 C 
ATOM     12  C   UNL     1       4.425   2.135  20.040  0.00  0.00    +0.000 C 
BRANCH  11  13
ATOM     13  C   UNL     1       3.617   3.003  17.657  0.00  0.00    +0.000 C 
BRANCH  13  14
ATOM     14  C   UNL     1       4.756   3.730  17.005  0.00  0.00    +0.000 A 
ATOM     15  C   UNL     1       4.633   3.837  15.599  0.00  0.00    +0.000 A 
ATOM     16  C   UNL     1       5.647   4.348  14.799  0.00  0.00    +0.000 A 
ATOM     17  C   UNL     1       6.844   4.761  15.369  0.00  0.00    +0.000 A 
ATOM     18  C   UNL     1       6.950   4.749  16.785  0.00  0.00    +0.000 A 
ATOM     19  C   UNL     1       5.898   4.241  17.589  0.00  0.00    +0.000 A 
BRANCH  17  20
ATOM     20  O   UNL     1       7.870   5.230  14.589  0.00  0.00    +0.000 OA
ATOM     21  C   UNL     1       7.715   5.027  13.182  0.00  0.00    +0.000 C 
ENDBRANCH  17  20
BRANCH  18  22
ATOM     22  O   UNL     1       7.999   5.178  17.558  0.00  0.00    +0.000 OA
ATOM     23  C   UNL     1       7.730   5.763  18.821  0.00  0.00    +0.000 C 
ENDBRANCH  18  22
ENDBRANCH  13  14
ENDBRANCH  11  13
ENDBRANCH   3  11
BRANCH   1  24
ATOM     24  C   UNL     1       2.892   6.854  17.682  0.00  0.00    +0.000 C 
BRANCH  24  26
ATOM     25  C   UNL     1       4.708   7.460  16.054  0.00  0.00    +0.000 C 
ATOM     26  C   UNL     1       4.251   7.379  17.312  0.00  0.00    +0.000 C 
ENDBRANCH  24  26
ENDBRANCH   1  24
TORSDOF 7
ENDMDL
