MODEL 1
REMARK VINA RESULT:      -7.7      0.000      0.000
REMARK  Name = 
REMARK  5 active torsions:
REMARK  status: ('A' for Active; 'I' for Inactive)
REMARK    1  A    between atoms: C_1  and  O_2
REMARK    2  A    between atoms: O_2  and  C_3
REMARK    3  A    between atoms: C_11  and  C_12
REMARK    4  A    between atoms: C_12  and  N_13
REMARK    5  A    between atoms: C_17  and  C_18
REMARK                            x       y       z     vdW  Elec       q    Type
REMARK                         _______ _______ _______ _____ _____    ______ ____
ROOT
ATOM      1  C   UNL     1       3.759   4.339  19.275  0.00  0.00    +0.000 A 
ATOM      2  C   UNL     1       2.519   4.689  18.730  0.00  0.00    +0.000 A 
ATOM      3  C   UNL     1       2.396   5.775  17.866  0.00  0.00    +0.000 A 
ATOM      4  C   UNL     1       3.527   6.496  17.499  0.00  0.00    +0.000 A 
ATOM      5  C   UNL     1       4.787   6.137  17.999  0.00  0.00    +0.000 A 
ATOM      6  C   UNL     1       4.899   5.082  18.926  0.00  0.00    +0.000 A 
ATOM      7  O   UNL     1       6.119   4.697  19.426  0.00  0.00    +0.000 OA
ATOM      8  C   UNL     1       7.193   5.621  19.233  0.00  0.00    +0.000 C 
ATOM      9  C   UNL     1       7.284   6.099  17.786  0.00  0.00    +0.000 C 
ATOM     10  C   UNL     1       6.002   6.881  17.508  0.00  0.00    +0.000 C 
ENDROOT
BRANCH   1  12
ATOM     11  C   UNL     1       3.714   1.963  19.409  0.00  0.00    +0.000 C 
ATOM     12  O   UNL     1       3.706   3.222  20.067  0.00  0.00    +0.000 OA
ENDBRANCH   1  12
BRANCH   9  13
ATOM     13  C   UNL     1       7.474   4.891  16.849  0.00  0.00    +0.000 C 
BRANCH  13  14
ATOM     14  N   UNL     1       7.590   5.312  15.463  0.00  0.00    +0.000 N 
ATOM     15  C   UNL     1       6.829   4.671  14.492  0.00  0.00    +0.000 A 
ATOM     16  C   UNL     1       5.568   4.144  14.729  0.00  0.00    +0.000 A 
ATOM     17  C   UNL     1       4.847   3.568  13.686  0.00  0.00    +0.000 A 
ATOM     18  C   UNL     1       5.400   3.560  12.420  0.00  0.00    +0.000 A 
ATOM     19  C   UNL     1       4.663   3.004  11.245  0.00  0.00    +0.000 C 
ATOM     20  N   UNL     1       6.626   4.074  12.201  0.00  0.00    +0.000 NA
ATOM     21  N   UNL     1       7.339   4.628  13.245  0.00  0.00    +0.000 NA
ATOM     22  H   UNL     1       8.528   5.445  15.095  0.00  0.00    +0.000 HD
ENDBRANCH  13  14
ENDBRANCH   9  13
TORSDOF 3
ENDMDL
MODEL 2
REMARK VINA RESULT:      -7.2      3.034      4.985
REMARK  Name = 
REMARK  5 active torsions:
REMARK  status: ('A' for Active; 'I' for Inactive)
REMARK    1  A    between atoms: C_1  and  O_2
REMARK    2  A    between atoms: O_2  and  C_3
REMARK    3  A    between atoms: C_11  and  C_12
REMARK    4  A    between atoms: C_12  and  N_13
REMARK    5  A    between atoms: C_17  and  C_18
REMARK                            x       y       z     vdW  Elec       q    Type
REMARK                         _______ _______ _______ _____ _____    ______ ____
ROOT
ATOM      1  C   UNL     1       2.434   6.971  18.663  0.00  0.00    +0.000 A 
ATOM      2  C   UNL     1       1.990   7.518  19.871  0.00  0.00    +0.000 A 
ATOM      3  C   UNL     1       1.631   6.700  20.940  0.00  0.00    +0.000 A 
ATOM      4  C   UNL     1       1.759   5.321  20.826  0.00  0.00    +0.000 A 
ATOM      5  C   UNL     1       2.243   4.752  19.639  0.00  0.00    +0.000 A 
ATOM      6  C   UNL     1       2.541   5.575  18.536  0.00  0.00    +0.000 A 
ATOM      7  O   UNL     1       3.028   5.052  17.364  0.00  0.00    +0.000 OA
ATOM      8  C   UNL     1       2.889   3.637  17.206  0.00  0.00    +0.000 C 
ATOM      9  C   UNL     1       3.383   2.873  18.432  0.00  0.00    +0.000 C 
ATOM     10  C   UNL     1       2.457   3.261  19.584  0.00  0.00    +0.000 C 
ENDROOT
BRANCH   1  12
ATOM     11  C   UNL     1       2.115   9.167  17.803  0.00  0.00    +0.000 C 
ATOM     12  O   UNL     1       2.787   7.918  17.736  0.00  0.00    +0.000 OA
ENDBRANCH   1  12
BRANCH   9  13
ATOM     13  C   UNL     1       4.861   3.215  18.699  0.00  0.00    +0.000 C 
BRANCH  13  14
ATOM     14  N   UNL     1       5.477   3.835  17.538  0.00  0.00    +0.000 N 
ATOM     15  C   UNL     1       6.171   5.029  17.693  0.00  0.00    +0.000 A 
ATOM     16  C   UNL     1       6.869   5.368  18.844  0.00  0.00    +0.000 A 
ATOM     17  C   UNL     1       7.587   6.559  18.897  0.00  0.00    +0.000 A 
ATOM     18  C   UNL     1       7.611   7.372  17.780  0.00  0.00    +0.000 A 
ATOM     19  C   UNL     1       8.400   8.640  17.749  0.00  0.00    +0.000 C 
ATOM     20  N   UNL     1       6.929   7.034  16.668  0.00  0.00    +0.000 NA
ATOM     21  N   UNL     1       6.208   5.858  16.631  0.00  0.00    +0.000 NA
ATOM     22  H   UNL     1       4.914   3.901  16.694  0.00  0.00    +0.000 HD
ENDBRANCH  13  14
ENDBRANCH   9  13
TORSDOF 3
ENDMDL
MODEL 3
REMARK VINA RESULT:      -7.1      4.578      7.459
REMARK  Name = 
REMARK  5 active torsions:
REMARK  status: ('A' for Active; 'I' for Inactive)
REMARK    1  A    between atoms: C_1  and  O_2
REMARK    2  A    between atoms: O_2  and  C_3
REMARK    3  A    between atoms: C_11  and  C_12
REMARK    4  A    between atoms: C_12  and  N_13
REMARK    5  A    between atoms: C_17  and  C_18
REMARK                            x       y       z     vdW  Elec       q    Type
REMARK                         _______ _______ _______ _____ _____    ______ ____
ROOT
ATOM      1  C   UNL     1       6.363   4.571  18.017  0.00  0.00    +0.000 A 
ATOM      2  C   UNL     1       6.726   4.619  16.667  0.00  0.00    +0.000 A 
ATOM      3  C   UNL     1       5.763   4.569  15.662  0.00  0.00    +0.000 A 
ATOM      4  C   UNL     1       4.415   4.517  16.002  0.00  0.00    +0.000 A 
ATOM      5  C   UNL     1       4.025   4.510  17.349  0.00  0.00    +0.000 A 
ATOM      6  C   UNL     1       5.003   4.492  18.362  0.00  0.00    +0.000 A 
ATOM      7  O   UNL     1       4.656   4.498  19.691  0.00  0.00    +0.000 OA
ATOM      8  C   UNL     1       3.293   4.178  19.981  0.00  0.00    +0.000 C 
ATOM      9  C   UNL     1       2.320   4.983  19.124  0.00  0.00    +0.000 C 
ATOM     10  C   UNL     1       2.555   4.547  17.679  0.00  0.00    +0.000 C 
ENDROOT
BRANCH   1  12
ATOM     11  C   UNL     1       7.878   5.988  19.185  0.00  0.00    +0.000 C 
ATOM     12  O   UNL     1       7.431   4.677  18.870  0.00  0.00    +0.000 OA
ENDBRANCH   1  12
BRANCH   9  13
ATOM     13  C   UNL     1       2.550   6.490  19.350  0.00  0.00    +0.000 C 
BRANCH  13  14
ATOM     14  N   UNL     1       1.893   6.948  20.561  0.00  0.00    +0.000 N 
ATOM     15  C   UNL     1       1.506   8.280  20.663  0.00  0.00    +0.000 A 
ATOM     16  C   UNL     1       1.102   9.047  19.580  0.00  0.00    +0.000 A 
ATOM     17  C   UNL     1       0.674  10.357  19.775  0.00  0.00    +0.000 A 
ATOM     18  C   UNL     1       0.635  10.859  21.062  0.00  0.00    +0.000 A 
ATOM     19  C   UNL     1       0.140  12.238  21.352  0.00  0.00    +0.000 C 
ATOM     20  N   UNL     1       1.030  10.105  22.107  0.00  0.00    +0.000 NA
ATOM     21  N   UNL     1       1.467   8.813  21.900  0.00  0.00    +0.000 NA
ATOM     22  H   UNL     1       2.306   6.669  21.447  0.00  0.00    +0.000 HD
ENDBRANCH  13  14
ENDBRANCH   9  13
TORSDOF 3
ENDMDL
MODEL 4
REMARK VINA RESULT:      -7.0      3.453      6.331
REMARK  Name = 
REMARK  5 active torsions:
REMARK  status: ('A' for Active; 'I' for Inactive)
REMARK    1  A    between atoms: C_1  and  O_2
REMARK    2  A    between atoms: O_2  and  C_3
REMARK    3  A    between atoms: C_11  and  C_12
REMARK    4  A    between atoms: C_12  and  N_13
REMARK    5  A    between atoms: C_17  and  C_18
REMARK                            x       y       z     vdW  Elec       q    Type
REMARK                         _______ _______ _______ _____ _____    ______ ____
ROOT
ATOM      1  C   UNL     1       6.805   4.637  17.791  0.00  0.00    +0.000 A 
ATOM      2  C   UNL     1       7.030   5.221  16.540  0.00  0.00    +0.000 A 
ATOM      3  C   UNL     1       6.001   5.342  15.609  0.00  0.00    +0.000 A 
ATOM      4  C   UNL     1       4.718   4.922  15.941  0.00  0.00    +0.000 A 
ATOM      5  C   UNL     1       4.459   4.373  17.206  0.00  0.00    +0.000 A 
ATOM      6  C   UNL     1       5.514   4.188  18.120  0.00  0.00    +0.000 A 
ATOM      7  O   UNL     1       5.294   3.664  19.370  0.00  0.00    +0.000 OA
ATOM      8  C   UNL     1       4.036   3.011  19.560  0.00  0.00    +0.000 C 
ATOM      9  C   UNL     1       2.868   3.866  19.075  0.00  0.00    +0.000 C 
ATOM     10  C   UNL     1       3.040   4.014  17.564  0.00  0.00    +0.000 C 
ENDROOT
BRANCH   1  12
ATOM     11  C   UNL     1       8.099   5.770  19.436  0.00  0.00    +0.000 C 
ATOM     12  O   UNL     1       7.914   4.639  18.597  0.00  0.00    +0.000 OA
ENDBRANCH   1  12
BRANCH   9  13
ATOM     13  C   UNL     1       2.862   5.214  19.821  0.00  0.00    +0.000 C 
BRANCH  13  14
ATOM     14  N   UNL     1       3.095   6.321  18.910  0.00  0.00    +0.000 N 
ATOM     15  C   UNL     1       2.301   7.459  19.006  0.00  0.00    +0.000 A 
ATOM     16  C   UNL     1       1.766   7.924  20.199  0.00  0.00    +0.000 A 
ATOM     17  C   UNL     1       1.029   9.104  20.217  0.00  0.00    +0.000 A 
ATOM     18  C   UNL     1       0.868   9.807  19.039  0.00  0.00    +0.000 A 
ATOM     19  C   UNL     1       0.131  11.106  18.994  0.00  0.00    +0.000 C 
ATOM     20  N   UNL     1       1.391   9.346  17.886  0.00  0.00    +0.000 NA
ATOM     21  N   UNL     1       2.107   8.167  17.875  0.00  0.00    +0.000 NA
ATOM     22  H   UNL     1       3.210   6.096  17.926  0.00  0.00    +0.000 HD
ENDBRANCH  13  14
ENDBRANCH   9  13
TORSDOF 3
ENDMDL
MODEL 5
REMARK VINA RESULT:      -7.0      0.916      1.228
REMARK  Name = 
REMARK  5 active torsions:
REMARK  status: ('A' for Active; 'I' for Inactive)
REMARK    1  A    between atoms: C_1  and  O_2
REMARK    2  A    between atoms: O_2  and  C_3
REMARK    3  A    between atoms: C_11  and  C_12
REMARK    4  A    between atoms: C_12  and  N_13
REMARK    5  A    between atoms: C_17  and  C_18
REMARK                            x       y       z     vdW  Elec       q    Type
REMARK                         _______ _______ _______ _____ _____    ______ ____
ROOT
ATOM      1  C   UNL     1       4.500   2.888  19.478  0.00  0.00    +0.000 A 
ATOM      2  C   UNL     1       3.263   2.495  18.955  0.00  0.00    +0.000 A 
ATOM      3  C   UNL     1       2.591   3.290  18.029  0.00  0.00    +0.000 A 
ATOM      4  C   UNL     1       3.175   4.468  17.579  0.00  0.00    +0.000 A 
ATOM      5  C   UNL     1       4.435   4.860  18.056  0.00  0.00    +0.000 A 
ATOM      6  C   UNL     1       5.082   4.091  19.043  0.00  0.00    +0.000 A 
ATOM      7  O   UNL     1       6.320   4.439  19.524  0.00  0.00    +0.000 OA
ATOM      8  C   UNL     1       6.749   5.773  19.235  0.00  0.00    +0.000 C 
ATOM      9  C   UNL     1       6.580   6.122  17.759  0.00  0.00    +0.000 C 
ATOM     10  C   UNL     1       5.078   6.094  17.478  0.00  0.00    +0.000 C 
ENDROOT
BRANCH   1  12
ATOM     11  C   UNL     1       4.901   0.599  19.993  0.00  0.00    +0.000 C 
ATOM     12  O   UNL     1       5.040   1.969  20.340  0.00  0.00    +0.000 OA
ENDBRANCH   1  12
BRANCH   9  13
ATOM     13  C   UNL     1       7.380   5.130  16.893  0.00  0.00    +0.000 C 
BRANCH  13  14
ATOM     14  N   UNL     1       7.445   5.570  15.510  0.00  0.00    +0.000 N 
ATOM     15  C   UNL     1       6.854   4.793  14.521  0.00  0.00    +0.000 A 
ATOM     16  C   UNL     1       5.718   4.024  14.725  0.00  0.00    +0.000 A 
ATOM     17  C   UNL     1       5.154   3.319  13.664  0.00  0.00    +0.000 A 
ATOM     18  C   UNL     1       5.731   3.426  12.414  0.00  0.00    +0.000 A 
ATOM     19  C   UNL     1       5.152   2.738  11.221  0.00  0.00    +0.000 C 
ATOM     20  N   UNL     1       6.835   4.176  12.226  0.00  0.00    +0.000 NA
ATOM     21  N   UNL     1       7.394   4.858  13.287  0.00  0.00    +0.000 NA
ATOM     22  H   UNL     1       8.347   5.890  15.168  0.00  0.00    +0.000 HD
ENDBRANCH  13  14
ENDBRANCH   9  13
TORSDOF 3
ENDMDL
MODEL 6
REMARK VINA RESULT:      -6.9      2.879      4.855
REMARK  Name = 
REMARK  5 active torsions:
REMARK  status: ('A' for Active; 'I' for Inactive)
REMARK    1  A    between atoms: C_1  and  O_2
REMARK    2  A    between atoms: O_2  and  C_3
REMARK    3  A    between atoms: C_11  and  C_12
REMARK    4  A    between atoms: C_12  and  N_13
REMARK    5  A    between atoms: C_17  and  C_18
REMARK                            x       y       z     vdW  Elec       q    Type
REMARK                         _______ _______ _______ _____ _____    ______ ____
ROOT
ATOM      1  C   UNL     1       2.354   5.261  20.137  0.00  0.00    +0.000 A 
ATOM      2  C   UNL     1       2.078   4.791  21.426  0.00  0.00    +0.000 A 
ATOM      3  C   UNL     1       1.989   3.426  21.688  0.00  0.00    +0.000 A 
ATOM      4  C   UNL     1       2.221   2.511  20.667  0.00  0.00    +0.000 A 
ATOM      5  C   UNL     1       2.541   2.958  19.377  0.00  0.00    +0.000 A 
ATOM      6  C   UNL     1       2.564   4.339  19.098  0.00  0.00    +0.000 A 
ATOM      7  O   UNL     1       2.885   4.810  17.849  0.00  0.00    +0.000 OA
ATOM      8  C   UNL     1       2.851   3.849  16.791  0.00  0.00    +0.000 C 
ATOM      9  C   UNL     1       3.620   2.579  17.146  0.00  0.00    +0.000 C 
ATOM     10  C   UNL     1       2.878   1.939  18.319  0.00  0.00    +0.000 C 
ENDROOT
BRANCH   1  12
ATOM     11  C   UNL     1       1.421   7.379  20.694  0.00  0.00    +0.000 C 
ATOM     12  O   UNL     1       2.450   6.627  20.067  0.00  0.00    +0.000 OA
ENDBRANCH   1  12
BRANCH   9  13
ATOM     13  C   UNL     1       5.084   2.929  17.472  0.00  0.00    +0.000 C 
BRANCH  13  14
ATOM     14  N   UNL     1       5.610   3.915  16.543  0.00  0.00    +0.000 N 
ATOM     15  C   UNL     1       6.259   5.039  17.041  0.00  0.00    +0.000 A 
ATOM     16  C   UNL     1       7.002   5.041  18.213  0.00  0.00    +0.000 A 
ATOM     17  C   UNL     1       7.670   6.196  18.611  0.00  0.00    +0.000 A 
ATOM     18  C   UNL     1       7.599   7.317  17.807  0.00  0.00    +0.000 A 
ATOM     19  C   UNL     1       8.330   8.575  18.147  0.00  0.00    +0.000 C 
ATOM     20  N   UNL     1       6.874   7.304  16.671  0.00  0.00    +0.000 NA
ATOM     21  N   UNL     1       6.203   6.159  16.293  0.00  0.00    +0.000 NA
ATOM     22  H   UNL     1       5.000   4.210  15.785  0.00  0.00    +0.000 HD
ENDBRANCH  13  14
ENDBRANCH   9  13
TORSDOF 3
ENDMDL
MODEL 7
REMARK VINA RESULT:      -6.9      1.947      3.155
REMARK  Name = 
REMARK  5 active torsions:
REMARK  status: ('A' for Active; 'I' for Inactive)
REMARK    1  A    between atoms: C_1  and  O_2
REMARK    2  A    between atoms: O_2  and  C_3
REMARK    3  A    between atoms: C_11  and  C_12
REMARK    4  A    between atoms: C_12  and  N_13
REMARK    5  A    between atoms: C_17  and  C_18
REMARK                            x       y       z     vdW  Elec       q    Type
REMARK                         _______ _______ _______ _____ _____    ______ ____
ROOT
ATOM      1  C   UNL     1       1.707   3.554  20.614  0.00  0.00    +0.000 A 
ATOM      2  C   UNL     1       1.117   2.447  19.994  0.00  0.00    +0.000 A 
ATOM      3  C   UNL     1       0.871   2.440  18.623  0.00  0.00    +0.000 A 
ATOM      4  C   UNL     1       1.256   3.527  17.847  0.00  0.00    +0.000 A 
ATOM      5  C   UNL     1       1.888   4.630  18.440  0.00  0.00    +0.000 A 
ATOM      6  C   UNL     1       2.074   4.665  19.836  0.00  0.00    +0.000 A 
ATOM      7  O   UNL     1       2.699   5.724  20.447  0.00  0.00    +0.000 OA
ATOM      8  C   UNL     1       2.831   6.910  19.660  0.00  0.00    +0.000 C 
ATOM      9  C   UNL     1       3.405   6.619  18.276  0.00  0.00    +0.000 C 
ATOM     10  C   UNL     1       2.375   5.749  17.556  0.00  0.00    +0.000 C 
ENDROOT
BRANCH   1  12
ATOM     11  C   UNL     1       1.426   2.173  22.532  0.00  0.00    +0.000 C 
ATOM     12  O   UNL     1       1.918   3.375  21.957  0.00  0.00    +0.000 OA
ENDBRANCH   1  12
BRANCH   9  13
ATOM     13  C   UNL     1       4.782   5.942  18.414  0.00  0.00    +0.000 C 
BRANCH  13  14
ATOM     14  N   UNL     1       5.740   6.499  17.474  0.00  0.00    +0.000 N 
ATOM     15  C   UNL     1       6.033   5.801  16.308  0.00  0.00    +0.000 A 
ATOM     16  C   UNL     1       5.116   5.001  15.640  0.00  0.00    +0.000 A 
ATOM     17  C   UNL     1       5.474   4.382  14.446  0.00  0.00    +0.000 A 
ATOM     18  C   UNL     1       6.738   4.602  13.935  0.00  0.00    +0.000 A 
ATOM     19  C   UNL     1       7.172   4.010  12.633  0.00  0.00    +0.000 C 
ATOM     20  N   UNL     1       7.620   5.380  14.591  0.00  0.00    +0.000 NA
ATOM     21  N   UNL     1       7.262   5.977  15.782  0.00  0.00    +0.000 NA
ATOM     22  H   UNL     1       6.610   6.858  17.857  0.00  0.00    +0.000 HD
ENDBRANCH  13  14
ENDBRANCH   9  13
TORSDOF 3
ENDMDL
MODEL 8
REMARK VINA RESULT:      -6.8      5.253      8.168
REMARK  Name = 
REMARK  5 active torsions:
REMARK  status: ('A' for Active; 'I' for Inactive)
REMARK    1  A    between atoms: C_1  and  O_2
REMARK    2  A    between atoms: O_2  and  C_3
REMARK    3  A    between atoms: C_11  and  C_12
REMARK    4  A    between atoms: C_12  and  N_13
REMARK    5  A    between atoms: C_17  and  C_18
REMARK                            x       y       z     vdW  Elec       q    Type
REMARK                         _______ _______ _______ _____ _____    ______ ____
ROOT
ATOM      1  C   UNL     1       6.047   5.409  18.768  0.00  0.00    +0.000 A 
ATOM      2  C   UNL     1       6.685   5.776  17.578  0.00  0.00    +0.000 A 
ATOM      3  C   UNL     1       5.949   6.151  16.456  0.00  0.00    +0.000 A 
ATOM      4  C   UNL     1       4.561   6.208  16.529  0.00  0.00    +0.000 A 
ATOM      5  C   UNL     1       3.902   5.886  17.724  0.00  0.00    +0.000 A 
ATOM      6  C   UNL     1       4.644   5.441  18.836  0.00  0.00    +0.000 A 
ATOM      7  O   UNL     1       4.031   5.129  20.025  0.00  0.00    +0.000 OA
ATOM      8  C   UNL     1       2.614   4.947  19.968  0.00  0.00    +0.000 C 
ATOM      9  C   UNL     1       1.918   6.095  19.241  0.00  0.00    +0.000 C 
ATOM     10  C   UNL     1       2.406   6.048  17.794  0.00  0.00    +0.000 C 
ENDROOT
BRANCH   1  12
ATOM     11  C   UNL     1       8.201   5.726  19.729  0.00  0.00    +0.000 C 
ATOM     12  O   UNL     1       6.921   5.114  19.782  0.00  0.00    +0.000 OA
ENDBRANCH   1  12
BRANCH   9  13
ATOM     13  C   UNL     1       2.234   7.428  19.946  0.00  0.00    +0.000 C 
BRANCH  13  14
ATOM     14  N   UNL     1       1.501   7.551  21.194  0.00  0.00    +0.000 N 
ATOM     15  C   UNL     1       0.862   8.750  21.492  0.00  0.00    +0.000 A 
ATOM     16  C   UNL     1       0.317   9.589  20.530  0.00  0.00    +0.000 A 
ATOM     17  C   UNL     1      -0.358  10.743  20.916  0.00  0.00    +0.000 A 
ATOM     18  C   UNL     1      -0.493  11.016  22.264  0.00  0.00    +0.000 A 
ATOM     19  C   UNL     1      -1.246  12.211  22.751  0.00  0.00    +0.000 C 
ATOM     20  N   UNL     1       0.041  10.195  23.189  0.00  0.00    +0.000 NA
ATOM     21  N   UNL     1       0.721   9.061  22.796  0.00  0.00    +0.000 NA
ATOM     22  H   UNL     1       1.960   7.218  22.038  0.00  0.00    +0.000 HD
ENDBRANCH  13  14
ENDBRANCH   9  13
TORSDOF 3
ENDMDL
MODEL 9
REMARK VINA RESULT:      -6.7      4.019      6.653
REMARK  Name = 
REMARK  5 active torsions:
REMARK  status: ('A' for Active; 'I' for Inactive)
REMARK    1  A    between atoms: C_1  and  O_2
REMARK    2  A    between atoms: O_2  and  C_3
REMARK    3  A    between atoms: C_11  and  C_12
REMARK    4  A    between atoms: C_12  and  N_13
REMARK    5  A    between atoms: C_17  and  C_18
REMARK                            x       y       z     vdW  Elec       q    Type
REMARK                         _______ _______ _______ _____ _____    ______ ____
ROOT
ATOM      1  C   UNL     1       6.677   4.748  17.760  0.00  0.00    +0.000 A 
ATOM      2  C   UNL     1       6.836   5.466  16.569  0.00  0.00    +0.000 A 
ATOM      3  C   UNL     1       5.734   5.822  15.794  0.00  0.00    +0.000 A 
ATOM      4  C   UNL     1       4.453   5.504  16.230  0.00  0.00    +0.000 A 
ATOM      5  C   UNL     1       4.267   4.822  17.442  0.00  0.00    +0.000 A 
ATOM      6  C   UNL     1       5.385   4.403  18.190  0.00  0.00    +0.000 A 
ATOM      7  O   UNL     1       5.239   3.745  19.386  0.00  0.00    +0.000 OA
ATOM      8  C   UNL     1       3.938   3.214  19.652  0.00  0.00    +0.000 C 
ATOM      9  C   UNL     1       2.839   4.248  19.421  0.00  0.00    +0.000 C 
ATOM     10  C   UNL     1       2.862   4.576  17.929  0.00  0.00    +0.000 C 
ENDROOT
BRANCH   1  12
ATOM     11  C   UNL     1       8.291   5.518  19.331  0.00  0.00    +0.000 C 
ATOM     12  O   UNL     1       7.859   4.521  18.417  0.00  0.00    +0.000 OA
ENDBRANCH   1  12
BRANCH   9  13
ATOM     13  C   UNL     1       3.082   5.477  20.317  0.00  0.00    +0.000 C 
BRANCH  13  14
ATOM     14  N   UNL     1       1.843   6.183  20.592  0.00  0.00    +0.000 N 
ATOM     15  C   UNL     1       1.672   7.472  20.101  0.00  0.00    +0.000 A 
ATOM     16  C   UNL     1       2.225   7.921  18.910  0.00  0.00    +0.000 A 
ATOM     17  C   UNL     1       1.958   9.211  18.461  0.00  0.00    +0.000 A 
ATOM     18  C   UNL     1       1.116  10.014  19.207  0.00  0.00    +0.000 A 
ATOM     19  C   UNL     1       0.746  11.391  18.760  0.00  0.00    +0.000 C 
ATOM     20  N   UNL     1       0.585   9.569  20.362  0.00  0.00    +0.000 NA
ATOM     21  N   UNL     1       0.869   8.294  20.806  0.00  0.00    +0.000 NA
ATOM     22  H   UNL     1       1.496   6.157  21.547  0.00  0.00    +0.000 HD
ENDBRANCH  13  14
ENDBRANCH   9  13
TORSDOF 3
ENDMDL
