MODEL 1
REMARK VINA RESULT:      -9.5      0.000      0.000
REMARK  Name = 
REMARK  3 active torsions:
REMARK  status: ('A' for Active; 'I' for Inactive)
REMARK    1  A    between atoms: N_4  and  C_5
REMARK    2  A    between atoms: N_17  and  C_18
REMARK    3  A    between atoms: C_18  and  C_19
REMARK                            x       y       z     vdW  Elec       q    Type
REMARK                         _______ _______ _______ _____ _____    ______ ____
ROOT
ATOM      1  O   UNL     1      -0.435  12.962  23.203  0.00  0.00    +0.000 OA
ATOM      2  C   UNL     1      -1.597  12.894  22.851  0.00  0.00    +0.000 C 
ATOM      3  N   UNL     1      -2.625  13.550  23.460  0.00  0.00    +0.000 N 
ATOM      4  N   UNL     1      -3.779  13.603  22.672  0.00  0.00    +0.000 N 
ATOM      5  C   UNL     1      -3.616  12.760  21.557  0.00  0.00    +0.000 C 
ATOM      6  O   UNL     1      -4.500  12.352  20.824  0.00  0.00    +0.000 OA
ATOM      7  C   UNL     1      -2.149  12.287  21.576  0.00  0.00    +0.000 C 
ATOM      8  C   UNL     1      -1.455  11.552  20.677  0.00  0.00    +0.000 C 
ATOM      9  C   UNL     1      -0.071  10.851  20.846  0.00  0.00    +0.000 C 
ATOM     10  O   UNL     1       0.627  10.905  21.849  0.00  0.00    +0.000 OA
ATOM     11  N   UNL     1       0.241  10.102  19.658  0.00  0.00    +0.000 N 
ATOM     12  C   UNL     1      -0.851  10.348  18.735  0.00  0.00    +0.000 A 
ATOM     13  C   UNL     1      -1.088   9.909  17.437  0.00  0.00    +0.000 A 
ATOM     14  C   UNL     1      -2.255  10.327  16.739  0.00  0.00    +0.000 A 
ATOM     15  C   UNL     1      -3.144  11.251  17.284  0.00  0.00    +0.000 A 
ATOM     16  C   UNL     1      -2.904  11.732  18.555  0.00  0.00    +0.000 A 
ATOM     17  C   UNL     1      -1.836  11.210  19.296  0.00  0.00    +0.000 A 
ATOM     18  H   UNL     1      -2.419  14.334  24.084  0.00  0.00    +0.000 HD
ENDROOT
BRANCH   4  19
ATOM     19  C   UNL     1      -5.050  13.915  23.248  0.00  0.00    +0.000 A 
ATOM     20  C   UNL     1      -5.836  12.894  23.807  0.00  0.00    +0.000 A 
ATOM     21  C   UNL     1      -7.152  13.138  24.220  0.00  0.00    +0.000 A 
ATOM     22  C   UNL     1      -7.682  14.421  24.141  0.00  0.00    +0.000 A 
ATOM     23  C   UNL     1      -6.884  15.465  23.677  0.00  0.00    +0.000 A 
ATOM     24  C   UNL     1      -5.579  15.214  23.227  0.00  0.00    +0.000 A 
ENDBRANCH   4  19
BRANCH  11  25
ATOM     25  C   UNL     1       1.698   9.437  19.492  0.00  0.00    +0.000 C 
BRANCH  25  26
ATOM     26  C   UNL     1       2.039   7.889  19.620  0.00  0.00    +0.000 A 
ATOM     27  C   UNL     1       1.482   7.334  20.752  0.00  0.00    +0.000 A 
ATOM     28  C   UNL     1       1.220   5.990  20.755  0.00  0.00    +0.000 A 
ATOM     29  C   UNL     1       2.317   5.225  20.456  0.00  0.00    +0.000 A 
ATOM     30  C   UNL     1       3.099   5.600  19.387  0.00  0.00    +0.000 A 
ATOM     31  C   UNL     1       3.949   4.552  18.953  0.00  0.00    +0.000 A 
ATOM     32  C   UNL     1       4.624   4.607  17.758  0.00  0.00    +0.000 A 
ATOM     33  C   UNL     1       4.463   5.759  17.010  0.00  0.00    +0.000 A 
ATOM     34  C   UNL     1       3.681   6.880  17.506  0.00  0.00    +0.000 A 
ATOM     35  C   UNL     1       2.926   6.900  18.777  0.00  0.00    +0.000 A 
ENDBRANCH  25  26
ENDBRANCH  11  25
TORSDOF 3
ENDMDL
MODEL 2
REMARK VINA RESULT:      -9.4      0.839      1.950
REMARK  Name = 
REMARK  3 active torsions:
REMARK  status: ('A' for Active; 'I' for Inactive)
REMARK    1  A    between atoms: N_4  and  C_5
REMARK    2  A    between atoms: N_17  and  C_18
REMARK    3  A    between atoms: C_18  and  C_19
REMARK                            x       y       z     vdW  Elec       q    Type
REMARK                         _______ _______ _______ _____ _____    ______ ____
ROOT
ATOM      1  O   UNL     1      -0.640  12.967  23.446  0.00  0.00    +0.000 OA
ATOM      2  C   UNL     1      -1.749  12.943  22.949  0.00  0.00    +0.000 C 
ATOM      3  N   UNL     1      -2.807  13.680  23.391  0.00  0.00    +0.000 N 
ATOM      4  N   UNL     1      -3.845  13.755  22.459  0.00  0.00    +0.000 N 
ATOM      5  C   UNL     1      -3.591  12.853  21.410  0.00  0.00    +0.000 C 
ATOM      6  O   UNL     1      -4.397  12.457  20.586  0.00  0.00    +0.000 OA
ATOM      7  C   UNL     1      -2.169  12.305  21.638  0.00  0.00    +0.000 C 
ATOM      8  C   UNL     1      -1.410  11.493  20.868  0.00  0.00    +0.000 C 
ATOM      9  C   UNL     1      -0.102  10.729  21.244  0.00  0.00    +0.000 C 
ATOM     10  O   UNL     1       0.465  10.794  22.326  0.00  0.00    +0.000 OA
ATOM     11  N   UNL     1       0.315   9.908  20.138  0.00  0.00    +0.000 N 
ATOM     12  C   UNL     1      -0.634  10.166  19.072  0.00  0.00    +0.000 A 
ATOM     13  C   UNL     1      -0.729   9.678  17.774  0.00  0.00    +0.000 A 
ATOM     14  C   UNL     1      -1.772  10.123  16.913  0.00  0.00    +0.000 A 
ATOM     15  C   UNL     1      -2.667  11.117  17.300  0.00  0.00    +0.000 A 
ATOM     16  C   UNL     1      -2.563  11.646  18.570  0.00  0.00    +0.000 A 
ATOM     17  C   UNL     1      -1.631  11.104  19.465  0.00  0.00    +0.000 A 
ATOM     18  H   UNL     1      -2.637  14.481  24.005  0.00  0.00    +0.000 HD
ENDROOT
BRANCH   4  19
ATOM     19  C   UNL     1      -5.160  14.161  22.852  0.00  0.00    +0.000 A 
ATOM     20  C   UNL     1      -5.620  15.450  22.532  0.00  0.00    +0.000 A 
ATOM     21  C   UNL     1      -6.827  15.935  23.049  0.00  0.00    +0.000 A 
ATOM     22  C   UNL     1      -7.626  15.118  23.841  0.00  0.00    +0.000 A 
ATOM     23  C   UNL     1      -7.231  13.805  24.089  0.00  0.00    +0.000 A 
ATOM     24  C   UNL     1      -6.003  13.330  23.604  0.00  0.00    +0.000 A 
ENDBRANCH   4  19
BRANCH  11  25
ATOM     25  C   UNL     1       1.740   9.160  20.190  0.00  0.00    +0.000 C 
BRANCH  25  26
ATOM     26  C   UNL     1       2.125   7.826  19.416  0.00  0.00    +0.000 A 
ATOM     27  C   UNL     1       2.692   8.092  18.188  0.00  0.00    +0.000 A 
ATOM     28  C   UNL     1       3.532   7.157  17.644  0.00  0.00    +0.000 A 
ATOM     29  C   UNL     1       2.963   5.915  17.540  0.00  0.00    +0.000 A 
ATOM     30  C   UNL     1       2.271   5.424  18.624  0.00  0.00    +0.000 A 
ATOM     31  C   UNL     1       2.068   4.023  18.539  0.00  0.00    +0.000 A 
ATOM     32  C   UNL     1       1.635   3.282  19.612  0.00  0.00    +0.000 A 
ATOM     33  C   UNL     1       1.368   3.979  20.777  0.00  0.00    +0.000 A 
ATOM     34  C   UNL     1       1.469   5.428  20.831  0.00  0.00    +0.000 A 
ATOM     35  C   UNL     1       1.926   6.296  19.726  0.00  0.00    +0.000 A 
ENDBRANCH  25  26
ENDBRANCH  11  25
TORSDOF 3
ENDMDL
MODEL 3
REMARK VINA RESULT:      -9.3      3.718      9.447
REMARK  Name = 
REMARK  3 active torsions:
REMARK  status: ('A' for Active; 'I' for Inactive)
REMARK    1  A    between atoms: N_4  and  C_5
REMARK    2  A    between atoms: N_17  and  C_18
REMARK    3  A    between atoms: C_18  and  C_19
REMARK                            x       y       z     vdW  Elec       q    Type
REMARK                         _______ _______ _______ _____ _____    ______ ____
ROOT
ATOM      1  O   UNL     1       2.692   9.333  17.214  0.00  0.00    +0.000 OA
ATOM      2  C   UNL     1       2.428   8.419  17.971  0.00  0.00    +0.000 C 
ATOM      3  N   UNL     1       2.995   7.180  17.910  0.00  0.00    +0.000 N 
ATOM      4  N   UNL     1       2.805   6.437  19.078  0.00  0.00    +0.000 N 
ATOM      5  C   UNL     1       1.882   7.103  19.905  0.00  0.00    +0.000 C 
ATOM      6  O   UNL     1       1.282   6.623  20.851  0.00  0.00    +0.000 OA
ATOM      7  C   UNL     1       1.621   8.475  19.254  0.00  0.00    +0.000 C 
ATOM      8  C   UNL     1       0.900   9.531  19.696  0.00  0.00    +0.000 C 
ATOM      9  C   UNL     1       0.418  10.787  18.905  0.00  0.00    +0.000 C 
ATOM     10  O   UNL     1       0.672  11.020  17.732  0.00  0.00    +0.000 OA
ATOM     11  N   UNL     1      -0.400  11.610  19.756  0.00  0.00    +0.000 N 
ATOM     12  C   UNL     1      -0.405  10.960  21.053  0.00  0.00    +0.000 A 
ATOM     13  C   UNL     1      -1.005  11.299  22.260  0.00  0.00    +0.000 A 
ATOM     14  C   UNL     1      -0.827  10.476  23.407  0.00  0.00    +0.000 A 
ATOM     15  C   UNL     1       0.017   9.368  23.390  0.00  0.00    +0.000 A 
ATOM     16  C   UNL     1       0.656   9.039  22.213  0.00  0.00    +0.000 A 
ATOM     17  C   UNL     1       0.366   9.763  21.049  0.00  0.00    +0.000 A 
ATOM     18  H   UNL     1       3.860   7.052  17.379  0.00  0.00    +0.000 HD
ENDROOT
BRANCH   4  19
ATOM     19  C   UNL     1       2.997   5.019  19.088  0.00  0.00    +0.000 A 
ATOM     20  C   UNL     1       4.187   4.477  19.602  0.00  0.00    +0.000 A 
ATOM     21  C   UNL     1       4.477   3.113  19.468  0.00  0.00    +0.000 A 
ATOM     22  C   UNL     1       3.553   2.259  18.877  0.00  0.00    +0.000 A 
ATOM     23  C   UNL     1       2.327   2.763  18.448  0.00  0.00    +0.000 A 
ATOM     24  C   UNL     1       2.052   4.136  18.546  0.00  0.00    +0.000 A 
ENDBRANCH   4  19
BRANCH  11  25
ATOM     25  C   UNL     1      -0.871  13.064  19.248  0.00  0.00    +0.000 C 
BRANCH  25  26
ATOM     26  C   UNL     1       0.064  14.337  19.059  0.00  0.00    +0.000 A 
ATOM     27  C   UNL     1      -0.646  15.513  19.165  0.00  0.00    +0.000 A 
ATOM     28  C   UNL     1       0.024  16.644  19.551  0.00  0.00    +0.000 A 
ATOM     29  C   UNL     1       1.110  16.923  18.764  0.00  0.00    +0.000 A 
ATOM     30  C   UNL     1       1.967  15.893  18.450  0.00  0.00    +0.000 A 
ATOM     31  C   UNL     1       3.217  16.363  17.973  0.00  0.00    +0.000 A 
ATOM     32  C   UNL     1       4.306  15.537  17.843  0.00  0.00    +0.000 A 
ATOM     33  C   UNL     1       4.115  14.205  18.165  0.00  0.00    +0.000 A 
ATOM     34  C   UNL     1       2.805  13.701  18.547  0.00  0.00    +0.000 A 
ATOM     35  C   UNL     1       1.586  14.522  18.710  0.00  0.00    +0.000 A 
ENDBRANCH  25  26
ENDBRANCH  11  25
TORSDOF 3
ENDMDL
MODEL 4
REMARK VINA RESULT:      -9.3      1.867      9.639
REMARK  Name = 
REMARK  3 active torsions:
REMARK  status: ('A' for Active; 'I' for Inactive)
REMARK    1  A    between atoms: N_4  and  C_5
REMARK    2  A    between atoms: N_17  and  C_18
REMARK    3  A    between atoms: C_18  and  C_19
REMARK                            x       y       z     vdW  Elec       q    Type
REMARK                         _______ _______ _______ _____ _____    ______ ____
ROOT
ATOM      1  O   UNL     1       1.457   8.460  22.168  0.00  0.00    +0.000 OA
ATOM      2  C   UNL     1       1.652   8.321  20.976  0.00  0.00    +0.000 C 
ATOM      3  N   UNL     1       2.467   7.370  20.436  0.00  0.00    +0.000 N 
ATOM      4  N   UNL     1       2.249   7.181  19.068  0.00  0.00    +0.000 N 
ATOM      5  C   UNL     1       1.398   8.196  18.591  0.00  0.00    +0.000 C 
ATOM      6  O   UNL     1       1.222   8.502  17.425  0.00  0.00    +0.000 OA
ATOM      7  C   UNL     1       0.908   8.973  19.828  0.00  0.00    +0.000 C 
ATOM      8  C   UNL     1      -0.002   9.969  19.932  0.00  0.00    +0.000 C 
ATOM      9  C   UNL     1      -0.273  10.926  21.134  0.00  0.00    +0.000 C 
ATOM     10  O   UNL     1       0.300  10.879  22.214  0.00  0.00    +0.000 OA
ATOM     11  N   UNL     1      -1.272  11.894  20.767  0.00  0.00    +0.000 N 
ATOM     12  C   UNL     1      -1.679  11.553  19.417  0.00  0.00    +0.000 A 
ATOM     13  C   UNL     1      -2.616  12.117  18.559  0.00  0.00    +0.000 A 
ATOM     14  C   UNL     1      -2.834  11.560  17.268  0.00  0.00    +0.000 A 
ATOM     15  C   UNL     1      -2.197  10.392  16.857  0.00  0.00    +0.000 A 
ATOM     16  C   UNL     1      -1.296   9.791  17.711  0.00  0.00    +0.000 A 
ATOM     17  C   UNL     1      -0.973  10.421  18.921  0.00  0.00    +0.000 A 
ATOM     18  H   UNL     1       2.746   6.567  21.006  0.00  0.00    +0.000 HD
ENDROOT
BRANCH   4  19
ATOM     19  C   UNL     1       3.216   6.513  18.254  0.00  0.00    +0.000 A 
ATOM     20  C   UNL     1       4.201   7.257  17.582  0.00  0.00    +0.000 A 
ATOM     21  C   UNL     1       5.050   6.654  16.646  0.00  0.00    +0.000 A 
ATOM     22  C   UNL     1       4.971   5.285  16.413  0.00  0.00    +0.000 A 
ATOM     23  C   UNL     1       4.065   4.516  17.140  0.00  0.00    +0.000 A 
ATOM     24  C   UNL     1       3.188   5.126  18.050  0.00  0.00    +0.000 A 
ENDBRANCH   4  19
BRANCH  11  25
ATOM     25  C   UNL     1      -1.876  12.883  21.886  0.00  0.00    +0.000 C 
BRANCH  25  26
ATOM     26  C   UNL     1      -3.357  12.846  22.465  0.00  0.00    +0.000 A 
ATOM     27  C   UNL     1      -3.382  12.442  23.782  0.00  0.00    +0.000 A 
ATOM     28  C   UNL     1      -4.431  12.844  24.566  0.00  0.00    +0.000 A 
ATOM     29  C   UNL     1      -5.653  12.514  24.043  0.00  0.00    +0.000 A 
ATOM     30  C   UNL     1      -5.877  12.762  22.707  0.00  0.00    +0.000 A 
ATOM     31  C   UNL     1      -7.258  12.740  22.383  0.00  0.00    +0.000 A 
ATOM     32  C   UNL     1      -7.733  13.208  21.182  0.00  0.00    +0.000 A 
ATOM     33  C   UNL     1      -6.789  13.669  20.281  0.00  0.00    +0.000 A 
ATOM     34  C   UNL     1      -5.366  13.588  20.569  0.00  0.00    +0.000 A 
ATOM     35  C   UNL     1      -4.775  13.100  21.833  0.00  0.00    +0.000 A 
ENDBRANCH  25  26
ENDBRANCH  11  25
TORSDOF 3
ENDMDL
MODEL 5
REMARK VINA RESULT:      -9.0      4.118      9.989
REMARK  Name = 
REMARK  3 active torsions:
REMARK  status: ('A' for Active; 'I' for Inactive)
REMARK    1  A    between atoms: N_4  and  C_5
REMARK    2  A    between atoms: N_17  and  C_18
REMARK    3  A    between atoms: C_18  and  C_19
REMARK                            x       y       z     vdW  Elec       q    Type
REMARK                         _______ _______ _______ _____ _____    ______ ____
ROOT
ATOM      1  O   UNL     1       3.326   8.540  17.119  0.00  0.00    +0.000 OA
ATOM      2  C   UNL     1       2.920   7.697  17.895  0.00  0.00    +0.000 C 
ATOM      3  N   UNL     1       3.370   6.410  17.938  0.00  0.00    +0.000 N 
ATOM      4  N   UNL     1       3.024   5.752  19.121  0.00  0.00    +0.000 N 
ATOM      5  C   UNL     1       2.109   6.544  19.839  0.00  0.00    +0.000 C 
ATOM      6  O   UNL     1       1.397   6.173  20.757  0.00  0.00    +0.000 OA
ATOM      7  C   UNL     1       2.029   7.896  19.105  0.00  0.00    +0.000 C 
ATOM      8  C   UNL     1       1.380   9.036  19.438  0.00  0.00    +0.000 C 
ATOM      9  C   UNL     1       1.080  10.285  18.552  0.00  0.00    +0.000 C 
ATOM     10  O   UNL     1       1.443  10.430  17.393  0.00  0.00    +0.000 OA
ATOM     11  N   UNL     1       0.283  11.225  19.295  0.00  0.00    +0.000 N 
ATOM     12  C   UNL     1       0.119  10.650  20.616  0.00  0.00    +0.000 A 
ATOM     13  C   UNL     1      -0.535  11.109  21.755  0.00  0.00    +0.000 A 
ATOM     14  C   UNL     1      -0.522  10.336  22.950  0.00  0.00    +0.000 A 
ATOM     15  C   UNL     1       0.211   9.157  23.053  0.00  0.00    +0.000 A 
ATOM     16  C   UNL     1       0.903   8.707  21.948  0.00  0.00    +0.000 A 
ATOM     17  C   UNL     1       0.771   9.390  20.731  0.00  0.00    +0.000 A 
ATOM     18  H   UNL     1       4.257   6.175  17.485  0.00  0.00    +0.000 HD
ENDROOT
BRANCH   4  19
ATOM     19  C   UNL     1       3.079   4.326  19.215  0.00  0.00    +0.000 A 
ATOM     20  C   UNL     1       4.219   3.702  19.750  0.00  0.00    +0.000 A 
ATOM     21  C   UNL     1       4.374   2.312  19.696  0.00  0.00    +0.000 A 
ATOM     22  C   UNL     1       3.365   1.517  19.164  0.00  0.00    +0.000 A 
ATOM     23  C   UNL     1       2.188   2.111  18.715  0.00  0.00    +0.000 A 
ATOM     24  C   UNL     1       2.047   3.508  18.734  0.00  0.00    +0.000 A 
ENDBRANCH   4  19
BRANCH  11  25
ATOM     25  C   UNL     1      -0.009  12.686  18.682  0.00  0.00    +0.000 C 
BRANCH  25  26
ATOM     26  C   UNL     1       0.943  13.954  18.796  0.00  0.00    +0.000 A 
ATOM     27  C   UNL     1       2.259  13.591  18.987  0.00  0.00    +0.000 A 
ATOM     28  C   UNL     1       3.238  14.462  18.589  0.00  0.00    +0.000 A 
ATOM     29  C   UNL     1       3.104  15.712  19.134  0.00  0.00    +0.000 A 
ATOM     30  C   UNL     1       1.856  16.294  19.128  0.00  0.00    +0.000 A 
ATOM     31  C   UNL     1       1.917  17.692  19.358  0.00  0.00    +0.000 A 
ATOM     32  C   UNL     1       0.838  18.514  19.143  0.00  0.00    +0.000 A 
ATOM     33  C   UNL     1      -0.331  17.904  18.725  0.00  0.00    +0.000 A 
ATOM     34  C   UNL     1      -0.426  16.458  18.597  0.00  0.00    +0.000 A 
ATOM     35  C   UNL     1       0.685  15.506  18.808  0.00  0.00    +0.000 A 
ENDBRANCH  25  26
ENDBRANCH  11  25
TORSDOF 3
ENDMDL
MODEL 6
REMARK VINA RESULT:      -8.9      1.839      3.665
REMARK  Name = 
REMARK  3 active torsions:
REMARK  status: ('A' for Active; 'I' for Inactive)
REMARK    1  A    between atoms: N_4  and  C_5
REMARK    2  A    between atoms: N_17  and  C_18
REMARK    3  A    between atoms: C_18  and  C_19
REMARK                            x       y       z     vdW  Elec       q    Type
REMARK                         _______ _______ _______ _____ _____    ______ ____
ROOT
ATOM      1  O   UNL     1      -3.081  11.327  17.615  0.00  0.00    +0.000 OA
ATOM      2  C   UNL     1      -3.049  11.856  18.709  0.00  0.00    +0.000 C 
ATOM      3  N   UNL     1      -4.005  12.706  19.181  0.00  0.00    +0.000 N 
ATOM      4  N   UNL     1      -3.933  12.892  20.564  0.00  0.00    +0.000 N 
ATOM      5  C   UNL     1      -2.742  12.318  21.046  0.00  0.00    +0.000 C 
ATOM      6  O   UNL     1      -2.226  12.527  22.130  0.00  0.00    +0.000 OA
ATOM      7  C   UNL     1      -2.116  11.552  19.865  0.00  0.00    +0.000 C 
ATOM      8  C   UNL     1      -1.030  10.746  19.821  0.00  0.00    +0.000 C 
ATOM      9  C   UNL     1      -0.255  10.215  18.575  0.00  0.00    +0.000 C 
ATOM     10  O   UNL     1      -0.561  10.432  17.411  0.00  0.00    +0.000 OA
ATOM     11  N   UNL     1       0.894   9.463  19.004  0.00  0.00    +0.000 N 
ATOM     12  C   UNL     1       0.842   9.450  20.454  0.00  0.00    +0.000 A 
ATOM     13  C   UNL     1       1.669   8.868  21.408  0.00  0.00    +0.000 A 
ATOM     14  C   UNL     1       1.368   8.997  22.793  0.00  0.00    +0.000 A 
ATOM     15  C   UNL     1       0.204   9.620  23.236  0.00  0.00    +0.000 A 
ATOM     16  C   UNL     1      -0.652  10.166  22.302  0.00  0.00    +0.000 A 
ATOM     17  C   UNL     1      -0.283  10.167  20.951  0.00  0.00    +0.000 A 
ATOM     18  H   UNL     1      -4.923  12.728  18.728  0.00  0.00    +0.000 HD
ENDROOT
BRANCH   4  19
ATOM     19  C   UNL     1      -4.591  13.994  21.195  0.00  0.00    +0.000 A 
ATOM     20  C   UNL     1      -4.219  15.310  20.872  0.00  0.00    +0.000 A 
ATOM     21  C   UNL     1      -4.720  16.401  21.594  0.00  0.00    +0.000 A 
ATOM     22  C   UNL     1      -5.650  16.199  22.607  0.00  0.00    +0.000 A 
ATOM     23  C   UNL     1      -6.103  14.909  22.876  0.00  0.00    +0.000 A 
ATOM     24  C   UNL     1      -5.573  13.812  22.179  0.00  0.00    +0.000 A 
ENDBRANCH   4  19
BRANCH  11  25
ATOM     25  C   UNL     1       1.762   8.643  17.923  0.00  0.00    +0.000 C 
BRANCH  25  26
ATOM     26  C   UNL     1       2.640   7.350  18.216  0.00  0.00    +0.000 A 
ATOM     27  C   UNL     1       3.740   7.280  17.388  0.00  0.00    +0.000 A 
ATOM     28  C   UNL     1       4.836   6.582  17.821  0.00  0.00    +0.000 A 
ATOM     29  C   UNL     1       4.547   5.292  18.181  0.00  0.00    +0.000 A 
ATOM     30  C   UNL     1       3.443   5.069  18.972  0.00  0.00    +0.000 A 
ATOM     31  C   UNL     1       3.468   3.788  19.578  0.00  0.00    +0.000 A 
ATOM     32  C   UNL     1       2.615   3.446  20.599  0.00  0.00    +0.000 A 
ATOM     33  C   UNL     1       1.696   4.406  20.985  0.00  0.00    +0.000 A 
ATOM     34  C   UNL     1       1.596   5.679  20.289  0.00  0.00    +0.000 A 
ATOM     35  C   UNL     1       2.474   6.123  19.186  0.00  0.00    +0.000 A 
ENDBRANCH  25  26
ENDBRANCH  11  25
TORSDOF 3
ENDMDL
MODEL 7
REMARK VINA RESULT:      -8.9      4.525     11.268
REMARK  Name = 
REMARK  3 active torsions:
REMARK  status: ('A' for Active; 'I' for Inactive)
REMARK    1  A    between atoms: N_4  and  C_5
REMARK    2  A    between atoms: N_17  and  C_18
REMARK    3  A    between atoms: C_18  and  C_19
REMARK                            x       y       z     vdW  Elec       q    Type
REMARK                         _______ _______ _______ _____ _____    ______ ____
ROOT
ATOM      1  O   UNL     1       5.149   8.208  17.319  0.00  0.00    +0.000 OA
ATOM      2  C   UNL     1       5.024   7.115  16.802  0.00  0.00    +0.000 C 
ATOM      3  N   UNL     1       5.780   6.664  15.762  0.00  0.00    +0.000 N 
ATOM      4  N   UNL     1       5.697   5.280  15.588  0.00  0.00    +0.000 N 
ATOM      5  C   UNL     1       4.669   4.773  16.404  0.00  0.00    +0.000 C 
ATOM      6  O   UNL     1       4.141   3.679  16.305  0.00  0.00    +0.000 OA
ATOM      7  C   UNL     1       4.202   5.939  17.296  0.00  0.00    +0.000 C 
ATOM      8  C   UNL     1       3.317   5.959  18.319  0.00  0.00    +0.000 C 
ATOM      9  C   UNL     1       2.652   7.188  19.014  0.00  0.00    +0.000 C 
ATOM     10  O   UNL     1       2.881   8.359  18.743  0.00  0.00    +0.000 OA
ATOM     11  N   UNL     1       1.703   6.734  19.995  0.00  0.00    +0.000 N 
ATOM     12  C   UNL     1       1.785   5.286  19.988  0.00  0.00    +0.000 A 
ATOM     13  C   UNL     1       1.124   4.314  20.730  0.00  0.00    +0.000 A 
ATOM     14  C   UNL     1       1.416   2.935  20.530  0.00  0.00    +0.000 A 
ATOM     15  C   UNL     1       2.425   2.518  19.665  0.00  0.00    +0.000 A 
ATOM     16  C   UNL     1       3.123   3.470  18.952  0.00  0.00    +0.000 A 
ATOM     17  C   UNL     1       2.737   4.814  19.040  0.00  0.00    +0.000 A 
ATOM     18  H   UNL     1       6.662   7.136  15.543  0.00  0.00    +0.000 HD
ENDROOT
BRANCH   4  19
ATOM     19  C   UNL     1       6.111   4.665  14.364  0.00  0.00    +0.000 A 
ATOM     20  C   UNL     1       7.331   5.033  13.773  0.00  0.00    +0.000 A 
ATOM     21  C   UNL     1       7.681   4.580  12.495  0.00  0.00    +0.000 A 
ATOM     22  C   UNL     1       6.848   3.700  11.815  0.00  0.00    +0.000 A 
ATOM     23  C   UNL     1       5.679   3.249  12.426  0.00  0.00    +0.000 A 
ATOM     24  C   UNL     1       5.309   3.733  13.690  0.00  0.00    +0.000 A 
ENDBRANCH   4  19
BRANCH  11  25
ATOM     25  C   UNL     1       1.014   7.796  20.991  0.00  0.00    +0.000 C 
BRANCH  25  26
ATOM     26  C   UNL     1       0.504   9.250  20.600  0.00  0.00    +0.000 A 
ATOM     27  C   UNL     1       0.814  10.180  21.569  0.00  0.00    +0.000 A 
ATOM     28  C   UNL     1       0.937  11.492  21.197  0.00  0.00    +0.000 A 
ATOM     29  C   UNL     1      -0.168  11.974  20.546  0.00  0.00    +0.000 A 
ATOM     30  C   UNL     1      -0.727  11.201  19.553  0.00  0.00    +0.000 A 
ATOM     31  C   UNL     1      -1.597  11.949  18.719  0.00  0.00    +0.000 A 
ATOM     32  C   UNL     1      -2.061  11.458  17.523  0.00  0.00    +0.000 A 
ATOM     33  C   UNL     1      -1.668  10.175  17.186  0.00  0.00    +0.000 A 
ATOM     34  C   UNL     1      -0.868   9.367  18.093  0.00  0.00    +0.000 A 
ATOM     35  C   UNL     1      -0.329   9.819  19.393  0.00  0.00    +0.000 A 
ENDBRANCH  25  26
ENDBRANCH  11  25
TORSDOF 3
ENDMDL
MODEL 8
REMARK VINA RESULT:      -8.8      1.817      9.444
REMARK  Name = 
REMARK  3 active torsions:
REMARK  status: ('A' for Active; 'I' for Inactive)
REMARK    1  A    between atoms: N_4  and  C_5
REMARK    2  A    between atoms: N_17  and  C_18
REMARK    3  A    between atoms: C_18  and  C_19
REMARK                            x       y       z     vdW  Elec       q    Type
REMARK                         _______ _______ _______ _____ _____    ______ ____
ROOT
ATOM      1  O   UNL     1       1.170   9.231  22.485  0.00  0.00    +0.000 OA
ATOM      2  C   UNL     1       1.402   8.937  21.328  0.00  0.00    +0.000 C 
ATOM      3  N   UNL     1       2.265   7.955  20.943  0.00  0.00    +0.000 N 
ATOM      4  N   UNL     1       2.092   7.571  19.610  0.00  0.00    +0.000 N 
ATOM      5  C   UNL     1       1.218   8.475  18.979  0.00  0.00    +0.000 C 
ATOM      6  O   UNL     1       1.062   8.610  17.777  0.00  0.00    +0.000 OA
ATOM      7  C   UNL     1       0.666   9.395  20.084  0.00  0.00    +0.000 C 
ATOM      8  C   UNL     1      -0.283  10.358  20.029  0.00  0.00    +0.000 C 
ATOM      9  C   UNL     1      -0.621  11.460  21.081  0.00  0.00    +0.000 C 
ATOM     10  O   UNL     1      -0.076  11.585  22.169  0.00  0.00    +0.000 OA
ATOM     11  N   UNL     1      -1.645  12.327  20.562  0.00  0.00    +0.000 N 
ATOM     12  C   UNL     1      -2.002  11.788  19.264  0.00  0.00    +0.000 A 
ATOM     13  C   UNL     1      -2.936  12.190  18.315  0.00  0.00    +0.000 A 
ATOM     14  C   UNL     1      -3.098  11.451  17.109  0.00  0.00    +0.000 A 
ATOM     15  C   UNL     1      -2.407  10.264  16.878  0.00  0.00    +0.000 A 
ATOM     16  C   UNL     1      -1.508   9.824  17.827  0.00  0.00    +0.000 A 
ATOM     17  C   UNL     1      -1.242  10.627  18.944  0.00  0.00    +0.000 A 
ATOM     18  H   UNL     1       2.558   7.250  21.624  0.00  0.00    +0.000 HD
ENDROOT
BRANCH   4  19
ATOM     19  C   UNL     1       3.105   6.836  18.917  0.00  0.00    +0.000 A 
ATOM     20  C   UNL     1       3.573   5.620  19.445  0.00  0.00    +0.000 A 
ATOM     21  C   UNL     1       4.679   4.968  18.885  0.00  0.00    +0.000 A 
ATOM     22  C   UNL     1       5.294   5.486  17.751  0.00  0.00    +0.000 A 
ATOM     23  C   UNL     1       4.784   6.639  17.159  0.00  0.00    +0.000 A 
ATOM     24  C   UNL     1       3.700   7.314  17.741  0.00  0.00    +0.000 A 
ENDBRANCH   4  19
BRANCH  11  25
ATOM     25  C   UNL     1      -2.315  13.435  21.519  0.00  0.00    +0.000 C 
BRANCH  25  26
ATOM     26  C   UNL     1      -3.783  13.379  22.130  0.00  0.00    +0.000 A 
ATOM     27  C   UNL     1      -3.842  13.969  23.374  0.00  0.00    +0.000 A 
ATOM     28  C   UNL     1      -5.043  14.473  23.798  0.00  0.00    +0.000 A 
ATOM     29  C   UNL     1      -6.058  13.554  23.762  0.00  0.00    +0.000 A 
ATOM     30  C   UNL     1      -6.190  12.774  22.635  0.00  0.00    +0.000 A 
ATOM     31  C   UNL     1      -7.464  12.156  22.559  0.00  0.00    +0.000 A 
ATOM     32  C   UNL     1      -7.912  11.548  21.412  0.00  0.00    +0.000 A 
ATOM     33  C   UNL     1      -7.039  11.533  20.338  0.00  0.00    +0.000 A 
ATOM     34  C   UNL     1      -5.692  12.067  20.452  0.00  0.00    +0.000 A 
ATOM     35  C   UNL     1      -5.135  12.737  21.646  0.00  0.00    +0.000 A 
ENDBRANCH  25  26
ENDBRANCH  11  25
TORSDOF 3
ENDMDL
MODEL 9
REMARK VINA RESULT:      -8.8      4.069     11.590
REMARK  Name = 
REMARK  3 active torsions:
REMARK  status: ('A' for Active; 'I' for Inactive)
REMARK    1  A    between atoms: N_4  and  C_5
REMARK    2  A    between atoms: N_17  and  C_18
REMARK    3  A    between atoms: C_18  and  C_19
REMARK                            x       y       z     vdW  Elec       q    Type
REMARK                         _______ _______ _______ _____ _____    ______ ____
ROOT
ATOM      1  O   UNL     1       5.711   7.835  17.336  0.00  0.00    +0.000 OA
ATOM      2  C   UNL     1       5.443   6.815  16.732  0.00  0.00    +0.000 C 
ATOM      3  N   UNL     1       6.156   6.337  15.673  0.00  0.00    +0.000 N 
ATOM      4  N   UNL     1       5.877   4.998  15.389  0.00  0.00    +0.000 N 
ATOM      5  C   UNL     1       4.763   4.587  16.145  0.00  0.00    +0.000 C 
ATOM      6  O   UNL     1       4.085   3.593  15.950  0.00  0.00    +0.000 OA
ATOM      7  C   UNL     1       4.446   5.739  17.117  0.00  0.00    +0.000 C 
ATOM      8  C   UNL     1       3.544   5.813  18.123  0.00  0.00    +0.000 C 
ATOM      9  C   UNL     1       3.045   7.070  18.901  0.00  0.00    +0.000 C 
ATOM     10  O   UNL     1       3.449   8.211  18.727  0.00  0.00    +0.000 OA
ATOM     11  N   UNL     1       2.012   6.688  19.827  0.00  0.00    +0.000 N 
ATOM     12  C   UNL     1       1.882   5.249  19.707  0.00  0.00    +0.000 A 
ATOM     13  C   UNL     1       1.066   4.331  20.358  0.00  0.00    +0.000 A 
ATOM     14  C   UNL     1       1.160   2.944  20.055  0.00  0.00    +0.000 A 
ATOM     15  C   UNL     1       2.121   2.449  19.178  0.00  0.00    +0.000 A 
ATOM     16  C   UNL     1       2.971   3.338  18.554  0.00  0.00    +0.000 A 
ATOM     17  C   UNL     1       2.782   4.714  18.741  0.00  0.00    +0.000 A 
ATOM     18  H   UNL     1       7.103   6.689  15.508  0.00  0.00    +0.000 HD
ENDROOT
BRANCH   4  19
ATOM     19  C   UNL     1       6.232   4.422  14.128  0.00  0.00    +0.000 A 
ATOM     20  C   UNL     1       7.370   4.882  13.444  0.00  0.00    +0.000 A 
ATOM     21  C   UNL     1       7.646   4.464  12.136  0.00  0.00    +0.000 A 
ATOM     22  C   UNL     1       6.824   3.530  11.515  0.00  0.00    +0.000 A 
ATOM     23  C   UNL     1       5.745   2.992  12.213  0.00  0.00    +0.000 A 
ATOM     24  C   UNL     1       5.446   3.439  13.510  0.00  0.00    +0.000 A 
ENDBRANCH   4  19
BRANCH  11  25
ATOM     25  C   UNL     1       1.456   7.762  20.891  0.00  0.00    +0.000 C 
BRANCH  25  26
ATOM     26  C   UNL     1       0.605   9.061  20.551  0.00  0.00    +0.000 A 
ATOM     27  C   UNL     1       0.724   9.418  19.226  0.00  0.00    +0.000 A 
ATOM     28  C   UNL     1      -0.292  10.135  18.652  0.00  0.00    +0.000 A 
ATOM     29  C   UNL     1      -0.592  11.286  19.331  0.00  0.00    +0.000 A 
ATOM     30  C   UNL     1      -0.712  11.220  20.702  0.00  0.00    +0.000 A 
ATOM     31  C   UNL     1      -1.383  12.349  21.235  0.00  0.00    +0.000 A 
ATOM     32  C   UNL     1      -1.841  12.381  22.530  0.00  0.00    +0.000 A 
ATOM     33  C   UNL     1      -1.580  11.266  23.306  0.00  0.00    +0.000 A 
ATOM     34  C   UNL     1      -0.795  10.155  22.793  0.00  0.00    +0.000 A 
ATOM     35  C   UNL     1      -0.268  10.043  21.417  0.00  0.00    +0.000 A 
ENDBRANCH  25  26
ENDBRANCH  11  25
TORSDOF 3
ENDMDL
