MODEL 1
REMARK VINA RESULT:      -7.2      0.000      0.000
REMARK  Name = 
REMARK  5 active torsions:
REMARK  status: ('A' for Active; 'I' for Inactive)
REMARK    1  A    between atoms: C_1  and  C_2
REMARK    2  A    between atoms: C_2  and  C_3
REMARK    3  A    between atoms: C_4  and  C_5
REMARK    4  A    between atoms: N_7  and  O_8
REMARK    5  A    between atoms: C_9  and  C_10
REMARK                            x       y       z     vdW  Elec       q    Type
REMARK                         _______ _______ _______ _____ _____    ______ ____
ROOT
ATOM      1  C   UNL     1       3.680   6.310  17.818  0.00  0.00    +0.000 C 
ATOM      2  C   UNL     1       4.233   5.080  17.141  0.00  0.00    +0.000 C 
ATOM      3  C   UNL     1       3.899   3.838  17.552  0.00  0.00    +0.000 C 
ENDROOT
BRANCH   3   4
ATOM      4  C   UNL     1       2.949   3.541  18.633  0.00  0.00    +0.000 A 
ATOM      5  C   UNL     1       3.396   3.486  19.959  0.00  0.00    +0.000 A 
ATOM      6  C   UNL     1       2.502   3.207  20.992  0.00  0.00    +0.000 A 
ATOM      7  C   UNL     1       1.157   2.979  20.709  0.00  0.00    +0.000 A 
ATOM      8  C   UNL     1       0.707   3.026  19.390  0.00  0.00    +0.000 A 
ATOM      9  C   UNL     1       1.600   3.306  18.353  0.00  0.00    +0.000 A 
ENDBRANCH   3   4
BRANCH   2  10
ATOM     10  C   UNL     1       5.149   5.223  16.005  0.00  0.00    +0.000 C 
ATOM     11  C   UNL     1       5.691   4.222  15.292  0.00  0.00    +0.000 C 
BRANCH  11  12
ATOM     12  C   UNL     1       6.605   4.493  14.157  0.00  0.00    +0.000 C 
ATOM     13  O   UNL     1       6.549   3.915  13.077  0.00  0.00    +0.000 OA
ATOM     14  N   UNL     1       7.532   5.460  14.440  0.00  0.00    +0.000 N 
ATOM     15  H   UNL     1       7.638   5.942  15.323  0.00  0.00    +0.000 HD
BRANCH  14  16
ATOM     16  O   UNL     1       8.464   5.774  13.427  0.00  0.00    +0.000 OA
ATOM     17  H   UNL     1       8.409   6.754  13.393  0.00  0.00    +0.000 HD
ENDBRANCH  14  16
ENDBRANCH  11  12
ENDBRANCH   2  10
TORSDOF 4
ENDMDL
MODEL 2
REMARK VINA RESULT:      -7.2      0.183      1.255
REMARK  Name = 
REMARK  5 active torsions:
REMARK  status: ('A' for Active; 'I' for Inactive)
REMARK    1  A    between atoms: C_1  and  C_2
REMARK    2  A    between atoms: C_2  and  C_3
REMARK    3  A    between atoms: C_4  and  C_5
REMARK    4  A    between atoms: N_7  and  O_8
REMARK    5  A    between atoms: C_9  and  C_10
REMARK                            x       y       z     vdW  Elec       q    Type
REMARK                         _______ _______ _______ _____ _____    ______ ____
ROOT
ATOM      1  C   UNL     1       3.887   6.183  18.007  0.00  0.00    +0.000 C 
ATOM      2  C   UNL     1       4.374   4.960  17.269  0.00  0.00    +0.000 C 
ATOM      3  C   UNL     1       3.986   3.717  17.628  0.00  0.00    +0.000 C 
ENDROOT
BRANCH   3   4
ATOM      4  C   UNL     1       3.035   3.416  18.707  0.00  0.00    +0.000 A 
ATOM      5  C   UNL     1       1.665   3.335  18.427  0.00  0.00    +0.000 A 
ATOM      6  C   UNL     1       0.755   3.047  19.444  0.00  0.00    +0.000 A 
ATOM      7  C   UNL     1       1.205   2.841  20.746  0.00  0.00    +0.000 A 
ATOM      8  C   UNL     1       2.568   2.926  21.032  0.00  0.00    +0.000 A 
ATOM      9  C   UNL     1       3.482   3.213  20.016  0.00  0.00    +0.000 A 
ENDBRANCH   3   4
BRANCH   2  10
ATOM     10  C   UNL     1       5.282   5.111  16.129  0.00  0.00    +0.000 C 
ATOM     11  C   UNL     1       5.632   4.150  15.259  0.00  0.00    +0.000 C 
BRANCH  11  12
ATOM     12  C   UNL     1       6.561   4.426  14.137  0.00  0.00    +0.000 C 
ATOM     13  O   UNL     1       6.559   3.811  13.076  0.00  0.00    +0.000 OA
ATOM     14  N   UNL     1       7.434   5.444  14.409  0.00  0.00    +0.000 N 
ATOM     15  H   UNL     1       7.496   5.959  15.279  0.00  0.00    +0.000 HD
BRANCH  14  16
ATOM     16  O   UNL     1       8.377   5.768  13.409  0.00  0.00    +0.000 OA
ATOM     17  H   UNL     1       8.148   5.131  12.697  0.00  0.00    +0.000 HD
ENDBRANCH  14  16
ENDBRANCH  11  12
ENDBRANCH   2  10
TORSDOF 4
ENDMDL
MODEL 3
REMARK VINA RESULT:      -7.0      0.999      1.184
REMARK  Name = 
REMARK  5 active torsions:
REMARK  status: ('A' for Active; 'I' for Inactive)
REMARK    1  A    between atoms: C_1  and  C_2
REMARK    2  A    between atoms: C_2  and  C_3
REMARK    3  A    between atoms: C_4  and  C_5
REMARK    4  A    between atoms: N_7  and  O_8
REMARK    5  A    between atoms: C_9  and  C_10
REMARK                            x       y       z     vdW  Elec       q    Type
REMARK                         _______ _______ _______ _____ _____    ______ ____
ROOT
ATOM      1  C   UNL     1       5.516   4.466  18.706  0.00  0.00    +0.000 C 
ATOM      2  C   UNL     1       4.744   4.456  17.409  0.00  0.00    +0.000 C 
ATOM      3  C   UNL     1       3.429   4.148  17.373  0.00  0.00    +0.000 C 
ENDROOT
BRANCH   3   4
ATOM      4  C   UNL     1       2.606   3.850  18.553  0.00  0.00    +0.000 A 
ATOM      5  C   UNL     1       2.064   4.897  19.308  0.00  0.00    +0.000 A 
ATOM      6  C   UNL     1       1.280   4.625  20.429  0.00  0.00    +0.000 A 
ATOM      7  C   UNL     1       1.033   3.306  20.803  0.00  0.00    +0.000 A 
ATOM      8  C   UNL     1       1.574   2.259  20.058  0.00  0.00    +0.000 A 
ATOM      9  C   UNL     1       2.359   2.528  18.935  0.00  0.00    +0.000 A 
ENDBRANCH   3   4
BRANCH   2  10
ATOM     10  C   UNL     1       5.422   4.793  16.154  0.00  0.00    +0.000 C 
ATOM     11  C   UNL     1       6.139   3.955  15.389  0.00  0.00    +0.000 C 
BRANCH  11  12
ATOM     12  C   UNL     1       6.779   4.413  14.133  0.00  0.00    +0.000 C 
ATOM     13  O   UNL     1       6.504   3.975  13.021  0.00  0.00    +0.000 OA
ATOM     14  N   UNL     1       7.722   5.383  14.341  0.00  0.00    +0.000 N 
ATOM     15  H   UNL     1       8.006   5.755  15.239  0.00  0.00    +0.000 HD
BRANCH  14  16
ATOM     16  O   UNL     1       8.406   5.871  13.206  0.00  0.00    +0.000 OA
ATOM     17  H   UNL     1       8.258   6.840  13.277  0.00  0.00    +0.000 HD
ENDBRANCH  14  16
ENDBRANCH  11  12
ENDBRANCH   2  10
TORSDOF 4
ENDMDL
MODEL 4
REMARK VINA RESULT:      -7.0      1.015      1.257
REMARK  Name = 
REMARK  5 active torsions:
REMARK  status: ('A' for Active; 'I' for Inactive)
REMARK    1  A    between atoms: C_1  and  C_2
REMARK    2  A    between atoms: C_2  and  C_3
REMARK    3  A    between atoms: C_4  and  C_5
REMARK    4  A    between atoms: N_7  and  O_8
REMARK    5  A    between atoms: C_9  and  C_10
REMARK                            x       y       z     vdW  Elec       q    Type
REMARK                         _______ _______ _______ _____ _____    ______ ____
ROOT
ATOM      1  C   UNL     1       5.494   4.429  18.510  0.00  0.00    +0.000 C 
ATOM      2  C   UNL     1       4.638   4.414  17.266  0.00  0.00    +0.000 C 
ATOM      3  C   UNL     1       3.316   4.143  17.323  0.00  0.00    +0.000 C 
ENDROOT
BRANCH   3   4
ATOM      4  C   UNL     1       2.565   3.891  18.560  0.00  0.00    +0.000 A 
ATOM      5  C   UNL     1       2.320   2.575  18.973  0.00  0.00    +0.000 A 
ATOM      6  C   UNL     1       1.610   2.326  20.146  0.00  0.00    +0.000 A 
ATOM      7  C   UNL     1       1.138   3.388  20.915  0.00  0.00    +0.000 A 
ATOM      8  C   UNL     1       1.373   4.700  20.506  0.00  0.00    +0.000 A 
ATOM      9  C   UNL     1       2.085   4.953  19.332  0.00  0.00    +0.000 A 
ENDBRANCH   3   4
BRANCH   2  10
ATOM     10  C   UNL     1       5.241   4.708  15.963  0.00  0.00    +0.000 C 
ATOM     11  C   UNL     1       6.200   3.993  15.353  0.00  0.00    +0.000 C 
BRANCH  11  12
ATOM     12  C   UNL     1       6.732   4.388  14.027  0.00  0.00    +0.000 C 
ATOM     13  O   UNL     1       6.398   3.867  12.969  0.00  0.00    +0.000 OA
ATOM     14  N   UNL     1       7.648   5.403  14.104  0.00  0.00    +0.000 N 
ATOM     15  H   UNL     1       7.978   5.844  14.954  0.00  0.00    +0.000 HD
BRANCH  14  16
ATOM     16  O   UNL     1       8.230   5.838  12.893  0.00  0.00    +0.000 OA
ATOM     17  H   UNL     1       8.837   5.095  12.679  0.00  0.00    +0.000 HD
ENDBRANCH  14  16
ENDBRANCH  11  12
ENDBRANCH   2  10
TORSDOF 4
ENDMDL
MODEL 5
REMARK VINA RESULT:      -7.0      0.959      1.810
REMARK  Name = 
REMARK  5 active torsions:
REMARK  status: ('A' for Active; 'I' for Inactive)
REMARK    1  A    between atoms: C_1  and  C_2
REMARK    2  A    between atoms: C_2  and  C_3
REMARK    3  A    between atoms: C_4  and  C_5
REMARK    4  A    between atoms: N_7  and  O_8
REMARK    5  A    between atoms: C_9  and  C_10
REMARK                            x       y       z     vdW  Elec       q    Type
REMARK                         _______ _______ _______ _____ _____    ______ ____
ROOT
ATOM      1  C   UNL     1       4.140   5.476  17.806  0.00  0.00    +0.000 C 
ATOM      2  C   UNL     1       4.355   4.113  17.194  0.00  0.00    +0.000 C 
ATOM      3  C   UNL     1       3.822   3.000  17.743  0.00  0.00    +0.000 C 
ENDROOT
BRANCH   3   4
ATOM      4  C   UNL     1       2.956   2.985  18.930  0.00  0.00    +0.000 A 
ATOM      5  C   UNL     1       1.578   3.192  18.790  0.00  0.00    +0.000 A 
ATOM      6  C   UNL     1       0.746   3.177  19.910  0.00  0.00    +0.000 A 
ATOM      7  C   UNL     1       1.285   2.956  21.175  0.00  0.00    +0.000 A 
ATOM      8  C   UNL     1       2.657   2.755  21.322  0.00  0.00    +0.000 A 
ATOM      9  C   UNL     1       3.492   2.768  20.203  0.00  0.00    +0.000 A 
ENDBRANCH   3   4
BRANCH   2  10
ATOM     10  C   UNL     1       5.151   3.982  15.970  0.00  0.00    +0.000 C 
ATOM     11  C   UNL     1       5.998   4.897  15.473  0.00  0.00    +0.000 C 
BRANCH  11  12
ATOM     12  C   UNL     1       6.754   4.649  14.222  0.00  0.00    +0.000 C 
ATOM     13  O   UNL     1       7.707   5.324  13.849  0.00  0.00    +0.000 OA
ATOM     14  N   UNL     1       6.273   3.580  13.514  0.00  0.00    +0.000 N 
ATOM     15  H   UNL     1       5.472   3.013  13.764  0.00  0.00    +0.000 HD
BRANCH  14  16
ATOM     16  O   UNL     1       6.914   3.275  12.293  0.00  0.00    +0.000 OA
ATOM     17  H   UNL     1       6.365   3.769  11.644  0.00  0.00    +0.000 HD
ENDBRANCH  14  16
ENDBRANCH  11  12
ENDBRANCH   2  10
TORSDOF 4
ENDMDL
MODEL 6
REMARK VINA RESULT:      -7.0      0.968      1.351
REMARK  Name = 
REMARK  5 active torsions:
REMARK  status: ('A' for Active; 'I' for Inactive)
REMARK    1  A    between atoms: C_1  and  C_2
REMARK    2  A    between atoms: C_2  and  C_3
REMARK    3  A    between atoms: C_4  and  C_5
REMARK    4  A    between atoms: N_7  and  O_8
REMARK    5  A    between atoms: C_9  and  C_10
REMARK                            x       y       z     vdW  Elec       q    Type
REMARK                         _______ _______ _______ _____ _____    ______ ____
ROOT
ATOM      1  C   UNL     1       3.928   5.424  17.686  0.00  0.00    +0.000 C 
ATOM      2  C   UNL     1       4.308   4.046  17.202  0.00  0.00    +0.000 C 
ATOM      3  C   UNL     1       3.861   2.932  17.821  0.00  0.00    +0.000 C 
ENDROOT
BRANCH   3   4
ATOM      4  C   UNL     1       2.940   2.922  18.966  0.00  0.00    +0.000 A 
ATOM      5  C   UNL     1       3.441   2.747  20.262  0.00  0.00    +0.000 A 
ATOM      6  C   UNL     1       2.575   2.739  21.356  0.00  0.00    +0.000 A 
ATOM      7  C   UNL     1       1.206   2.903  21.163  0.00  0.00    +0.000 A 
ATOM      8  C   UNL     1       0.700   3.073  19.874  0.00  0.00    +0.000 A 
ATOM      9  C   UNL     1       1.564   3.083  18.777  0.00  0.00    +0.000 A 
ENDBRANCH   3   4
BRANCH   2  10
ATOM     10  C   UNL     1       5.175   3.899  16.029  0.00  0.00    +0.000 C 
ATOM     11  C   UNL     1       5.788   4.893  15.366  0.00  0.00    +0.000 C 
BRANCH  11  12
ATOM     12  C   UNL     1       6.648   4.620  14.190  0.00  0.00    +0.000 C 
ATOM     13  O   UNL     1       7.652   5.264  13.908  0.00  0.00    +0.000 OA
ATOM     14  N   UNL     1       6.199   3.568  13.438  0.00  0.00    +0.000 N 
ATOM     15  H   UNL     1       5.361   3.027  13.611  0.00  0.00    +0.000 HD
BRANCH  14  16
ATOM     16  O   UNL     1       6.939   3.242  12.280  0.00  0.00    +0.000 OA
ATOM     17  H   UNL     1       7.589   2.593  12.627  0.00  0.00    +0.000 HD
ENDBRANCH  14  16
ENDBRANCH  11  12
ENDBRANCH   2  10
TORSDOF 4
ENDMDL
MODEL 7
REMARK VINA RESULT:      -6.8      1.278      1.650
REMARK  Name = 
REMARK  5 active torsions:
REMARK  status: ('A' for Active; 'I' for Inactive)
REMARK    1  A    between atoms: C_1  and  C_2
REMARK    2  A    between atoms: C_2  and  C_3
REMARK    3  A    between atoms: C_4  and  C_5
REMARK    4  A    between atoms: N_7  and  O_8
REMARK    5  A    between atoms: C_9  and  C_10
REMARK                            x       y       z     vdW  Elec       q    Type
REMARK                         _______ _______ _______ _____ _____    ______ ____
ROOT
ATOM      1  C   UNL     1       5.509   4.492  18.789  0.00  0.00    +0.000 C 
ATOM      2  C   UNL     1       4.747   4.457  17.486  0.00  0.00    +0.000 C 
ATOM      3  C   UNL     1       3.437   4.135  17.442  0.00  0.00    +0.000 C 
ENDROOT
BRANCH   3   4
ATOM      4  C   UNL     1       2.607   3.842  18.618  0.00  0.00    +0.000 A 
ATOM      5  C   UNL     1       2.386   2.514  19.004  0.00  0.00    +0.000 A 
ATOM      6  C   UNL     1       1.602   2.226  20.120  0.00  0.00    +0.000 A 
ATOM      7  C   UNL     1       1.031   3.261  20.858  0.00  0.00    +0.000 A 
ATOM      8  C   UNL     1       1.242   4.586  20.476  0.00  0.00    +0.000 A 
ATOM      9  C   UNL     1       2.028   4.877  19.359  0.00  0.00    +0.000 A 
ENDBRANCH   3   4
BRANCH   2  10
ATOM     10  C   UNL     1       5.433   4.786  16.233  0.00  0.00    +0.000 C 
ATOM     11  C   UNL     1       6.141   3.939  15.469  0.00  0.00    +0.000 C 
BRANCH  11  12
ATOM     12  C   UNL     1       6.790   4.390  14.214  0.00  0.00    +0.000 C 
ATOM     13  O   UNL     1       7.543   5.355  14.138  0.00  0.00    +0.000 OA
ATOM     14  N   UNL     1       6.456   3.616  13.136  0.00  0.00    +0.000 N 
ATOM     15  H   UNL     1       5.817   2.830  13.142  0.00  0.00    +0.000 HD
BRANCH  14  16
ATOM     16  O   UNL     1       7.007   3.979  11.887  0.00  0.00    +0.000 OA
ATOM     17  H   UNL     1       7.218   3.103  11.493  0.00  0.00    +0.000 HD
ENDBRANCH  14  16
ENDBRANCH  11  12
ENDBRANCH   2  10
TORSDOF 4
ENDMDL
MODEL 8
REMARK VINA RESULT:      -6.7      1.292      1.651
REMARK  Name = 
REMARK  5 active torsions:
REMARK  status: ('A' for Active; 'I' for Inactive)
REMARK    1  A    between atoms: C_1  and  C_2
REMARK    2  A    between atoms: C_2  and  C_3
REMARK    3  A    between atoms: C_4  and  C_5
REMARK    4  A    between atoms: N_7  and  O_8
REMARK    5  A    between atoms: C_9  and  C_10
REMARK                            x       y       z     vdW  Elec       q    Type
REMARK                         _______ _______ _______ _____ _____    ______ ____
ROOT
ATOM      1  C   UNL     1       5.410   4.108  18.394  0.00  0.00    +0.000 C 
ATOM      2  C   UNL     1       4.535   4.219  17.169  0.00  0.00    +0.000 C 
ATOM      3  C   UNL     1       3.192   4.100  17.248  0.00  0.00    +0.000 C 
ENDROOT
BRANCH   3   4
ATOM      4  C   UNL     1       2.440   3.909  18.496  0.00  0.00    +0.000 A 
ATOM      5  C   UNL     1       2.151   5.010  19.312  0.00  0.00    +0.000 A 
ATOM      6  C   UNL     1       1.436   4.840  20.497  0.00  0.00    +0.000 A 
ATOM      7  C   UNL     1       1.007   3.571  20.876  0.00  0.00    +0.000 A 
ATOM      8  C   UNL     1       1.296   2.469  20.071  0.00  0.00    +0.000 A 
ATOM      9  C   UNL     1       2.011   2.637  18.883  0.00  0.00    +0.000 A 
ENDBRANCH   3   4
BRANCH   2  10
ATOM     10  C   UNL     1       5.144   4.470  15.860  0.00  0.00    +0.000 C 
ATOM     11  C   UNL     1       6.425   4.246  15.524  0.00  0.00    +0.000 C 
BRANCH  11  12
ATOM     12  C   UNL     1       6.926   4.537  14.159  0.00  0.00    +0.000 C 
ATOM     13  O   UNL     1       7.647   5.489  13.881  0.00  0.00    +0.000 OA
ATOM     14  N   UNL     1       6.495   3.629  13.231  0.00  0.00    +0.000 N 
ATOM     15  H   UNL     1       5.876   2.847  13.405  0.00  0.00    +0.000 HD
BRANCH  14  16
ATOM     16  O   UNL     1       6.901   3.833  11.894  0.00  0.00    +0.000 OA
ATOM     17  H   UNL     1       6.609   3.000  11.461  0.00  0.00    +0.000 HD
ENDBRANCH  14  16
ENDBRANCH  11  12
ENDBRANCH   2  10
TORSDOF 4
ENDMDL
MODEL 9
REMARK VINA RESULT:      -6.6      1.505      1.936
REMARK  Name = 
REMARK  5 active torsions:
REMARK  status: ('A' for Active; 'I' for Inactive)
REMARK    1  A    between atoms: C_1  and  C_2
REMARK    2  A    between atoms: C_2  and  C_3
REMARK    3  A    between atoms: C_4  and  C_5
REMARK    4  A    between atoms: N_7  and  O_8
REMARK    5  A    between atoms: C_9  and  C_10
REMARK                            x       y       z     vdW  Elec       q    Type
REMARK                         _______ _______ _______ _____ _____    ______ ____
ROOT
ATOM      1  C   UNL     1       6.050   5.260  19.076  0.00  0.00    +0.000 C 
ATOM      2  C   UNL     1       5.410   4.630  17.862  0.00  0.00    +0.000 C 
ATOM      3  C   UNL     1       4.242   3.958  17.948  0.00  0.00    +0.000 C 
ENDROOT
BRANCH   3   4
ATOM      4  C   UNL     1       3.451   3.808  19.177  0.00  0.00    +0.000 A 
ATOM      5  C   UNL     1       2.492   4.772  19.511  0.00  0.00    +0.000 A 
ATOM      6  C   UNL     1       1.735   4.638  20.674  0.00  0.00    +0.000 A 
ATOM      7  C   UNL     1       1.930   3.542  21.511  0.00  0.00    +0.000 A 
ATOM      8  C   UNL     1       2.887   2.581  21.187  0.00  0.00    +0.000 A 
ATOM      9  C   UNL     1       3.647   2.712  20.022  0.00  0.00    +0.000 A 
ENDBRANCH   3   4
BRANCH   2  10
ATOM     10  C   UNL     1       6.058   4.751  16.552  0.00  0.00    +0.000 C 
ATOM     11  C   UNL     1       5.737   4.068  15.442  0.00  0.00    +0.000 C 
BRANCH  11  12
ATOM     12  C   UNL     1       6.466   4.280  14.168  0.00  0.00    +0.000 C 
ATOM     13  O   UNL     1       7.213   5.228  13.954  0.00  0.00    +0.000 OA
ATOM     14  N   UNL     1       6.213   3.303  13.243  0.00  0.00    +0.000 N 
ATOM     15  H   UNL     1       5.582   2.520  13.361  0.00  0.00    +0.000 HD
BRANCH  14  16
ATOM     16  O   UNL     1       6.844   3.428  11.986  0.00  0.00    +0.000 OA
ATOM     17  H   UNL     1       7.481   2.680  12.001  0.00  0.00    +0.000 HD
ENDBRANCH  14  16
ENDBRANCH  11  12
ENDBRANCH   2  10
TORSDOF 4
ENDMDL
