MODEL 1
REMARK VINA RESULT:      -7.5      0.000      0.000
REMARK  Name = 
REMARK  11 active torsions:
REMARK  status: ('A' for Active; 'I' for Inactive)
REMARK    1  A    between atoms: C_1  and  O_2
REMARK    2  A    between atoms: O_2  and  C_3
REMARK    3  A    between atoms: C_3  and  C_5
REMARK    4  A    between atoms: C_6  and  O_7
REMARK    5  A    between atoms: C_9  and  O_10
REMARK    6  A    between atoms: C_13  and  C_14
REMARK    7  A    between atoms: C_14  and  C_15
REMARK    8  A    between atoms: C_15  and  C_16
REMARK    9  A    between atoms: N_20  and  C_21
REMARK   10  A    between atoms: C_21  and  C_22
REMARK   11  A    between atoms: C_27  and  C_28
REMARK                            x       y       z     vdW  Elec       q    Type
REMARK                         _______ _______ _______ _____ _____    ______ ____
ROOT
ATOM      1  C   UNL     1       6.191   5.770  16.812  0.00  0.00    +0.000 A 
ATOM      2  C   UNL     1       7.315   6.474  17.296  0.00  0.00    +0.000 A 
ATOM      3  C   UNL     1       7.764   6.305  18.600  0.00  0.00    +0.000 A 
ATOM      4  C   UNL     1       7.124   5.388  19.422  0.00  0.00    +0.000 A 
ATOM      5  C   UNL     1       6.042   4.624  18.947  0.00  0.00    +0.000 A 
ATOM      6 CL   UNL     1       5.356   3.432  20.011  0.00  0.00    +0.000 Cl
ATOM      7  C   UNL     1       5.537   4.809  17.635  0.00  0.00    +0.000 A 
ENDROOT
BRANCH   1   8
ATOM      8  C   UNL     1       5.776   6.096  15.422  0.00  0.00    +0.000 C 
ATOM      9  O   UNL     1       4.841   6.844  15.167  0.00  0.00    +0.000 OA
BRANCH   8  11
ATOM     10  C   UNL     1       5.798   4.219  13.976  0.00  0.00    +0.000 C 
ATOM     11  O   UNL     1       6.471   5.346  14.545  0.00  0.00    +0.000 OA
ENDBRANCH   8  11
ENDBRANCH   1   8
BRANCH   2  12
ATOM     12  O   UNL     1       8.038   7.366  16.544  0.00  0.00    +0.000 OA
ATOM     13  H   UNL     1       8.726   6.877  16.040  0.00  0.00    +0.000 HD
ENDBRANCH   2  12
BRANCH   4  14
ATOM     14  O   UNL     1       7.561   5.234  20.711  0.00  0.00    +0.000 OA
ATOM     15  H   UNL     1       7.590   4.287  20.932  0.00  0.00    +0.000 HD
ENDBRANCH   4  14
BRANCH   7  16
ATOM     16  C   UNL     1       4.367   3.963  17.131  0.00  0.00    +0.000 C 
BRANCH  16  17
ATOM     17  C   UNL     1       2.997   4.687  17.091  0.00  0.00    +0.000 C 
BRANCH  17  18
ATOM     18  C   UNL     1       2.138   4.331  18.277  0.00  0.00    +0.000 A 
ATOM     19  N   UNL     1       1.283   3.322  18.291  0.00  0.00    +0.000 NA
ATOM     20  C   UNL     1       0.756   3.270  19.547  0.00  0.00    +0.000 A 
ATOM     21  C   UNL     1       1.289   4.260  20.331  0.00  0.00    +0.000 A 
ATOM     22  N   UNL     1       2.127   4.974  19.507  0.00  0.00    +0.000 N 
BRANCH  22  23
ATOM     23  C   UNL     1       2.890   6.134  19.958  0.00  0.00    +0.000 C 
BRANCH  23  24
ATOM     24  C   UNL     1       2.307   7.439  19.452  0.00  0.00    +0.000 A 
ATOM     25  C   UNL     1       2.650   7.836  18.145  0.00  0.00    +0.000 A 
ATOM     26  C   UNL     1       2.069   8.952  17.547  0.00  0.00    +0.000 A 
ATOM     27  C   UNL     1       1.131   9.698  18.242  0.00  0.00    +0.000 A 
ATOM     28  C   UNL     1       0.822   9.366  19.559  0.00  0.00    +0.000 A 
ATOM     29  C   UNL     1       1.424   8.260  20.187  0.00  0.00    +0.000 A 
ATOM     30  C   UNL     1       1.069   8.020  21.635  0.00  0.00    +0.000 C 
ENDBRANCH  23  24
ENDBRANCH  22  23
ENDBRANCH  17  18
ENDBRANCH  16  17
ENDBRANCH   7  16
TORSDOF 9
ENDMDL
MODEL 2
REMARK VINA RESULT:      -7.2      2.845      4.695
REMARK  Name = 
REMARK  11 active torsions:
REMARK  status: ('A' for Active; 'I' for Inactive)
REMARK    1  A    between atoms: C_1  and  O_2
REMARK    2  A    between atoms: O_2  and  C_3
REMARK    3  A    between atoms: C_3  and  C_5
REMARK    4  A    between atoms: C_6  and  O_7
REMARK    5  A    between atoms: C_9  and  O_10
REMARK    6  A    between atoms: C_13  and  C_14
REMARK    7  A    between atoms: C_14  and  C_15
REMARK    8  A    between atoms: C_15  and  C_16
REMARK    9  A    between atoms: N_20  and  C_21
REMARK   10  A    between atoms: C_21  and  C_22
REMARK   11  A    between atoms: C_27  and  C_28
REMARK                            x       y       z     vdW  Elec       q    Type
REMARK                         _______ _______ _______ _____ _____    ______ ____
ROOT
ATOM      1  C   UNL     1       4.298   4.735  18.127  0.00  0.00    +0.000 A 
ATOM      2  C   UNL     1       4.359   3.557  17.350  0.00  0.00    +0.000 A 
ATOM      3  C   UNL     1       3.409   2.552  17.488  0.00  0.00    +0.000 A 
ATOM      4  C   UNL     1       2.355   2.736  18.371  0.00  0.00    +0.000 A 
ATOM      5  C   UNL     1       2.230   3.927  19.111  0.00  0.00    +0.000 A 
ATOM      6 CL   UNL     1       0.830   4.114  20.124  0.00  0.00    +0.000 Cl
ATOM      7  C   UNL     1       3.210   4.948  19.021  0.00  0.00    +0.000 A 
ENDROOT
BRANCH   1   8
ATOM      8  C   UNL     1       5.414   5.696  17.930  0.00  0.00    +0.000 C 
ATOM      9  O   UNL     1       5.354   6.632  17.143  0.00  0.00    +0.000 OA
BRANCH   8  11
ATOM     10  C   UNL     1       7.628   6.170  18.629  0.00  0.00    +0.000 C 
ATOM     11  O   UNL     1       6.499   5.291  18.618  0.00  0.00    +0.000 OA
ENDBRANCH   8  11
ENDBRANCH   1   8
BRANCH   2  12
ATOM     12  O   UNL     1       5.338   3.307  16.420  0.00  0.00    +0.000 OA
ATOM     13  H   UNL     1       5.329   4.020  15.745  0.00  0.00    +0.000 HD
ENDBRANCH   2  12
BRANCH   4  14
ATOM     14  O   UNL     1       1.428   1.738  18.514  0.00  0.00    +0.000 OA
ATOM     15  H   UNL     1       0.567   2.125  18.748  0.00  0.00    +0.000 HD
ENDBRANCH   4  14
BRANCH   7  16
ATOM     16  C   UNL     1       3.054   6.240  19.824  0.00  0.00    +0.000 C 
BRANCH  16  17
ATOM     17  C   UNL     1       2.242   7.360  19.123  0.00  0.00    +0.000 C 
BRANCH  17  18
ATOM     18  C   UNL     1       1.546   8.255  20.117  0.00  0.00    +0.000 A 
ATOM     19  N   UNL     1       1.381   7.949  21.394  0.00  0.00    +0.000 NA
ATOM     20  C   UNL     1       0.785   9.025  21.982  0.00  0.00    +0.000 A 
ATOM     21  C   UNL     1       0.574  10.018  21.061  0.00  0.00    +0.000 A 
ATOM     22  N   UNL     1       1.006   9.506  19.859  0.00  0.00    +0.000 N 
BRANCH  22  23
ATOM     23  C   UNL     1       0.943  10.253  18.606  0.00  0.00    +0.000 C 
BRANCH  23  24
ATOM     24  C   UNL     1      -0.478  10.611  18.219  0.00  0.00    +0.000 A 
ATOM     25  C   UNL     1      -1.232   9.627  17.552  0.00  0.00    +0.000 A 
ATOM     26  C   UNL     1      -2.583   9.815  17.266  0.00  0.00    +0.000 A 
ATOM     27  C   UNL     1      -3.211  10.993  17.641  0.00  0.00    +0.000 A 
ATOM     28  C   UNL     1      -2.472  12.007  18.244  0.00  0.00    +0.000 A 
ATOM     29  C   UNL     1      -1.100  11.845  18.511  0.00  0.00    +0.000 A 
ATOM     30  C   UNL     1      -0.376  13.027  19.110  0.00  0.00    +0.000 C 
ENDBRANCH  23  24
ENDBRANCH  22  23
ENDBRANCH  17  18
ENDBRANCH  16  17
ENDBRANCH   7  16
TORSDOF 9
ENDMDL
MODEL 3
REMARK VINA RESULT:      -7.1      2.748      4.130
REMARK  Name = 
REMARK  11 active torsions:
REMARK  status: ('A' for Active; 'I' for Inactive)
REMARK    1  A    between atoms: C_1  and  O_2
REMARK    2  A    between atoms: O_2  and  C_3
REMARK    3  A    between atoms: C_3  and  C_5
REMARK    4  A    between atoms: C_6  and  O_7
REMARK    5  A    between atoms: C_9  and  O_10
REMARK    6  A    between atoms: C_13  and  C_14
REMARK    7  A    between atoms: C_14  and  C_15
REMARK    8  A    between atoms: C_15  and  C_16
REMARK    9  A    between atoms: N_20  and  C_21
REMARK   10  A    between atoms: C_21  and  C_22
REMARK   11  A    between atoms: C_27  and  C_28
REMARK                            x       y       z     vdW  Elec       q    Type
REMARK                         _______ _______ _______ _____ _____    ______ ____
ROOT
ATOM      1  C   UNL     1       4.580   5.288  18.053  0.00  0.00    +0.000 A 
ATOM      2  C   UNL     1       5.387   4.244  18.555  0.00  0.00    +0.000 A 
ATOM      3  C   UNL     1       4.890   3.328  19.474  0.00  0.00    +0.000 A 
ATOM      4  C   UNL     1       3.562   3.415  19.864  0.00  0.00    +0.000 A 
ATOM      5  C   UNL     1       2.715   4.405  19.332  0.00  0.00    +0.000 A 
ATOM      6 CL   UNL     1       1.042   4.387  19.803  0.00  0.00    +0.000 Cl
ATOM      7  C   UNL     1       3.209   5.378  18.426  0.00  0.00    +0.000 A 
ENDROOT
BRANCH   1   8
ATOM      8  C   UNL     1       5.256   6.239  17.130  0.00  0.00    +0.000 C 
ATOM      9  O   UNL     1       5.987   7.138  17.522  0.00  0.00    +0.000 OA
BRANCH   8  11
ATOM     10  C   UNL     1       5.581   5.140  15.056  0.00  0.00    +0.000 C 
ATOM     11  O   UNL     1       4.825   6.042  15.869  0.00  0.00    +0.000 OA
ENDBRANCH   8  11
ENDBRANCH   1   8
BRANCH   2  12
ATOM     12  O   UNL     1       6.697   4.051  18.193  0.00  0.00    +0.000 OA
ATOM     13  H   UNL     1       6.909   4.634  17.430  0.00  0.00    +0.000 HD
ENDBRANCH   2  12
BRANCH   4  14
ATOM     14  O   UNL     1       3.079   2.518  20.781  0.00  0.00    +0.000 OA
ATOM     15  H   UNL     1       3.083   1.626  20.394  0.00  0.00    +0.000 HD
ENDBRANCH   4  14
BRANCH   7  16
ATOM     16  C   UNL     1       2.273   6.441  17.849  0.00  0.00    +0.000 C 
BRANCH  16  17
ATOM     17  C   UNL     1       2.578   7.897  18.286  0.00  0.00    +0.000 C 
BRANCH  17  18
ATOM     18  C   UNL     1       1.751   8.310  19.477  0.00  0.00    +0.000 A 
ATOM     19  N   UNL     1       1.685   7.617  20.602  0.00  0.00    +0.000 NA
ATOM     20  C   UNL     1       0.910   8.338  21.462  0.00  0.00    +0.000 A 
ATOM     21  C   UNL     1       0.487   9.498  20.867  0.00  0.00    +0.000 A 
ATOM     22  N   UNL     1       0.974   9.454  19.582  0.00  0.00    +0.000 N 
BRANCH  22  23
ATOM     23  C   UNL     1       0.734  10.510  18.602  0.00  0.00    +0.000 C 
BRANCH  23  24
ATOM     24  C   UNL     1      -0.741  10.697  18.306  0.00  0.00    +0.000 A 
ATOM     25  C   UNL     1      -1.344   9.779  17.425  0.00  0.00    +0.000 A 
ATOM     26  C   UNL     1      -2.717   9.792  17.188  0.00  0.00    +0.000 A 
ATOM     27  C   UNL     1      -3.520  10.724  17.827  0.00  0.00    +0.000 A 
ATOM     28  C   UNL     1      -2.939  11.683  18.653  0.00  0.00    +0.000 A 
ATOM     29  C   UNL     1      -1.550  11.703  18.878  0.00  0.00    +0.000 A 
ATOM     30  C   UNL     1      -1.013  12.820  19.739  0.00  0.00    +0.000 C 
ENDBRANCH  23  24
ENDBRANCH  22  23
ENDBRANCH  17  18
ENDBRANCH  16  17
ENDBRANCH   7  16
TORSDOF 9
ENDMDL
MODEL 4
REMARK VINA RESULT:      -6.9      2.806      4.876
REMARK  Name = 
REMARK  11 active torsions:
REMARK  status: ('A' for Active; 'I' for Inactive)
REMARK    1  A    between atoms: C_1  and  O_2
REMARK    2  A    between atoms: O_2  and  C_3
REMARK    3  A    between atoms: C_3  and  C_5
REMARK    4  A    between atoms: C_6  and  O_7
REMARK    5  A    between atoms: C_9  and  O_10
REMARK    6  A    between atoms: C_13  and  C_14
REMARK    7  A    between atoms: C_14  and  C_15
REMARK    8  A    between atoms: C_15  and  C_16
REMARK    9  A    between atoms: N_20  and  C_21
REMARK   10  A    between atoms: C_21  and  C_22
REMARK   11  A    between atoms: C_27  and  C_28
REMARK                            x       y       z     vdW  Elec       q    Type
REMARK                         _______ _______ _______ _____ _____    ______ ____
ROOT
ATOM      1  C   UNL     1       4.200   5.762  17.232  0.00  0.00    +0.000 A 
ATOM      2  C   UNL     1       4.357   4.403  16.881  0.00  0.00    +0.000 A 
ATOM      3  C   UNL     1       3.662   3.402  17.548  0.00  0.00    +0.000 A 
ATOM      4  C   UNL     1       2.760   3.753  18.543  0.00  0.00    +0.000 A 
ATOM      5  C   UNL     1       2.533   5.103  18.870  0.00  0.00    +0.000 A 
ATOM      6 CL   UNL     1       1.320   5.460  20.062  0.00  0.00    +0.000 Cl
ATOM      7  C   UNL     1       3.262   6.140  18.234  0.00  0.00    +0.000 A 
ENDROOT
BRANCH   1   8
ATOM      8  C   UNL     1       5.054   6.723  16.486  0.00  0.00    +0.000 C 
ATOM      9  O   UNL     1       4.970   6.886  15.276  0.00  0.00    +0.000 OA
BRANCH   8  11
ATOM     10  C   UNL     1       7.280   6.624  17.295  0.00  0.00    +0.000 C 
ATOM     11  O   UNL     1       5.989   7.242  17.306  0.00  0.00    +0.000 OA
ENDBRANCH   8  11
ENDBRANCH   1   8
BRANCH   2  12
ATOM     12  O   UNL     1       5.191   3.964  15.883  0.00  0.00    +0.000 OA
ATOM     13  H   UNL     1       4.665   3.824  15.064  0.00  0.00    +0.000 HD
ENDBRANCH   2  12
BRANCH   4  14
ATOM     14  O   UNL     1       2.086   2.762  19.207  0.00  0.00    +0.000 OA
ATOM     15  H   UNL     1       2.702   2.284  19.789  0.00  0.00    +0.000 HD
ENDBRANCH   4  14
BRANCH   7  16
ATOM     16  C   UNL     1       2.996   7.603  18.594  0.00  0.00    +0.000 C 
BRANCH  16  17
ATOM     17  C   UNL     1       1.894   8.299  17.755  0.00  0.00    +0.000 C 
BRANCH  17  18
ATOM     18  C   UNL     1       1.865   9.788  17.991  0.00  0.00    +0.000 A 
ATOM     19  N   UNL     1       2.859  10.602  17.673  0.00  0.00    +0.000 NA
ATOM     20  C   UNL     1       2.438  11.866  17.962  0.00  0.00    +0.000 A 
ATOM     21  C   UNL     1       1.164  11.843  18.466  0.00  0.00    +0.000 A 
ATOM     22  N   UNL     1       0.819  10.514  18.540  0.00  0.00    +0.000 N 
BRANCH  22  23
ATOM     23  C   UNL     1      -0.473  10.052  19.041  0.00  0.00    +0.000 C 
BRANCH  23  24
ATOM     24  C   UNL     1      -0.529  10.033  20.556  0.00  0.00    +0.000 A 
ATOM     25  C   UNL     1      -0.015   8.894  21.206  0.00  0.00    +0.000 A 
ATOM     26  C   UNL     1       0.092   8.835  22.594  0.00  0.00    +0.000 A 
ATOM     27  C   UNL     1      -0.314   9.913  23.365  0.00  0.00    +0.000 A 
ATOM     28  C   UNL     1      -0.885  11.024  22.750  0.00  0.00    +0.000 A 
ATOM     29  C   UNL     1      -1.028  11.087  21.352  0.00  0.00    +0.000 A 
ATOM     30  C   UNL     1      -1.716  12.307  20.789  0.00  0.00    +0.000 C 
ENDBRANCH  23  24
ENDBRANCH  22  23
ENDBRANCH  17  18
ENDBRANCH  16  17
ENDBRANCH   7  16
TORSDOF 9
ENDMDL
MODEL 5
REMARK VINA RESULT:      -6.9      3.036      4.904
REMARK  Name = 
REMARK  11 active torsions:
REMARK  status: ('A' for Active; 'I' for Inactive)
REMARK    1  A    between atoms: C_1  and  O_2
REMARK    2  A    between atoms: O_2  and  C_3
REMARK    3  A    between atoms: C_3  and  C_5
REMARK    4  A    between atoms: C_6  and  O_7
REMARK    5  A    between atoms: C_9  and  O_10
REMARK    6  A    between atoms: C_13  and  C_14
REMARK    7  A    between atoms: C_14  and  C_15
REMARK    8  A    between atoms: C_15  and  C_16
REMARK    9  A    between atoms: N_20  and  C_21
REMARK   10  A    between atoms: C_21  and  C_22
REMARK   11  A    between atoms: C_27  and  C_28
REMARK                            x       y       z     vdW  Elec       q    Type
REMARK                         _______ _______ _______ _____ _____    ______ ____
ROOT
ATOM      1  C   UNL     1       3.591   4.486  18.725  0.00  0.00    +0.000 A 
ATOM      2  C   UNL     1       4.798   3.765  18.859  0.00  0.00    +0.000 A 
ATOM      3  C   UNL     1       5.915   4.080  18.095  0.00  0.00    +0.000 A 
ATOM      4  C   UNL     1       5.854   5.157  17.222  0.00  0.00    +0.000 A 
ATOM      5  C   UNL     1       4.687   5.936  17.114  0.00  0.00    +0.000 A 
ATOM      6 CL   UNL     1       4.726   7.321  16.066  0.00  0.00    +0.000 Cl
ATOM      7  C   UNL     1       3.520   5.608  17.850  0.00  0.00    +0.000 A 
ENDROOT
BRANCH   1   8
ATOM      8  C   UNL     1       2.454   4.001  19.551  0.00  0.00    +0.000 C 
ATOM      9  O   UNL     1       1.427   3.547  19.065  0.00  0.00    +0.000 OA
BRANCH   8  11
ATOM     10  C   UNL     1       2.113   3.378  21.811  0.00  0.00    +0.000 C 
ATOM     11  O   UNL     1       2.678   4.275  20.851  0.00  0.00    +0.000 OA
ENDBRANCH   8  11
ENDBRANCH   1   8
BRANCH   2  12
ATOM     12  O   UNL     1       4.966   2.715  19.728  0.00  0.00    +0.000 OA
ATOM     13  H   UNL     1       4.351   1.990  19.478  0.00  0.00    +0.000 HD
ENDBRANCH   2  12
BRANCH   4  14
ATOM     14  O   UNL     1       6.953   5.456  16.461  0.00  0.00    +0.000 OA
ATOM     15  H   UNL     1       6.962   6.409  16.264  0.00  0.00    +0.000 HD
ENDBRANCH   4  14
BRANCH   7  16
ATOM     16  C   UNL     1       2.263   6.471  17.728  0.00  0.00    +0.000 C 
BRANCH  16  17
ATOM     17  C   UNL     1       2.451   7.966  18.089  0.00  0.00    +0.000 C 
BRANCH  17  18
ATOM     18  C   UNL     1       1.744   8.328  19.370  0.00  0.00    +0.000 A 
ATOM     19  N   UNL     1       1.733   7.560  20.447  0.00  0.00    +0.000 NA
ATOM     20  C   UNL     1       1.066   8.250  21.415  0.00  0.00    +0.000 A 
ATOM     21  C   UNL     1       0.655   9.468  20.938  0.00  0.00    +0.000 A 
ATOM     22  N   UNL     1       1.035   9.495  19.617  0.00  0.00    +0.000 N 
BRANCH  22  23
ATOM     23  C   UNL     1       0.770  10.628  18.735  0.00  0.00    +0.000 C 
BRANCH  23  24
ATOM     24  C   UNL     1      -0.701  10.765  18.400  0.00  0.00    +0.000 A 
ATOM     25  C   UNL     1      -1.237   9.860  17.463  0.00  0.00    +0.000 A 
ATOM     26  C   UNL     1      -2.602   9.826  17.183  0.00  0.00    +0.000 A 
ATOM     27  C   UNL     1      -3.463  10.696  17.833  0.00  0.00    +0.000 A 
ATOM     28  C   UNL     1      -2.950  11.644  18.714  0.00  0.00    +0.000 A 
ATOM     29  C   UNL     1      -1.570  11.712  18.984  0.00  0.00    +0.000 A 
ATOM     30  C   UNL     1      -1.108  12.815  19.907  0.00  0.00    +0.000 C 
ENDBRANCH  23  24
ENDBRANCH  22  23
ENDBRANCH  17  18
ENDBRANCH  16  17
ENDBRANCH   7  16
TORSDOF 9
ENDMDL
MODEL 6
REMARK VINA RESULT:      -6.9      2.920      4.776
REMARK  Name = 
REMARK  11 active torsions:
REMARK  status: ('A' for Active; 'I' for Inactive)
REMARK    1  A    between atoms: C_1  and  O_2
REMARK    2  A    between atoms: O_2  and  C_3
REMARK    3  A    between atoms: C_3  and  C_5
REMARK    4  A    between atoms: C_6  and  O_7
REMARK    5  A    between atoms: C_9  and  O_10
REMARK    6  A    between atoms: C_13  and  C_14
REMARK    7  A    between atoms: C_14  and  C_15
REMARK    8  A    between atoms: C_15  and  C_16
REMARK    9  A    between atoms: N_20  and  C_21
REMARK   10  A    between atoms: C_21  and  C_22
REMARK   11  A    between atoms: C_27  and  C_28
REMARK                            x       y       z     vdW  Elec       q    Type
REMARK                         _______ _______ _______ _____ _____    ______ ____
ROOT
ATOM      1  C   UNL     1       4.233   4.771  18.340  0.00  0.00    +0.000 A 
ATOM      2  C   UNL     1       4.361   3.620  17.533  0.00  0.00    +0.000 A 
ATOM      3  C   UNL     1       3.443   2.580  17.609  0.00  0.00    +0.000 A 
ATOM      4  C   UNL     1       2.354   2.701  18.459  0.00  0.00    +0.000 A 
ATOM      5  C   UNL     1       2.163   3.865  19.229  0.00  0.00    +0.000 A 
ATOM      6 CL   UNL     1       0.724   3.974  20.197  0.00  0.00    +0.000 Cl
ATOM      7  C   UNL     1       3.108   4.921  19.201  0.00  0.00    +0.000 A 
ENDROOT
BRANCH   1   8
ATOM      8  C   UNL     1       5.321   5.776  18.210  0.00  0.00    +0.000 C 
ATOM      9  O   UNL     1       5.332   6.633  17.337  0.00  0.00    +0.000 OA
BRANCH   8  11
ATOM     10  C   UNL     1       7.654   5.699  18.620  0.00  0.00    +0.000 C 
ATOM     11  O   UNL     1       6.313   5.497  19.077  0.00  0.00    +0.000 OA
ENDBRANCH   8  11
ENDBRANCH   1   8
BRANCH   2  12
ATOM     12  O   UNL     1       5.380   3.431  16.631  0.00  0.00    +0.000 OA
ATOM     13  H   UNL     1       5.031   2.945  15.852  0.00  0.00    +0.000 HD
ENDBRANCH   2  12
BRANCH   4  14
ATOM     14  O   UNL     1       1.458   1.668  18.542  0.00  0.00    +0.000 OA
ATOM     15  H   UNL     1       0.614   1.938  18.140  0.00  0.00    +0.000 HD
ENDBRANCH   4  14
BRANCH   7  16
ATOM     16  C   UNL     1       2.880   6.183  20.036  0.00  0.00    +0.000 C 
BRANCH  16  17
ATOM     17  C   UNL     1       2.214   7.362  19.281  0.00  0.00    +0.000 C 
BRANCH  17  18
ATOM     18  C   UNL     1       1.486   8.290  20.220  0.00  0.00    +0.000 A 
ATOM     19  N   UNL     1       1.363   8.074  21.520  0.00  0.00    +0.000 NA
ATOM     20  C   UNL     1       0.717   9.156  22.038  0.00  0.00    +0.000 A 
ATOM     21  C   UNL     1       0.433  10.063  21.050  0.00  0.00    +0.000 A 
ATOM     22  N   UNL     1       0.871   9.486  19.881  0.00  0.00    +0.000 N 
BRANCH  22  23
ATOM     23  C   UNL     1       0.743  10.131  18.577  0.00  0.00    +0.000 C 
BRANCH  23  24
ATOM     24  C   UNL     1       0.775  11.643  18.677  0.00  0.00    +0.000 A 
ATOM     25  C   UNL     1       2.039  12.256  18.770  0.00  0.00    +0.000 A 
ATOM     26  C   UNL     1       2.180  13.642  18.741  0.00  0.00    +0.000 A 
ATOM     27  C   UNL     1       1.058  14.448  18.618  0.00  0.00    +0.000 A 
ATOM     28  C   UNL     1      -0.208  13.868  18.590  0.00  0.00    +0.000 A 
ATOM     29  C   UNL     1      -0.367  12.471  18.650  0.00  0.00    +0.000 A 
ATOM     30  C   UNL     1      -1.783  11.946  18.675  0.00  0.00    +0.000 C 
ENDBRANCH  23  24
ENDBRANCH  22  23
ENDBRANCH  17  18
ENDBRANCH  16  17
ENDBRANCH   7  16
TORSDOF 9
ENDMDL
MODEL 7
REMARK VINA RESULT:      -6.8      1.816      3.372
REMARK  Name = 
REMARK  11 active torsions:
REMARK  status: ('A' for Active; 'I' for Inactive)
REMARK    1  A    between atoms: C_1  and  O_2
REMARK    2  A    between atoms: O_2  and  C_3
REMARK    3  A    between atoms: C_3  and  C_5
REMARK    4  A    between atoms: C_6  and  O_7
REMARK    5  A    between atoms: C_9  and  O_10
REMARK    6  A    between atoms: C_13  and  C_14
REMARK    7  A    between atoms: C_14  and  C_15
REMARK    8  A    between atoms: C_15  and  C_16
REMARK    9  A    between atoms: N_20  and  C_21
REMARK   10  A    between atoms: C_21  and  C_22
REMARK   11  A    between atoms: C_27  and  C_28
REMARK                            x       y       z     vdW  Elec       q    Type
REMARK                         _______ _______ _______ _____ _____    ______ ____
ROOT
ATOM      1  C   UNL     1       5.886   4.333  17.953  0.00  0.00    +0.000 A 
ATOM      2  C   UNL     1       7.216   4.796  17.845  0.00  0.00    +0.000 A 
ATOM      3  C   UNL     1       7.797   5.033  16.606  0.00  0.00    +0.000 A 
ATOM      4  C   UNL     1       7.037   4.859  15.458  0.00  0.00    +0.000 A 
ATOM      5  C   UNL     1       5.689   4.462  15.537  0.00  0.00    +0.000 A 
ATOM      6 CL   UNL     1       4.782   4.358  14.058  0.00  0.00    +0.000 Cl
ATOM      7  C   UNL     1       5.085   4.171  16.787  0.00  0.00    +0.000 A 
ENDROOT
BRANCH   1   8
ATOM      8  C   UNL     1       5.411   4.053  19.334  0.00  0.00    +0.000 C 
ATOM      9  O   UNL     1       5.294   4.924  20.186  0.00  0.00    +0.000 OA
BRANCH   8  11
ATOM     10  C   UNL     1       4.240   2.284  20.391  0.00  0.00    +0.000 C 
ATOM     11  O   UNL     1       5.285   2.724  19.518  0.00  0.00    +0.000 OA
ENDBRANCH   8  11
ENDBRANCH   1   8
BRANCH   2  12
ATOM     12  O   UNL     1       8.029   5.039  18.924  0.00  0.00    +0.000 OA
ATOM     13  H   UNL     1       8.924   5.284  18.602  0.00  0.00    +0.000 HD
ENDBRANCH   2  12
BRANCH   4  14
ATOM     14  O   UNL     1       7.618   5.082  14.237  0.00  0.00    +0.000 OA
ATOM     15  H   UNL     1       8.228   4.354  14.031  0.00  0.00    +0.000 HD
ENDBRANCH   4  14
BRANCH   7  16
ATOM     16  C   UNL     1       3.616   3.751  16.855  0.00  0.00    +0.000 C 
BRANCH  16  17
ATOM     17  C   UNL     1       2.628   4.869  17.274  0.00  0.00    +0.000 C 
BRANCH  17  18
ATOM     18  C   UNL     1       1.931   4.545  18.571  0.00  0.00    +0.000 A 
ATOM     19  N   UNL     1       1.177   3.473  18.753  0.00  0.00    +0.000 NA
ATOM     20  C   UNL     1       0.787   3.484  20.059  0.00  0.00    +0.000 A 
ATOM     21  C   UNL     1       1.305   4.577  20.704  0.00  0.00    +0.000 A 
ATOM     22  N   UNL     1       1.986   5.286  19.742  0.00  0.00    +0.000 N 
BRANCH  22  23
ATOM     23  C   UNL     1       2.682   6.539  20.019  0.00  0.00    +0.000 C 
BRANCH  23  24
ATOM     24  C   UNL     1       1.743   7.729  20.029  0.00  0.00    +0.000 A 
ATOM     25  C   UNL     1       0.961   7.925  21.183  0.00  0.00    +0.000 A 
ATOM     26  C   UNL     1       0.162   9.056  21.338  0.00  0.00    +0.000 A 
ATOM     27  C   UNL     1       0.126  10.019  20.342  0.00  0.00    +0.000 A 
ATOM     28  C   UNL     1       0.840   9.818  19.163  0.00  0.00    +0.000 A 
ATOM     29  C   UNL     1       1.627   8.666  18.979  0.00  0.00    +0.000 A 
ATOM     30  C   UNL     1       2.312   8.513  17.642  0.00  0.00    +0.000 C 
ENDBRANCH  23  24
ENDBRANCH  22  23
ENDBRANCH  17  18
ENDBRANCH  16  17
ENDBRANCH   7  16
TORSDOF 9
ENDMDL
MODEL 8
REMARK VINA RESULT:      -6.8      3.191      5.294
REMARK  Name = 
REMARK  11 active torsions:
REMARK  status: ('A' for Active; 'I' for Inactive)
REMARK    1  A    between atoms: C_1  and  O_2
REMARK    2  A    between atoms: O_2  and  C_3
REMARK    3  A    between atoms: C_3  and  C_5
REMARK    4  A    between atoms: C_6  and  O_7
REMARK    5  A    between atoms: C_9  and  O_10
REMARK    6  A    between atoms: C_13  and  C_14
REMARK    7  A    between atoms: C_14  and  C_15
REMARK    8  A    between atoms: C_15  and  C_16
REMARK    9  A    between atoms: N_20  and  C_21
REMARK   10  A    between atoms: C_21  and  C_22
REMARK   11  A    between atoms: C_27  and  C_28
REMARK                            x       y       z     vdW  Elec       q    Type
REMARK                         _______ _______ _______ _____ _____    ______ ____
ROOT
ATOM      1  C   UNL     1       2.911   4.088  18.569  0.00  0.00    +0.000 A 
ATOM      2  C   UNL     1       3.273   3.015  17.725  0.00  0.00    +0.000 A 
ATOM      3  C   UNL     1       4.164   3.195  16.674  0.00  0.00    +0.000 A 
ATOM      4  C   UNL     1       4.744   4.441  16.485  0.00  0.00    +0.000 A 
ATOM      5  C   UNL     1       4.452   5.513  17.350  0.00  0.00    +0.000 A 
ATOM      6 CL   UNL     1       5.292   7.014  17.099  0.00  0.00    +0.000 Cl
ATOM      7  C   UNL     1       3.514   5.367  18.403  0.00  0.00    +0.000 A 
ENDROOT
BRANCH   1   8
ATOM      8  C   UNL     1       1.896   3.775  19.610  0.00  0.00    +0.000 C 
ATOM      9  O   UNL     1       0.693   3.778  19.387  0.00  0.00    +0.000 OA
BRANCH   8  11
ATOM     10  C   UNL     1       1.871   2.766  21.755  0.00  0.00    +0.000 C 
ATOM     11  O   UNL     1       2.493   3.644  20.811  0.00  0.00    +0.000 OA
ENDBRANCH   8  11
ENDBRANCH   1   8
BRANCH   2  12
ATOM     12  O   UNL     1       2.786   1.739  17.862  0.00  0.00    +0.000 OA
ATOM     13  H   UNL     1       3.516   1.146  18.148  0.00  0.00    +0.000 HD
ENDBRANCH   2  12
BRANCH   4  14
ATOM     14  O   UNL     1       5.611   4.618  15.440  0.00  0.00    +0.000 OA
ATOM     15  H   UNL     1       6.240   3.877  15.411  0.00  0.00    +0.000 HD
ENDBRANCH   4  14
BRANCH   7  16
ATOM     16  C   UNL     1       3.217   6.539  19.340  0.00  0.00    +0.000 C 
BRANCH  16  17
ATOM     17  C   UNL     1       2.194   7.572  18.801  0.00  0.00    +0.000 C 
BRANCH  17  18
ATOM     18  C   UNL     1       1.531   8.339  19.916  0.00  0.00    +0.000 A 
ATOM     19  N   UNL     1       1.458   7.908  21.165  0.00  0.00    +0.000 NA
ATOM     20  C   UNL     1       0.862   8.898  21.888  0.00  0.00    +0.000 A 
ATOM     21  C   UNL     1       0.559   9.965  21.082  0.00  0.00    +0.000 A 
ATOM     22  N   UNL     1       0.932   9.586  19.813  0.00  0.00    +0.000 N 
BRANCH  22  23
ATOM     23  C   UNL     1       0.764  10.445  18.644  0.00  0.00    +0.000 C 
BRANCH  23  24
ATOM     24  C   UNL     1      -0.695  10.678  18.305  0.00  0.00    +0.000 A 
ATOM     25  C   UNL     1      -1.340   9.701  17.522  0.00  0.00    +0.000 A 
ATOM     26  C   UNL     1      -2.708   9.763  17.263  0.00  0.00    +0.000 A 
ATOM     27  C   UNL     1      -3.463  10.803  17.780  0.00  0.00    +0.000 A 
ATOM     28  C   UNL     1      -2.838  11.817  18.503  0.00  0.00    +0.000 A 
ATOM     29  C   UNL     1      -1.452  11.785  18.747  0.00  0.00    +0.000 A 
ATOM     30  C   UNL     1      -0.862  12.962  19.486  0.00  0.00    +0.000 C 
ENDBRANCH  23  24
ENDBRANCH  22  23
ENDBRANCH  17  18
ENDBRANCH  16  17
ENDBRANCH   7  16
TORSDOF 9
ENDMDL
MODEL 9
REMARK VINA RESULT:      -6.8      3.413      5.173
REMARK  Name = 
REMARK  11 active torsions:
REMARK  status: ('A' for Active; 'I' for Inactive)
REMARK    1  A    between atoms: C_1  and  O_2
REMARK    2  A    between atoms: O_2  and  C_3
REMARK    3  A    between atoms: C_3  and  C_5
REMARK    4  A    between atoms: C_6  and  O_7
REMARK    5  A    between atoms: C_9  and  O_10
REMARK    6  A    between atoms: C_13  and  C_14
REMARK    7  A    between atoms: C_14  and  C_15
REMARK    8  A    between atoms: C_15  and  C_16
REMARK    9  A    between atoms: N_20  and  C_21
REMARK   10  A    between atoms: C_21  and  C_22
REMARK   11  A    between atoms: C_27  and  C_28
REMARK                            x       y       z     vdW  Elec       q    Type
REMARK                         _______ _______ _______ _____ _____    ______ ____
ROOT
ATOM      1  C   UNL     1       4.421   5.867  17.762  0.00  0.00    +0.000 A 
ATOM      2  C   UNL     1       4.534   4.533  18.210  0.00  0.00    +0.000 A 
ATOM      3  C   UNL     1       3.830   4.085  19.322  0.00  0.00    +0.000 A 
ATOM      4  C   UNL     1       2.963   4.954  19.969  0.00  0.00    +0.000 A 
ATOM      5  C   UNL     1       2.781   6.271  19.505  0.00  0.00    +0.000 A 
ATOM      6 CL   UNL     1       1.608   7.265  20.316  0.00  0.00    +0.000 Cl
ATOM      7  C   UNL     1       3.520   6.765  18.400  0.00  0.00    +0.000 A 
ENDROOT
BRANCH   1   8
ATOM      8  C   UNL     1       5.281   6.233  16.605  0.00  0.00    +0.000 C 
ATOM      9  O   UNL     1       4.833   6.454  15.488  0.00  0.00    +0.000 OA
BRANCH   8  11
ATOM     10  C   UNL     1       7.215   7.318  17.441  0.00  0.00    +0.000 C 
ATOM     11  O   UNL     1       6.581   6.134  16.947  0.00  0.00    +0.000 OA
ENDBRANCH   8  11
ENDBRANCH   1   8
BRANCH   2  12
ATOM     12  O   UNL     1       5.330   3.590  17.609  0.00  0.00    +0.000 OA
ATOM     13  H   UNL     1       5.786   3.065  18.303  0.00  0.00    +0.000 HD
ENDBRANCH   2  12
BRANCH   4  14
ATOM     14  O   UNL     1       2.281   4.513  21.071  0.00  0.00    +0.000 OA
ATOM     15  H   UNL     1       1.949   3.614  20.909  0.00  0.00    +0.000 HD
ENDBRANCH   4  14
BRANCH   7  16
ATOM     16  C   UNL     1       3.301   8.195  17.904  0.00  0.00    +0.000 C 
BRANCH  16  17
ATOM     17  C   UNL     1       1.821   8.645  17.818  0.00  0.00    +0.000 C 
BRANCH  17  18
ATOM     18  C   UNL     1       1.655  10.102  18.169  0.00  0.00    +0.000 A 
ATOM     19  N   UNL     1       2.598  11.013  17.992  0.00  0.00    +0.000 NA
ATOM     20  C   UNL     1       2.057  12.213  18.350  0.00  0.00    +0.000 A 
ATOM     21  C   UNL     1       0.758  12.050  18.755  0.00  0.00    +0.000 A 
ATOM     22  N   UNL     1       0.518  10.697  18.696  0.00  0.00    +0.000 N 
BRANCH  22  23
ATOM     23  C   UNL     1      -0.762  10.098  19.063  0.00  0.00    +0.000 C 
BRANCH  23  24
ATOM     24  C   UNL     1      -1.866  10.457  18.088  0.00  0.00    +0.000 A 
ATOM     25  C   UNL     1      -1.870   9.797  16.845  0.00  0.00    +0.000 A 
ATOM     26  C   UNL     1      -2.910   9.967  15.934  0.00  0.00    +0.000 A 
ATOM     27  C   UNL     1      -3.972  10.802  16.245  0.00  0.00    +0.000 A 
ATOM     28  C   UNL     1      -3.960  11.516  17.440  0.00  0.00    +0.000 A 
ATOM     29  C   UNL     1      -2.901  11.379  18.357  0.00  0.00    +0.000 A 
ATOM     30  C   UNL     1      -2.952  12.244  19.594  0.00  0.00    +0.000 C 
ENDBRANCH  23  24
ENDBRANCH  22  23
ENDBRANCH  17  18
ENDBRANCH  16  17
ENDBRANCH   7  16
TORSDOF 9
ENDMDL
