MODEL 1
REMARK VINA RESULT:      -8.5      0.000      0.000
REMARK  Name = 
REMARK  11 active torsions:
REMARK  status: ('A' for Active; 'I' for Inactive)
REMARK    1  A    between atoms: C_1  and  O_2
REMARK    2  A    between atoms: O_2  and  C_3
REMARK    3  A    between atoms: C_5  and  C_6
REMARK    4  A    between atoms: C_6  and  C_7
REMARK    5  A    between atoms: C_7  and  C_8
REMARK    6  A    between atoms: N_10  and  C_11
REMARK    7  A    between atoms: C_14  and  C_15
REMARK    8  A    between atoms: N_17  and  O_18
REMARK    9  A    between atoms: C_23  and  O_24
REMARK   10  A    between atoms: O_24  and  C_25
REMARK   11  A    between atoms: C_25  and  C_26
REMARK                            x       y       z     vdW  Elec       q    Type
REMARK                         _______ _______ _______ _____ _____    ______ ____
ROOT
ATOM      1  C   UNL     1       8.066   7.455  18.473  0.00  0.00    +0.000 C 
ENDROOT
BRANCH   1   4
ATOM      2  C   UNL     1       5.900   5.162  16.353  0.00  0.00    +0.000 A 
ATOM      3  C   UNL     1       6.685   6.245  16.764  0.00  0.00    +0.000 A 
ATOM      4  C   UNL     1       7.098   6.376  18.093  0.00  0.00    +0.000 A 
ATOM      5  C   UNL     1       6.637   5.471  19.041  0.00  0.00    +0.000 A 
ATOM      6  C   UNL     1       5.787   4.444  18.658  0.00  0.00    +0.000 A 
ATOM      7  C   UNL     1       5.380   4.289  17.323  0.00  0.00    +0.000 A 
BRANCH   2   9
ATOM      8  C   UNL     1       6.788   4.667  14.217  0.00  0.00    +0.000 C 
ATOM      9  O   UNL     1       5.634   4.925  15.026  0.00  0.00    +0.000 OA
ENDBRANCH   2   9
BRANCH   7  10
ATOM     10  O   UNL     1       4.482   3.306  16.943  0.00  0.00    +0.000 OA
BRANCH  10  11
ATOM     11  C   UNL     1       3.113   3.740  17.033  0.00  0.00    +0.000 C 
BRANCH  11  12
ATOM     12  C   UNL     1       2.481   3.677  18.402  0.00  0.00    +0.000 A 
ATOM     13  C   UNL     1       2.201   2.456  19.023  0.00  0.00    +0.000 A 
ATOM     14  C   UNL     1       1.600   2.427  20.285  0.00  0.00    +0.000 A 
ATOM     15  C   UNL     1       1.276   3.614  20.942  0.00  0.00    +0.000 A 
ATOM     16  C   UNL     1       1.565   4.838  20.343  0.00  0.00    +0.000 A 
ATOM     17  C   UNL     1       2.167   4.869  19.085  0.00  0.00    +0.000 A 
ATOM     18 CL   UNL     1       2.513   6.426  18.406  0.00  0.00    +0.000 Cl
ENDBRANCH  11  12
ENDBRANCH  10  11
ENDBRANCH   7  10
ENDBRANCH   1   4
BRANCH   1  19
ATOM     19  C   UNL     1       7.816   8.744  17.683  0.00  0.00    +0.000 C 
BRANCH  19  20
ATOM     20  C   UNL     1       8.621   9.861  18.301  0.00  0.00    +0.000 C 
ATOM     21  O   UNL     1       9.313   9.666  19.293  0.00  0.00    +0.000 OA
ATOM     22  N   UNL     1       8.464  11.074  17.654  0.00  0.00    +0.000 N 
ATOM     23  H   UNL     1       7.698  11.165  16.997  0.00  0.00    +0.000 HD
BRANCH  22  24
ATOM     24  C   UNL     1       9.207  12.235  17.950  0.00  0.00    +0.000 A 
ATOM     25  C   UNL     1      10.590  12.201  18.164  0.00  0.00    +0.000 A 
ATOM     26  C   UNL     1      11.299  13.359  18.473  0.00  0.00    +0.000 A 
ATOM     27  C   UNL     1      10.628  14.578  18.574  0.00  0.00    +0.000 A 
ATOM     28  C   UNL     1       9.251  14.633  18.324  0.00  0.00    +0.000 A 
ATOM     29  C   UNL     1       8.543  13.464  18.007  0.00  0.00    +0.000 A 
BRANCH  27  30
ATOM     30  C   UNL     1      11.366  15.825  18.895  0.00  0.00    +0.000 C 
ATOM     31  O   UNL     1      12.333  15.830  19.647  0.00  0.00    +0.000 OA
ATOM     32  N   UNL     1      10.908  16.973  18.274  0.00  0.00    +0.000 N 
ATOM     33  H   UNL     1      10.342  16.964  17.434  0.00  0.00    +0.000 HD
BRANCH  32  34
ATOM     34  O   UNL     1      11.665  18.142  18.513  0.00  0.00    +0.000 OA
ATOM     35  H   UNL     1      10.978  18.774  18.819  0.00  0.00    +0.000 HD
ENDBRANCH  32  34
ENDBRANCH  27  30
ENDBRANCH  22  24
ENDBRANCH  19  20
ENDBRANCH   1  19
TORSDOF 10
ENDMDL
MODEL 2
REMARK VINA RESULT:      -8.4      6.682      9.769
REMARK  Name = 
REMARK  11 active torsions:
REMARK  status: ('A' for Active; 'I' for Inactive)
REMARK    1  A    between atoms: C_1  and  O_2
REMARK    2  A    between atoms: O_2  and  C_3
REMARK    3  A    between atoms: C_5  and  C_6
REMARK    4  A    between atoms: C_6  and  C_7
REMARK    5  A    between atoms: C_7  and  C_8
REMARK    6  A    between atoms: N_10  and  C_11
REMARK    7  A    between atoms: C_14  and  C_15
REMARK    8  A    between atoms: N_17  and  O_18
REMARK    9  A    between atoms: C_23  and  O_24
REMARK   10  A    between atoms: O_24  and  C_25
REMARK   11  A    between atoms: C_25  and  C_26
REMARK                            x       y       z     vdW  Elec       q    Type
REMARK                         _______ _______ _______ _____ _____    ______ ____
ROOT
ATOM      1  C   UNL     1       2.184   6.425  20.995  0.00  0.00    +0.000 C 
ENDROOT
BRANCH   1   4
ATOM      2  C   UNL     1       0.640   9.847  21.596  0.00  0.00    +0.000 A 
ATOM      3  C   UNL     1       1.061   8.525  21.785  0.00  0.00    +0.000 A 
ATOM      4  C   UNL     1       1.596   7.779  20.730  0.00  0.00    +0.000 A 
ATOM      5  C   UNL     1       1.618   8.324  19.453  0.00  0.00    +0.000 A 
ATOM      6  C   UNL     1       1.123   9.602  19.240  0.00  0.00    +0.000 A 
ATOM      7  C   UNL     1       0.600  10.370  20.292  0.00  0.00    +0.000 A 
BRANCH   2   9
ATOM      8  C   UNL     1      -1.033  10.397  23.175  0.00  0.00    +0.000 C 
ATOM      9  O   UNL     1       0.277  10.647  22.651  0.00  0.00    +0.000 OA
ENDBRANCH   2   9
BRANCH   7  10
ATOM     10  O   UNL     1       0.045  11.620  20.079  0.00  0.00    +0.000 OA
BRANCH  10  11
ATOM     11  C   UNL     1      -0.328  11.836  18.706  0.00  0.00    +0.000 C 
BRANCH  11  12
ATOM     12  C   UNL     1      -1.733  11.437  18.325  0.00  0.00    +0.000 A 
ATOM     13  C   UNL     1      -1.980  10.501  17.317  0.00  0.00    +0.000 A 
ATOM     14  C   UNL     1      -3.291  10.162  16.973  0.00  0.00    +0.000 A 
ATOM     15  C   UNL     1      -4.371  10.750  17.633  0.00  0.00    +0.000 A 
ATOM     16  C   UNL     1      -4.140  11.671  18.652  0.00  0.00    +0.000 A 
ATOM     17  C   UNL     1      -2.832  12.008  18.999  0.00  0.00    +0.000 A 
ATOM     18 CL   UNL     1      -2.618  13.149  20.286  0.00  0.00    +0.000 Cl
ENDBRANCH  11  12
ENDBRANCH  10  11
ENDBRANCH   7  10
ENDBRANCH   1   4
BRANCH   1  19
ATOM     19  C   UNL     1       1.381   5.316  20.307  0.00  0.00    +0.000 C 
BRANCH  19  20
ATOM     20  C   UNL     1       2.041   4.976  18.994  0.00  0.00    +0.000 C 
ATOM     21  O   UNL     1       1.405   4.464  18.081  0.00  0.00    +0.000 OA
ATOM     22  N   UNL     1       3.392   5.277  18.964  0.00  0.00    +0.000 N 
ATOM     23  H   UNL     1       3.852   5.479  19.844  0.00  0.00    +0.000 HD
BRANCH  22  24
ATOM     24  C   UNL     1       4.202   5.183  17.814  0.00  0.00    +0.000 A 
ATOM     25  C   UNL     1       4.488   6.292  17.010  0.00  0.00    +0.000 A 
ATOM     26  C   UNL     1       5.276   6.168  15.868  0.00  0.00    +0.000 A 
ATOM     27  C   UNL     1       5.794   4.923  15.512  0.00  0.00    +0.000 A 
ATOM     28  C   UNL     1       5.547   3.813  16.329  0.00  0.00    +0.000 A 
ATOM     29  C   UNL     1       4.757   3.943  17.481  0.00  0.00    +0.000 A 
BRANCH  27  30
ATOM     30  C   UNL     1       6.641   4.772  14.304  0.00  0.00    +0.000 C 
ATOM     31  O   UNL     1       6.336   4.018  13.387  0.00  0.00    +0.000 OA
ATOM     32  N   UNL     1       7.783   5.552  14.268  0.00  0.00    +0.000 N 
ATOM     33  H   UNL     1       7.905   6.387  14.827  0.00  0.00    +0.000 HD
BRANCH  32  34
ATOM     34  O   UNL     1       8.543   5.470  13.080  0.00  0.00    +0.000 OA
ATOM     35  H   UNL     1       9.323   6.028  13.294  0.00  0.00    +0.000 HD
ENDBRANCH  32  34
ENDBRANCH  27  30
ENDBRANCH  22  24
ENDBRANCH  19  20
ENDBRANCH   1  19
TORSDOF 10
ENDMDL
MODEL 3
REMARK VINA RESULT:      -8.2      6.685      8.804
REMARK  Name = 
REMARK  11 active torsions:
REMARK  status: ('A' for Active; 'I' for Inactive)
REMARK    1  A    between atoms: C_1  and  O_2
REMARK    2  A    between atoms: O_2  and  C_3
REMARK    3  A    between atoms: C_5  and  C_6
REMARK    4  A    between atoms: C_6  and  C_7
REMARK    5  A    between atoms: C_7  and  C_8
REMARK    6  A    between atoms: N_10  and  C_11
REMARK    7  A    between atoms: C_14  and  C_15
REMARK    8  A    between atoms: N_17  and  O_18
REMARK    9  A    between atoms: C_23  and  O_24
REMARK   10  A    between atoms: O_24  and  C_25
REMARK   11  A    between atoms: C_25  and  C_26
REMARK                            x       y       z     vdW  Elec       q    Type
REMARK                         _______ _______ _______ _____ _____    ______ ____
ROOT
ATOM      1  C   UNL     1       1.658   8.784  17.584  0.00  0.00    +0.000 C 
ENDROOT
BRANCH   1   4
ATOM      2  C   UNL     1       4.564   6.342  17.788  0.00  0.00    +0.000 A 
ATOM      3  C   UNL     1       3.619   7.248  17.291  0.00  0.00    +0.000 A 
ATOM      4  C   UNL     1       2.560   7.697  18.085  0.00  0.00    +0.000 A 
ATOM      5  C   UNL     1       2.384   7.158  19.353  0.00  0.00    +0.000 A 
ATOM      6  C   UNL     1       3.265   6.194  19.821  0.00  0.00    +0.000 A 
ATOM      7  C   UNL     1       4.345   5.748  19.042  0.00  0.00    +0.000 A 
BRANCH   2   9
ATOM      8  C   UNL     1       5.475   5.348  15.844  0.00  0.00    +0.000 C 
ATOM      9  O   UNL     1       5.701   6.027  17.086  0.00  0.00    +0.000 OA
ENDBRANCH   2   9
BRANCH   7  10
ATOM     10  O   UNL     1       5.191   4.742  19.474  0.00  0.00    +0.000 OA
BRANCH  10  11
ATOM     11  C   UNL     1       4.700   3.428  19.155  0.00  0.00    +0.000 C 
BRANCH  11  12
ATOM     12  C   UNL     1       3.275   3.131  19.555  0.00  0.00    +0.000 A 
ATOM     13  C   UNL     1       2.918   2.930  20.892  0.00  0.00    +0.000 A 
ATOM     14  C   UNL     1       1.594   2.640  21.233  0.00  0.00    +0.000 A 
ATOM     15  C   UNL     1       0.611   2.552  20.246  0.00  0.00    +0.000 A 
ATOM     16  C   UNL     1       0.949   2.768  18.912  0.00  0.00    +0.000 A 
ATOM     17  C   UNL     1       2.270   3.059  18.570  0.00  0.00    +0.000 A 
ATOM     18 CL   UNL     1       2.616   3.331  16.894  0.00  0.00    +0.000 Cl
ENDBRANCH  11  12
ENDBRANCH  10  11
ENDBRANCH   7  10
ENDBRANCH   1   4
BRANCH   1  19
ATOM     19  C   UNL     1       1.840  10.082  18.378  0.00  0.00    +0.000 C 
BRANCH  19  20
ATOM     20  C   UNL     1       0.535  10.429  19.052  0.00  0.00    +0.000 C 
ATOM     21  O   UNL     1      -0.534  10.048  18.593  0.00  0.00    +0.000 OA
ATOM     22  N   UNL     1       0.693  11.214  20.182  0.00  0.00    +0.000 N 
ATOM     23  H   UNL     1       1.593  11.654  20.331  0.00  0.00    +0.000 HD
BRANCH  22  24
ATOM     24  C   UNL     1      -0.354  11.559  21.062  0.00  0.00    +0.000 A 
ATOM     25  C   UNL     1      -0.543  10.909  22.286  0.00  0.00    +0.000 A 
ATOM     26  C   UNL     1      -1.596  11.255  23.130  0.00  0.00    +0.000 A 
ATOM     27  C   UNL     1      -2.480  12.267  22.757  0.00  0.00    +0.000 A 
ATOM     28  C   UNL     1      -2.279  12.952  21.553  0.00  0.00    +0.000 A 
ATOM     29  C   UNL     1      -1.214  12.603  20.709  0.00  0.00    +0.000 A 
BRANCH  27  30
ATOM     30  C   UNL     1      -3.603  12.657  23.645  0.00  0.00    +0.000 C 
ATOM     31  O   UNL     1      -4.139  11.857  24.403  0.00  0.00    +0.000 OA
ATOM     32  N   UNL     1      -3.990  13.984  23.581  0.00  0.00    +0.000 N 
ATOM     33  H   UNL     1      -3.394  14.721  23.224  0.00  0.00    +0.000 HD
BRANCH  32  34
ATOM     34  O   UNL     1      -5.001  14.372  24.488  0.00  0.00    +0.000 OA
ATOM     35  H   UNL     1      -4.479  14.726  25.241  0.00  0.00    +0.000 HD
ENDBRANCH  32  34
ENDBRANCH  27  30
ENDBRANCH  22  24
ENDBRANCH  19  20
ENDBRANCH   1  19
TORSDOF 10
ENDMDL
MODEL 4
REMARK VINA RESULT:      -8.0      1.552      2.031
REMARK  Name = 
REMARK  11 active torsions:
REMARK  status: ('A' for Active; 'I' for Inactive)
REMARK    1  A    between atoms: C_1  and  O_2
REMARK    2  A    between atoms: O_2  and  C_3
REMARK    3  A    between atoms: C_5  and  C_6
REMARK    4  A    between atoms: C_6  and  C_7
REMARK    5  A    between atoms: C_7  and  C_8
REMARK    6  A    between atoms: N_10  and  C_11
REMARK    7  A    between atoms: C_14  and  C_15
REMARK    8  A    between atoms: N_17  and  O_18
REMARK    9  A    between atoms: C_23  and  O_24
REMARK   10  A    between atoms: O_24  and  C_25
REMARK   11  A    between atoms: C_25  and  C_26
REMARK                            x       y       z     vdW  Elec       q    Type
REMARK                         _______ _______ _______ _____ _____    ______ ____
ROOT
ATOM      1  C   UNL     1       8.043   7.319  18.216  0.00  0.00    +0.000 C 
ENDROOT
BRANCH   1   4
ATOM      2  C   UNL     1       4.573   5.910  17.567  0.00  0.00    +0.000 A 
ATOM      3  C   UNL     1       5.611   6.739  18.008  0.00  0.00    +0.000 A 
ATOM      4  C   UNL     1       6.949   6.350  17.883  0.00  0.00    +0.000 A 
ATOM      5  C   UNL     1       7.247   5.080  17.408  0.00  0.00    +0.000 A 
ATOM      6  C   UNL     1       6.221   4.218  17.051  0.00  0.00    +0.000 A 
ATOM      7  C   UNL     1       4.873   4.601  17.152  0.00  0.00    +0.000 A 
BRANCH   2   9
ATOM      8  C   UNL     1       2.733   6.770  18.779  0.00  0.00    +0.000 C 
ATOM      9  O   UNL     1       3.271   6.346  17.521  0.00  0.00    +0.000 OA
ENDBRANCH   2   9
BRANCH   7  10
ATOM     10  O   UNL     1       3.841   3.727  16.859  0.00  0.00    +0.000 OA
BRANCH  10  11
ATOM     11  C   UNL     1       3.765   2.627  17.783  0.00  0.00    +0.000 C 
BRANCH  11  12
ATOM     12  C   UNL     1       2.854   2.815  18.972  0.00  0.00    +0.000 A 
ATOM     13  C   UNL     1       1.566   3.337  18.831  0.00  0.00    +0.000 A 
ATOM     14  C   UNL     1       0.749   3.516  19.951  0.00  0.00    +0.000 A 
ATOM     15  C   UNL     1       1.207   3.171  21.224  0.00  0.00    +0.000 A 
ATOM     16  C   UNL     1       2.482   2.633  21.377  0.00  0.00    +0.000 A 
ATOM     17  C   UNL     1       3.298   2.452  20.260  0.00  0.00    +0.000 A 
ATOM     18 CL   UNL     1       4.866   1.762  20.522  0.00  0.00    +0.000 Cl
ENDBRANCH  11  12
ENDBRANCH  10  11
ENDBRANCH   7  10
ENDBRANCH   1   4
BRANCH   1  19
ATOM     19  C   UNL     1       7.882   8.638  17.453  0.00  0.00    +0.000 C 
BRANCH  19  20
ATOM     20  C   UNL     1       8.600   9.730  18.207  0.00  0.00    +0.000 C 
ATOM     21  O   UNL     1       9.214   9.487  19.239  0.00  0.00    +0.000 OA
ATOM     22  N   UNL     1       8.463  10.980  17.627  0.00  0.00    +0.000 N 
ATOM     23  H   UNL     1       7.752  11.096  16.915  0.00  0.00    +0.000 HD
BRANCH  22  24
ATOM     24  C   UNL     1       9.147  12.136  18.058  0.00  0.00    +0.000 A 
ATOM     25  C   UNL     1      10.541  12.179  18.173  0.00  0.00    +0.000 A 
ATOM     26  C   UNL     1      11.191  13.326  18.619  0.00  0.00    +0.000 A 
ATOM     27  C   UNL     1      10.448  14.457  18.959  0.00  0.00    +0.000 A 
ATOM     28  C   UNL     1       9.056  14.441  18.812  0.00  0.00    +0.000 A 
ATOM     29  C   UNL     1       8.406  13.283  18.357  0.00  0.00    +0.000 A 
BRANCH  27  30
ATOM     30  C   UNL     1      11.122  15.693  19.429  0.00  0.00    +0.000 C 
ATOM     31  O   UNL     1      12.333  15.849  19.329  0.00  0.00    +0.000 OA
ATOM     32  N   UNL     1      10.295  16.664  19.964  0.00  0.00    +0.000 N 
ATOM     33  H   UNL     1       9.300  16.711  19.781  0.00  0.00    +0.000 HD
BRANCH  32  34
ATOM     34  O   UNL     1      10.928  17.873  20.331  0.00  0.00    +0.000 OA
ATOM     35  H   UNL     1      11.496  18.055  19.551  0.00  0.00    +0.000 HD
ENDBRANCH  32  34
ENDBRANCH  27  30
ENDBRANCH  22  24
ENDBRANCH  19  20
ENDBRANCH   1  19
TORSDOF 10
ENDMDL
MODEL 5
REMARK VINA RESULT:      -7.9      5.870      7.768
REMARK  Name = 
REMARK  11 active torsions:
REMARK  status: ('A' for Active; 'I' for Inactive)
REMARK    1  A    between atoms: C_1  and  O_2
REMARK    2  A    between atoms: O_2  and  C_3
REMARK    3  A    between atoms: C_5  and  C_6
REMARK    4  A    between atoms: C_6  and  C_7
REMARK    5  A    between atoms: C_7  and  C_8
REMARK    6  A    between atoms: N_10  and  C_11
REMARK    7  A    between atoms: C_14  and  C_15
REMARK    8  A    between atoms: N_17  and  O_18
REMARK    9  A    between atoms: C_23  and  O_24
REMARK   10  A    between atoms: O_24  and  C_25
REMARK   11  A    between atoms: C_25  and  C_26
REMARK                            x       y       z     vdW  Elec       q    Type
REMARK                         _______ _______ _______ _____ _____    ______ ____
ROOT
ATOM      1  C   UNL     1       1.588   8.199  21.281  0.00  0.00    +0.000 C 
ENDROOT
BRANCH   1   4
ATOM      2  C   UNL     1       1.871   4.796  19.612  0.00  0.00    +0.000 A 
ATOM      3  C   UNL     1       1.710   5.793  20.581  0.00  0.00    +0.000 A 
ATOM      4  C   UNL     1       1.920   7.141  20.273  0.00  0.00    +0.000 A 
ATOM      5  C   UNL     1       2.394   7.485  19.013  0.00  0.00    +0.000 A 
ATOM      6  C   UNL     1       2.640   6.495  18.074  0.00  0.00    +0.000 A 
ATOM      7  C   UNL     1       2.415   5.139  18.363  0.00  0.00    +0.000 A 
BRANCH   2   9
ATOM      8  C   UNL     1       1.649   3.062  21.206  0.00  0.00    +0.000 C 
ATOM      9  O   UNL     1       1.501   3.494  19.848  0.00  0.00    +0.000 OA
ENDBRANCH   2   9
BRANCH   7  10
ATOM     10  O   UNL     1       2.717   4.139  17.455  0.00  0.00    +0.000 OA
BRANCH  10  11
ATOM     11  C   UNL     1       3.961   3.478  17.750  0.00  0.00    +0.000 C 
BRANCH  11  12
ATOM     12  C   UNL     1       5.174   4.367  17.883  0.00  0.00    +0.000 A 
ATOM     13  C   UNL     1       5.678   4.733  19.134  0.00  0.00    +0.000 A 
ATOM     14  C   UNL     1       6.793   5.570  19.229  0.00  0.00    +0.000 A 
ATOM     15  C   UNL     1       7.420   6.048  18.077  0.00  0.00    +0.000 A 
ATOM     16  C   UNL     1       6.939   5.676  16.824  0.00  0.00    +0.000 A 
ATOM     17  C   UNL     1       5.828   4.839  16.728  0.00  0.00    +0.000 A 
ATOM     18 CL   UNL     1       5.293   4.405  15.137  0.00  0.00    +0.000 Cl
ENDBRANCH  11  12
ENDBRANCH  10  11
ENDBRANCH   7  10
ENDBRANCH   1   4
BRANCH   1  19
ATOM     19  C   UNL     1       0.095   8.540  21.273  0.00  0.00    +0.000 C 
BRANCH  19  20
ATOM     20  C   UNL     1      -0.112   9.816  20.494  0.00  0.00    +0.000 C 
ATOM     21  O   UNL     1      -0.979   9.897  19.633  0.00  0.00    +0.000 OA
ATOM     22  N   UNL     1       0.775  10.821  20.841  0.00  0.00    +0.000 N 
ATOM     23  H   UNL     1       1.586  10.568  21.393  0.00  0.00    +0.000 HD
BRANCH  22  24
ATOM     24  C   UNL     1       0.704  12.145  20.360  0.00  0.00    +0.000 A 
ATOM     25  C   UNL     1       0.113  13.176  21.098  0.00  0.00    +0.000 A 
ATOM     26  C   UNL     1       0.039  14.472  20.592  0.00  0.00    +0.000 A 
ATOM     27  C   UNL     1       0.560  14.755  19.330  0.00  0.00    +0.000 A 
ATOM     28  C   UNL     1       1.188  13.741  18.597  0.00  0.00    +0.000 A 
ATOM     29  C   UNL     1       1.265  12.439  19.113  0.00  0.00    +0.000 A 
BRANCH  27  30
ATOM     30  C   UNL     1       0.498  16.131  18.776  0.00  0.00    +0.000 C 
ATOM     31  O   UNL     1       1.475  16.869  18.763  0.00  0.00    +0.000 OA
ATOM     32  N   UNL     1      -0.725  16.515  18.255  0.00  0.00    +0.000 N 
ATOM     33  H   UNL     1      -1.439  15.858  17.964  0.00  0.00    +0.000 HD
BRANCH  32  34
ATOM     34  O   UNL     1      -0.758  17.793  17.652  0.00  0.00    +0.000 OA
ATOM     35  H   UNL     1      -1.709  18.029  17.719  0.00  0.00    +0.000 HD
ENDBRANCH  32  34
ENDBRANCH  27  30
ENDBRANCH  22  24
ENDBRANCH  19  20
ENDBRANCH   1  19
TORSDOF 10
ENDMDL
MODEL 6
REMARK VINA RESULT:      -7.9      5.384      7.229
REMARK  Name = 
REMARK  11 active torsions:
REMARK  status: ('A' for Active; 'I' for Inactive)
REMARK    1  A    between atoms: C_1  and  O_2
REMARK    2  A    between atoms: O_2  and  C_3
REMARK    3  A    between atoms: C_5  and  C_6
REMARK    4  A    between atoms: C_6  and  C_7
REMARK    5  A    between atoms: C_7  and  C_8
REMARK    6  A    between atoms: N_10  and  C_11
REMARK    7  A    between atoms: C_14  and  C_15
REMARK    8  A    between atoms: N_17  and  O_18
REMARK    9  A    between atoms: C_23  and  O_24
REMARK   10  A    between atoms: O_24  and  C_25
REMARK   11  A    between atoms: C_25  and  C_26
REMARK                            x       y       z     vdW  Elec       q    Type
REMARK                         _______ _______ _______ _____ _____    ______ ____
ROOT
ATOM      1  C   UNL     1       1.488   8.192  21.206  0.00  0.00    +0.000 C 
ENDROOT
BRANCH   1   4
ATOM      2  C   UNL     1       1.798   4.715  19.700  0.00  0.00    +0.000 A 
ATOM      3  C   UNL     1       1.625   5.757  20.620  0.00  0.00    +0.000 A 
ATOM      4  C   UNL     1       1.832   7.089  20.251  0.00  0.00    +0.000 A 
ATOM      5  C   UNL     1       2.316   7.376  18.982  0.00  0.00    +0.000 A 
ATOM      6  C   UNL     1       2.575   6.344  18.091  0.00  0.00    +0.000 A 
ATOM      7  C   UNL     1       2.352   5.003  18.441  0.00  0.00    +0.000 A 
BRANCH   2   9
ATOM      8  C   UNL     1       1.616   3.041  21.361  0.00  0.00    +0.000 C 
ATOM      9  O   UNL     1       1.431   3.425  19.993  0.00  0.00    +0.000 OA
ENDBRANCH   2   9
BRANCH   7  10
ATOM     10  O   UNL     1       2.666   3.962  17.584  0.00  0.00    +0.000 OA
BRANCH  10  11
ATOM     11  C   UNL     1       3.987   3.437  17.808  0.00  0.00    +0.000 C 
BRANCH  11  12
ATOM     12  C   UNL     1       5.100   4.060  17.000  0.00  0.00    +0.000 A 
ATOM     13  C   UNL     1       5.219   3.836  15.626  0.00  0.00    +0.000 A 
ATOM     14  C   UNL     1       6.270   4.412  14.905  0.00  0.00    +0.000 A 
ATOM     15  C   UNL     1       7.209   5.220  15.546  0.00  0.00    +0.000 A 
ATOM     16  C   UNL     1       7.092   5.466  16.912  0.00  0.00    +0.000 A 
ATOM     17  C   UNL     1       6.044   4.895  17.633  0.00  0.00    +0.000 A 
ATOM     18 CL   UNL     1       5.950   5.256  19.325  0.00  0.00    +0.000 Cl
ENDBRANCH  11  12
ENDBRANCH  10  11
ENDBRANCH   7  10
ENDBRANCH   1   4
BRANCH   1  19
ATOM     19  C   UNL     1       0.255   8.976  20.744  0.00  0.00    +0.000 C 
BRANCH  19  20
ATOM     20  C   UNL     1       0.556  10.452  20.825  0.00  0.00    +0.000 C 
ATOM     21  O   UNL     1       0.790  10.991  21.900  0.00  0.00    +0.000 OA
ATOM     22  N   UNL     1       0.511  11.090  19.597  0.00  0.00    +0.000 N 
ATOM     23  H   UNL     1       0.086  10.596  18.822  0.00  0.00    +0.000 HD
BRANCH  22  24
ATOM     24  C   UNL     1       0.886  12.433  19.385  0.00  0.00    +0.000 A 
ATOM     25  C   UNL     1       2.221  12.817  19.213  0.00  0.00    +0.000 A 
ATOM     26  C   UNL     1       2.567  14.152  19.024  0.00  0.00    +0.000 A 
ATOM     27  C   UNL     1       1.573  15.131  19.003  0.00  0.00    +0.000 A 
ATOM     28  C   UNL     1       0.230  14.756  19.135  0.00  0.00    +0.000 A 
ATOM     29  C   UNL     1      -0.114  13.409  19.320  0.00  0.00    +0.000 A 
BRANCH  27  30
ATOM     30  C   UNL     1       1.920  16.559  18.795  0.00  0.00    +0.000 C 
ATOM     31  O   UNL     1       1.832  17.094  17.696  0.00  0.00    +0.000 OA
ATOM     32  N   UNL     1       2.324  17.251  19.922  0.00  0.00    +0.000 N 
ATOM     33  H   UNL     1       2.114  16.951  20.866  0.00  0.00    +0.000 HD
BRANCH  32  34
ATOM     34  O   UNL     1       2.571  18.630  19.738  0.00  0.00    +0.000 OA
ATOM     35  H   UNL     1       2.920  18.658  18.820  0.00  0.00    +0.000 HD
ENDBRANCH  32  34
ENDBRANCH  27  30
ENDBRANCH  22  24
ENDBRANCH  19  20
ENDBRANCH   1  19
TORSDOF 10
ENDMDL
MODEL 7
REMARK VINA RESULT:      -7.9      1.890      2.539
REMARK  Name = 
REMARK  11 active torsions:
REMARK  status: ('A' for Active; 'I' for Inactive)
REMARK    1  A    between atoms: C_1  and  O_2
REMARK    2  A    between atoms: O_2  and  C_3
REMARK    3  A    between atoms: C_5  and  C_6
REMARK    4  A    between atoms: C_6  and  C_7
REMARK    5  A    between atoms: C_7  and  C_8
REMARK    6  A    between atoms: N_10  and  C_11
REMARK    7  A    between atoms: C_14  and  C_15
REMARK    8  A    between atoms: N_17  and  O_18
REMARK    9  A    between atoms: C_23  and  O_24
REMARK   10  A    between atoms: O_24  and  C_25
REMARK   11  A    between atoms: C_25  and  C_26
REMARK                            x       y       z     vdW  Elec       q    Type
REMARK                         _______ _______ _______ _____ _____    ______ ____
ROOT
ATOM      1  C   UNL     1       7.804   6.059  17.386  0.00  0.00    +0.000 C 
ENDROOT
BRANCH   1   4
ATOM      2  C   UNL     1       4.090   5.300  17.674  0.00  0.00    +0.000 A 
ATOM      3  C   UNL     1       5.359   5.843  17.907  0.00  0.00    +0.000 A 
ATOM      4  C   UNL     1       6.487   5.358  17.238  0.00  0.00    +0.000 A 
ATOM      5  C   UNL     1       6.362   4.254  16.404  0.00  0.00    +0.000 A 
ATOM      6  C   UNL     1       5.122   3.655  16.235  0.00  0.00    +0.000 A 
ATOM      7  C   UNL     1       3.977   4.143  16.886  0.00  0.00    +0.000 A 
BRANCH   2   9
ATOM      8  C   UNL     1       2.878   7.299  18.037  0.00  0.00    +0.000 C 
ATOM      9  O   UNL     1       2.954   5.875  18.187  0.00  0.00    +0.000 OA
ENDBRANCH   2   9
BRANCH   7  10
ATOM     10  O   UNL     1       2.750   3.514  16.774  0.00  0.00    +0.000 OA
BRANCH  10  11
ATOM     11  C   UNL     1       2.648   2.343  17.604  0.00  0.00    +0.000 C 
BRANCH  11  12
ATOM     12  C   UNL     1       2.227   2.573  19.035  0.00  0.00    +0.000 A 
ATOM     13  C   UNL     1       0.921   2.946  19.363  0.00  0.00    +0.000 A 
ATOM     14  C   UNL     1       0.563   3.168  20.695  0.00  0.00    +0.000 A 
ATOM     15  C   UNL     1       1.502   3.018  21.716  0.00  0.00    +0.000 A 
ATOM     16  C   UNL     1       2.803   2.629  21.406  0.00  0.00    +0.000 A 
ATOM     17  C   UNL     1       3.162   2.404  20.077  0.00  0.00    +0.000 A 
ATOM     18 CL   UNL     1       4.793   1.907  19.765  0.00  0.00    +0.000 Cl
ENDBRANCH  11  12
ENDBRANCH  10  11
ENDBRANCH   7  10
ENDBRANCH   1   4
BRANCH   1  19
ATOM     19  C   UNL     1       7.835   6.948  18.633  0.00  0.00    +0.000 C 
BRANCH  19  20
ATOM     20  C   UNL     1       8.202   8.353  18.224  0.00  0.00    +0.000 C 
ATOM     21  O   UNL     1       7.858   8.805  17.139  0.00  0.00    +0.000 OA
ATOM     22  N   UNL     1       8.959   9.021  19.171  0.00  0.00    +0.000 N 
ATOM     23  H   UNL     1       9.372   8.476  19.918  0.00  0.00    +0.000 HD
BRANCH  22  24
ATOM     24  C   UNL     1       9.312  10.384  19.089  0.00  0.00    +0.000 A 
ATOM     25  C   UNL     1      10.109  11.007  20.056  0.00  0.00    +0.000 A 
ATOM     26  C   UNL     1      10.428  12.360  19.962  0.00  0.00    +0.000 A 
ATOM     27  C   UNL     1       9.950  13.113  18.889  0.00  0.00    +0.000 A 
ATOM     28  C   UNL     1       9.184  12.493  17.895  0.00  0.00    +0.000 A 
ATOM     29  C   UNL     1       8.870  11.129  17.991  0.00  0.00    +0.000 A 
BRANCH  27  30
ATOM     30  C   UNL     1      10.286  14.553  18.766  0.00  0.00    +0.000 C 
ATOM     31  O   UNL     1      11.442  14.943  18.655  0.00  0.00    +0.000 OA
ATOM     32  N   UNL     1       9.211  15.424  18.761  0.00  0.00    +0.000 N 
ATOM     33  H   UNL     1       8.265  15.140  18.537  0.00  0.00    +0.000 HD
BRANCH  32  34
ATOM     34  O   UNL     1       9.526  16.786  18.558  0.00  0.00    +0.000 OA
ATOM     35  H   UNL     1      10.339  16.893  19.099  0.00  0.00    +0.000 HD
ENDBRANCH  32  34
ENDBRANCH  27  30
ENDBRANCH  22  24
ENDBRANCH  19  20
ENDBRANCH   1  19
TORSDOF 10
ENDMDL
MODEL 8
REMARK VINA RESULT:      -7.9      6.451      8.595
REMARK  Name = 
REMARK  11 active torsions:
REMARK  status: ('A' for Active; 'I' for Inactive)
REMARK    1  A    between atoms: C_1  and  O_2
REMARK    2  A    between atoms: O_2  and  C_3
REMARK    3  A    between atoms: C_5  and  C_6
REMARK    4  A    between atoms: C_6  and  C_7
REMARK    5  A    between atoms: C_7  and  C_8
REMARK    6  A    between atoms: N_10  and  C_11
REMARK    7  A    between atoms: C_14  and  C_15
REMARK    8  A    between atoms: N_17  and  O_18
REMARK    9  A    between atoms: C_23  and  O_24
REMARK   10  A    between atoms: O_24  and  C_25
REMARK   11  A    between atoms: C_25  and  C_26
REMARK                            x       y       z     vdW  Elec       q    Type
REMARK                         _______ _______ _______ _____ _____    ______ ____
ROOT
ATOM      1  C   UNL     1       1.465   8.856  17.904  0.00  0.00    +0.000 C 
ENDROOT
BRANCH   1   4
ATOM      2  C   UNL     1       4.419   6.463  17.877  0.00  0.00    +0.000 A 
ATOM      3  C   UNL     1       3.439   7.373  17.461  0.00  0.00    +0.000 A 
ATOM      4  C   UNL     1       2.407   7.765  18.318  0.00  0.00    +0.000 A 
ATOM      5  C   UNL     1       2.293   7.167  19.566  0.00  0.00    +0.000 A 
ATOM      6  C   UNL     1       3.209   6.200  19.954  0.00  0.00    +0.000 A 
ATOM      7  C   UNL     1       4.263   5.810  19.111  0.00  0.00    +0.000 A 
BRANCH   2   9
ATOM      8  C   UNL     1       6.593   7.156  17.252  0.00  0.00    +0.000 C 
ATOM      9  O   UNL     1       5.532   6.202  17.116  0.00  0.00    +0.000 OA
ENDBRANCH   2   9
BRANCH   7  10
ATOM     10  O   UNL     1       5.144   4.801  19.462  0.00  0.00    +0.000 OA
BRANCH  10  11
ATOM     11  C   UNL     1       4.671   3.495  19.088  0.00  0.00    +0.000 C 
BRANCH  11  12
ATOM     12  C   UNL     1       3.250   3.163  19.476  0.00  0.00    +0.000 A 
ATOM     13  C   UNL     1       2.896   2.903  20.802  0.00  0.00    +0.000 A 
ATOM     14  C   UNL     1       1.576   2.581  21.131  0.00  0.00    +0.000 A 
ATOM     15  C   UNL     1       0.594   2.520  20.141  0.00  0.00    +0.000 A 
ATOM     16  C   UNL     1       0.929   2.794  18.817  0.00  0.00    +0.000 A 
ATOM     17  C   UNL     1       2.246   3.118  18.488  0.00  0.00    +0.000 A 
ATOM     18 CL   UNL     1       2.588   3.462  16.824  0.00  0.00    +0.000 Cl
ENDBRANCH  11  12
ENDBRANCH  10  11
ENDBRANCH   7  10
ENDBRANCH   1   4
BRANCH   1  19
ATOM     19  C   UNL     1       2.130  10.235  17.978  0.00  0.00    +0.000 C 
BRANCH  19  20
ATOM     20  C   UNL     1       1.378  11.088  18.970  0.00  0.00    +0.000 C 
ATOM     21  O   UNL     1       1.612  12.285  19.078  0.00  0.00    +0.000 OA
ATOM     22  N   UNL     1       0.458  10.376  19.720  0.00  0.00    +0.000 N 
ATOM     23  H   UNL     1       0.516   9.365  19.706  0.00  0.00    +0.000 HD
BRANCH  22  24
ATOM     24  C   UNL     1      -0.462  10.962  20.614  0.00  0.00    +0.000 A 
ATOM     25  C   UNL     1      -1.549  11.724  20.173  0.00  0.00    +0.000 A 
ATOM     26  C   UNL     1      -2.433  12.308  21.077  0.00  0.00    +0.000 A 
ATOM     27  C   UNL     1      -2.239  12.134  22.448  0.00  0.00    +0.000 A 
ATOM     28  C   UNL     1      -1.178  11.342  22.902  0.00  0.00    +0.000 A 
ATOM     29  C   UNL     1      -0.294  10.752  21.987  0.00  0.00    +0.000 A 
BRANCH  27  30
ATOM     30  C   UNL     1      -3.174  12.741  23.427  0.00  0.00    +0.000 C 
ATOM     31  O   UNL     1      -4.308  12.308  23.597  0.00  0.00    +0.000 OA
ATOM     32  N   UNL     1      -2.677  13.809  24.152  0.00  0.00    +0.000 N 
ATOM     33  H   UNL     1      -1.687  13.990  24.272  0.00  0.00    +0.000 HD
BRANCH  32  34
ATOM     34  O   UNL     1      -3.538  14.330  25.144  0.00  0.00    +0.000 OA
ATOM     35  H   UNL     1      -3.577  13.594  25.792  0.00  0.00    +0.000 HD
ENDBRANCH  32  34
ENDBRANCH  27  30
ENDBRANCH  22  24
ENDBRANCH  19  20
ENDBRANCH   1  19
TORSDOF 10
ENDMDL
MODEL 9
REMARK VINA RESULT:      -7.9      4.712      6.683
REMARK  Name = 
REMARK  11 active torsions:
REMARK  status: ('A' for Active; 'I' for Inactive)
REMARK    1  A    between atoms: C_1  and  O_2
REMARK    2  A    between atoms: O_2  and  C_3
REMARK    3  A    between atoms: C_5  and  C_6
REMARK    4  A    between atoms: C_6  and  C_7
REMARK    5  A    between atoms: C_7  and  C_8
REMARK    6  A    between atoms: N_10  and  C_11
REMARK    7  A    between atoms: C_14  and  C_15
REMARK    8  A    between atoms: N_17  and  O_18
REMARK    9  A    between atoms: C_23  and  O_24
REMARK   10  A    between atoms: O_24  and  C_25
REMARK   11  A    between atoms: C_25  and  C_26
REMARK                            x       y       z     vdW  Elec       q    Type
REMARK                         _______ _______ _______ _____ _____    ______ ____
ROOT
ATOM      1  C   UNL     1       0.991   8.418  21.260  0.00  0.00    +0.000 C 
ENDROOT
BRANCH   1   4
ATOM      2  C   UNL     1       1.854   4.920  20.048  0.00  0.00    +0.000 A 
ATOM      3  C   UNL     1       1.431   5.982  20.857  0.00  0.00    +0.000 A 
ATOM      4  C   UNL     1       1.593   7.310  20.450  0.00  0.00    +0.000 A 
ATOM      5  C   UNL     1       2.274   7.582  19.271  0.00  0.00    +0.000 A 
ATOM      6  C   UNL     1       2.774   6.538  18.505  0.00  0.00    +0.000 A 
ATOM      7  C   UNL     1       2.602   5.199  18.892  0.00  0.00    +0.000 A 
BRANCH   2   9
ATOM      8  C   UNL     1       2.056   3.152  21.606  0.00  0.00    +0.000 C 
ATOM      9  O   UNL     1       1.546   3.616  20.350  0.00  0.00    +0.000 OA
ENDBRANCH   2   9
BRANCH   7  10
ATOM     10  O   UNL     1       3.150   4.154  18.169  0.00  0.00    +0.000 OA
BRANCH  10  11
ATOM     11  C   UNL     1       4.458   3.781  18.638  0.00  0.00    +0.000 C 
BRANCH  11  12
ATOM     12  C   UNL     1       5.584   4.730  18.304  0.00  0.00    +0.000 A 
ATOM     13  C   UNL     1       6.359   5.325  19.303  0.00  0.00    +0.000 A 
ATOM     14  C   UNL     1       7.385   6.213  18.966  0.00  0.00    +0.000 A 
ATOM     15  C   UNL     1       7.651   6.514  17.630  0.00  0.00    +0.000 A 
ATOM     16  C   UNL     1       6.898   5.915  16.623  0.00  0.00    +0.000 A 
ATOM     17  C   UNL     1       5.876   5.027  16.957  0.00  0.00    +0.000 A 
ATOM     18 CL   UNL     1       4.989   4.306  15.654  0.00  0.00    +0.000 Cl
ENDBRANCH  11  12
ENDBRANCH  10  11
ENDBRANCH   7  10
ENDBRANCH   1   4
BRANCH   1  19
ATOM     19  C   UNL     1       0.217   9.405  20.380  0.00  0.00    +0.000 C 
BRANCH  19  20
ATOM     20  C   UNL     1       0.892  10.753  20.447  0.00  0.00    +0.000 C 
ATOM     21  O   UNL     1       1.365  11.171  21.497  0.00  0.00    +0.000 OA
ATOM     22  N   UNL     1       0.884  11.432  19.240  0.00  0.00    +0.000 N 
ATOM     23  H   UNL     1       0.269  11.093  18.510  0.00  0.00    +0.000 HD
BRANCH  22  24
ATOM     24  C   UNL     1       1.566  12.644  19.006  0.00  0.00    +0.000 A 
ATOM     25  C   UNL     1       2.774  12.697  18.301  0.00  0.00    +0.000 A 
ATOM     26  C   UNL     1       3.437  13.904  18.099  0.00  0.00    +0.000 A 
ATOM     27  C   UNL     1       2.895  15.087  18.603  0.00  0.00    +0.000 A 
ATOM     28  C   UNL     1       1.667  15.054  19.276  0.00  0.00    +0.000 A 
ATOM     29  C   UNL     1       1.001  13.835  19.472  0.00  0.00    +0.000 A 
BRANCH  27  30
ATOM     30  C   UNL     1       3.581  16.385  18.391  0.00  0.00    +0.000 C 
ATOM     31  O   UNL     1       3.031  17.327  17.833  0.00  0.00    +0.000 OA
ATOM     32  N   UNL     1       4.870  16.472  18.885  0.00  0.00    +0.000 N 
ATOM     33  H   UNL     1       5.234  15.859  19.604  0.00  0.00    +0.000 HD
BRANCH  32  34
ATOM     34  O   UNL     1       5.490  17.736  18.759  0.00  0.00    +0.000 OA
ATOM     35  H   UNL     1       4.751  18.350  18.959  0.00  0.00    +0.000 HD
ENDBRANCH  32  34
ENDBRANCH  27  30
ENDBRANCH  22  24
ENDBRANCH  19  20
ENDBRANCH   1  19
TORSDOF 10
ENDMDL
