MODEL 1
REMARK VINA RESULT:      -8.1      0.000      0.000
REMARK  Name = 
REMARK  7 active torsions:
REMARK  status: ('A' for Active; 'I' for Inactive)
REMARK    1  A    between atoms: C_1  and  C_2
REMARK    2  A    between atoms: C_2  and  C_3
REMARK    3  A    between atoms: C_2  and  N_10
REMARK    4  A    between atoms: C_13  and  C_14
REMARK    5  A    between atoms: C_13  and  C_19
REMARK    6  A    between atoms: C_14  and  C_15
REMARK    7  A    between atoms: C_15  and  C_16
REMARK                            x       y       z     vdW  Elec       q    Type
REMARK                         _______ _______ _______ _____ _____    ______ ____
ROOT
ATOM      1  N   UNL     1       5.072   4.357  17.729  0.00  0.00    +0.000 N 
ATOM      2  C   UNL     1       3.995   4.678  16.807  0.00  0.00    +0.000 C 
ATOM      3  C   UNL     1       2.687   4.023  17.201  0.00  0.00    +0.000 C 
ATOM      4  C   UNL     1       2.424   4.295  18.684  0.00  0.00    +0.000 C 
ATOM      5  O   UNL     1       3.549   3.775  19.431  0.00  0.00    +0.000 OA
ATOM      6  C   UNL     1       4.843   3.891  19.015  0.00  0.00    +0.000 C 
ATOM      7  O   UNL     1       5.744   3.577  19.785  0.00  0.00    +0.000 OA
ENDROOT
BRANCH   4   8
ATOM      8  C   UNL     1       2.218   5.796  18.976  0.00  0.00    +0.000 A 
ATOM      9  C   UNL     1       1.912   6.236  20.281  0.00  0.00    +0.000 A 
ATOM     10  C   UNL     1       1.684   7.588  20.550  0.00  0.00    +0.000 A 
ATOM     11  C   UNL     1       1.756   8.514  19.520  0.00  0.00    +0.000 A 
ATOM     12  F   UNL     1       1.526   9.809  19.776  0.00  0.00    +0.000 F 
ATOM     13  C   UNL     1       2.069   8.117  18.229  0.00  0.00    +0.000 A 
ATOM     14  C   UNL     1       2.309   6.768  17.960  0.00  0.00    +0.000 A 
ENDBRANCH   4   8
BRANCH   1  16
ATOM     15  C   UNL     1       6.616   4.201  15.794  0.00  0.00    +0.000 C 
ATOM     16  C   UNL     1       6.472   4.519  17.289  0.00  0.00    +0.000 C 
BRANCH  16  17
ATOM     17  C   UNL     1       7.084   5.860  17.692  0.00  0.00    +0.000 A 
ATOM     18  C   UNL     1       6.898   7.034  16.941  0.00  0.00    +0.000 A 
ATOM     19  C   UNL     1       7.527   8.224  17.311  0.00  0.00    +0.000 A 
ATOM     20  C   UNL     1       8.338   8.249  18.438  0.00  0.00    +0.000 A 
ATOM     21  F   UNL     1       8.960   9.386  18.777  0.00  0.00    +0.000 F 
ATOM     22  C   UNL     1       8.516   7.112  19.215  0.00  0.00    +0.000 A 
ATOM     23  C   UNL     1       7.885   5.922  18.849  0.00  0.00    +0.000 A 
ENDBRANCH  16  17
ENDBRANCH   1  16
BRANCH   4  24
ATOM     24  C   UNL     1       1.171   3.526  19.200  0.00  0.00    +0.000 C 
BRANCH  24  25
ATOM     25  C   UNL     1       1.475   2.215  19.935  0.00  0.00    +0.000 C 
BRANCH  25  26
ATOM     26  C   UNL     1       1.775   2.428  21.403  0.00  0.00    +0.000 C 
ATOM     27  N   UNL     1       3.082   2.311  21.767  0.00  0.00    +0.000 N 
ATOM     28  O   UNL     1       0.908   2.681  22.233  0.00  0.00    +0.000 OA
ATOM     29  H   UNL     1       3.792   1.943  21.149  0.00  0.00    +0.000 HD
ATOM     30  H   UNL     1       3.291   2.368  22.756  0.00  0.00    +0.000 HD
ENDBRANCH  25  26
ENDBRANCH  24  25
ENDBRANCH   4  24
TORSDOF 6
ENDMDL
MODEL 2
REMARK VINA RESULT:      -8.0      0.637      1.114
REMARK  Name = 
REMARK  7 active torsions:
REMARK  status: ('A' for Active; 'I' for Inactive)
REMARK    1  A    between atoms: C_1  and  C_2
REMARK    2  A    between atoms: C_2  and  C_3
REMARK    3  A    between atoms: C_2  and  N_10
REMARK    4  A    between atoms: C_13  and  C_14
REMARK    5  A    between atoms: C_13  and  C_19
REMARK    6  A    between atoms: C_14  and  C_15
REMARK    7  A    between atoms: C_15  and  C_16
REMARK                            x       y       z     vdW  Elec       q    Type
REMARK                         _______ _______ _______ _____ _____    ______ ____
ROOT
ATOM      1  N   UNL     1       4.902   4.233  17.720  0.00  0.00    +0.000 N 
ATOM      2  C   UNL     1       3.768   4.514  16.855  0.00  0.00    +0.000 C 
ATOM      3  C   UNL     1       2.481   3.915  17.383  0.00  0.00    +0.000 C 
ATOM      4  C   UNL     1       2.327   4.292  18.857  0.00  0.00    +0.000 C 
ATOM      5  O   UNL     1       3.493   3.800  19.559  0.00  0.00    +0.000 OA
ATOM      6  C   UNL     1       4.756   3.860  19.048  0.00  0.00    +0.000 C 
ATOM      7  O   UNL     1       5.704   3.580  19.774  0.00  0.00    +0.000 OA
ENDROOT
BRANCH   4   8
ATOM      8  C   UNL     1       2.166   5.813  19.059  0.00  0.00    +0.000 A 
ATOM      9  C   UNL     1       1.833   6.336  20.327  0.00  0.00    +0.000 A 
ATOM     10  C   UNL     1       1.647   7.709  20.512  0.00  0.00    +0.000 A 
ATOM     11  C   UNL     1       1.787   8.572  19.436  0.00  0.00    +0.000 A 
ATOM     12  F   UNL     1       1.596   9.886  19.613  0.00  0.00    +0.000 F 
ATOM     13  C   UNL     1       2.128   8.093  18.181  0.00  0.00    +0.000 A 
ATOM     14  C   UNL     1       2.328   6.723  17.995  0.00  0.00    +0.000 A 
ENDBRANCH   4   8
BRANCH   1  16
ATOM     15  C   UNL     1       6.276   4.078  15.661  0.00  0.00    +0.000 C 
ATOM     16  C   UNL     1       6.269   4.336  17.175  0.00  0.00    +0.000 C 
BRANCH  16  17
ATOM     17  C   UNL     1       6.991   5.620  17.580  0.00  0.00    +0.000 A 
ATOM     18  C   UNL     1       7.848   5.689  18.692  0.00  0.00    +0.000 A 
ATOM     19  C   UNL     1       8.438   6.898  19.065  0.00  0.00    +0.000 A 
ATOM     20  C   UNL     1       8.181   8.043  18.322  0.00  0.00    +0.000 A 
ATOM     21  F   UNL     1       8.729   9.207  18.695  0.00  0.00    +0.000 F 
ATOM     22  C   UNL     1       7.362   7.999  17.202  0.00  0.00    +0.000 A 
ATOM     23  C   UNL     1       6.775   6.789  16.826  0.00  0.00    +0.000 A 
ENDBRANCH  16  17
ENDBRANCH   1  16
BRANCH   4  24
ATOM     24  C   UNL     1       1.101   3.586  19.510  0.00  0.00    +0.000 C 
BRANCH  24  25
ATOM     25  C   UNL     1       1.440   2.352  20.355  0.00  0.00    +0.000 C 
BRANCH  25  26
ATOM     26  C   UNL     1       1.617   2.681  21.821  0.00  0.00    +0.000 C 
ATOM     27  N   UNL     1       0.706   2.129  22.670  0.00  0.00    +0.000 N 
ATOM     28  O   UNL     1       2.513   3.406  22.240  0.00  0.00    +0.000 OA
ATOM     29  H   UNL     1      -0.134   1.669  22.348  0.00  0.00    +0.000 HD
ATOM     30  H   UNL     1       0.759   2.404  23.643  0.00  0.00    +0.000 HD
ENDBRANCH  25  26
ENDBRANCH  24  25
ENDBRANCH   4  24
TORSDOF 6
ENDMDL
MODEL 3
REMARK VINA RESULT:      -7.9      0.302      1.324
REMARK  Name = 
REMARK  7 active torsions:
REMARK  status: ('A' for Active; 'I' for Inactive)
REMARK    1  A    between atoms: C_1  and  C_2
REMARK    2  A    between atoms: C_2  and  C_3
REMARK    3  A    between atoms: C_2  and  N_10
REMARK    4  A    between atoms: C_13  and  C_14
REMARK    5  A    between atoms: C_13  and  C_19
REMARK    6  A    between atoms: C_14  and  C_15
REMARK    7  A    between atoms: C_15  and  C_16
REMARK                            x       y       z     vdW  Elec       q    Type
REMARK                         _______ _______ _______ _____ _____    ______ ____
ROOT
ATOM      1  N   UNL     1       4.870   4.151  17.637  0.00  0.00    +0.000 N 
ATOM      2  C   UNL     1       3.749   4.426  16.754  0.00  0.00    +0.000 C 
ATOM      3  C   UNL     1       2.454   3.830  17.268  0.00  0.00    +0.000 C 
ATOM      4  C   UNL     1       2.280   4.216  18.738  0.00  0.00    +0.000 C 
ATOM      5  O   UNL     1       3.435   3.729  19.459  0.00  0.00    +0.000 OA
ATOM      6  C   UNL     1       4.706   3.786  18.965  0.00  0.00    +0.000 C 
ATOM      7  O   UNL     1       5.643   3.510  19.706  0.00  0.00    +0.000 OA
ENDROOT
BRANCH   4   8
ATOM      8  C   UNL     1       2.116   5.739  18.928  0.00  0.00    +0.000 A 
ATOM      9  C   UNL     1       2.223   6.613  17.825  0.00  0.00    +0.000 A 
ATOM     10  C   UNL     1       2.116   7.997  17.991  0.00  0.00    +0.000 A 
ATOM     11  C   UNL     1       1.903   8.522  19.257  0.00  0.00    +0.000 A 
ATOM     12  F   UNL     1       1.813   9.849  19.416  0.00  0.00    +0.000 F 
ATOM     13  C   UNL     1       1.778   7.690  20.359  0.00  0.00    +0.000 A 
ATOM     14  C   UNL     1       1.873   6.306  20.195  0.00  0.00    +0.000 A 
ENDBRANCH   4   8
BRANCH   1  16
ATOM     15  C   UNL     1       6.268   4.020  15.592  0.00  0.00    +0.000 C 
ATOM     16  C   UNL     1       6.245   4.250  17.111  0.00  0.00    +0.000 C 
BRANCH  16  17
ATOM     17  C   UNL     1       6.974   5.519  17.549  0.00  0.00    +0.000 A 
ATOM     18  C   UNL     1       7.804   5.563  18.683  0.00  0.00    +0.000 A 
ATOM     19  C   UNL     1       8.401   6.760  19.084  0.00  0.00    +0.000 A 
ATOM     20  C   UNL     1       8.179   7.917  18.349  0.00  0.00    +0.000 A 
ATOM     21  F   UNL     1       8.734   9.068  18.749  0.00  0.00    +0.000 F 
ATOM     22  C   UNL     1       7.388   7.896  17.208  0.00  0.00    +0.000 A 
ATOM     23  C   UNL     1       6.793   6.700  16.803  0.00  0.00    +0.000 A 
ENDBRANCH  16  17
ENDBRANCH   1  16
BRANCH   4  24
ATOM     24  C   UNL     1       1.044   3.515  19.378  0.00  0.00    +0.000 C 
BRANCH  24  25
ATOM     25  C   UNL     1       1.352   2.200  20.104  0.00  0.00    +0.000 C 
BRANCH  25  26
ATOM     26  C   UNL     1       1.688   2.408  21.565  0.00  0.00    +0.000 C 
ATOM     27  N   UNL     1       3.015   2.459  21.870  0.00  0.00    +0.000 N 
ATOM     28  O   UNL     1       0.834   2.516  22.439  0.00  0.00    +0.000 OA
ATOM     29  H   UNL     1       3.738   2.210  21.210  0.00  0.00    +0.000 HD
ATOM     30  H   UNL     1       3.259   2.513  22.851  0.00  0.00    +0.000 HD
ENDBRANCH  25  26
ENDBRANCH  24  25
ENDBRANCH   4  24
TORSDOF 6
ENDMDL
MODEL 4
REMARK VINA RESULT:      -7.3      1.270      1.607
REMARK  Name = 
REMARK  7 active torsions:
REMARK  status: ('A' for Active; 'I' for Inactive)
REMARK    1  A    between atoms: C_1  and  C_2
REMARK    2  A    between atoms: C_2  and  C_3
REMARK    3  A    between atoms: C_2  and  N_10
REMARK    4  A    between atoms: C_13  and  C_14
REMARK    5  A    between atoms: C_13  and  C_19
REMARK    6  A    between atoms: C_14  and  C_15
REMARK    7  A    between atoms: C_15  and  C_16
REMARK                            x       y       z     vdW  Elec       q    Type
REMARK                         _______ _______ _______ _____ _____    ______ ____
ROOT
ATOM      1  N   UNL     1       5.040   4.836  18.005  0.00  0.00    +0.000 N 
ATOM      2  C   UNL     1       3.924   4.976  17.083  0.00  0.00    +0.000 C 
ATOM      3  C   UNL     1       2.637   4.410  17.649  0.00  0.00    +0.000 C 
ATOM      4  C   UNL     1       2.433   4.961  19.062  0.00  0.00    +0.000 C 
ATOM      5  O   UNL     1       3.591   4.593  19.848  0.00  0.00    +0.000 OA
ATOM      6  C   UNL     1       4.866   4.625  19.364  0.00  0.00    +0.000 C 
ATOM      7  O   UNL     1       5.800   4.464  20.143  0.00  0.00    +0.000 OA
ENDROOT
BRANCH   4   8
ATOM      8  C   UNL     1       2.229   6.491  19.069  0.00  0.00    +0.000 A 
ATOM      9  C   UNL     1       1.838   7.155  20.251  0.00  0.00    +0.000 A 
ATOM     10  C   UNL     1       1.612   8.535  20.260  0.00  0.00    +0.000 A 
ATOM     11  C   UNL     1       1.771   9.264  19.091  0.00  0.00    +0.000 A 
ATOM     12  F   UNL     1       1.542  10.584  19.098  0.00  0.00    +0.000 F 
ATOM     13  C   UNL     1       2.167   8.644  17.916  0.00  0.00    +0.000 A 
ATOM     14  C   UNL     1       2.406   7.268  17.907  0.00  0.00    +0.000 A 
ENDBRANCH   4   8
BRANCH   1  16
ATOM     15  C   UNL     1       6.474   4.466  16.015  0.00  0.00    +0.000 C 
ATOM     16  C   UNL     1       6.419   4.909  17.485  0.00  0.00    +0.000 C 
BRANCH  16  17
ATOM     17  C   UNL     1       7.096   6.253  17.745  0.00  0.00    +0.000 A 
ATOM     18  C   UNL     1       8.081   6.427  18.734  0.00  0.00    +0.000 A 
ATOM     19  C   UNL     1       8.629   7.687  18.981  0.00  0.00    +0.000 A 
ATOM     20  C   UNL     1       8.203   8.778  18.236  0.00  0.00    +0.000 A 
ATOM     21  F   UNL     1       8.712   9.990  18.491  0.00  0.00    +0.000 F 
ATOM     22  C   UNL     1       7.253   8.631  17.234  0.00  0.00    +0.000 A 
ATOM     23  C   UNL     1       6.707   7.371  16.982  0.00  0.00    +0.000 A 
ENDBRANCH  16  17
ENDBRANCH   1  16
BRANCH   4  24
ATOM     24  C   UNL     1       1.207   4.308  19.767  0.00  0.00    +0.000 C 
BRANCH  24  25
ATOM     25  C   UNL     1       1.467   2.917  20.358  0.00  0.00    +0.000 C 
BRANCH  25  26
ATOM     26  C   UNL     1       1.765   1.880  19.296  0.00  0.00    +0.000 C 
ATOM     27  N   UNL     1       0.710   1.495  18.526  0.00  0.00    +0.000 N 
ATOM     28  O   UNL     1       2.880   1.396  19.129  0.00  0.00    +0.000 OA
ATOM     29  H   UNL     1      -0.245   1.745  18.742  0.00  0.00    +0.000 HD
ATOM     30  H   UNL     1       0.872   0.743  17.867  0.00  0.00    +0.000 HD
ENDBRANCH  25  26
ENDBRANCH  24  25
ENDBRANCH   4  24
TORSDOF 6
ENDMDL
MODEL 5
REMARK VINA RESULT:      -7.2      3.682      5.378
REMARK  Name = 
REMARK  7 active torsions:
REMARK  status: ('A' for Active; 'I' for Inactive)
REMARK    1  A    between atoms: C_1  and  C_2
REMARK    2  A    between atoms: C_2  and  C_3
REMARK    3  A    between atoms: C_2  and  N_10
REMARK    4  A    between atoms: C_13  and  C_14
REMARK    5  A    between atoms: C_13  and  C_19
REMARK    6  A    between atoms: C_14  and  C_15
REMARK    7  A    between atoms: C_15  and  C_16
REMARK                            x       y       z     vdW  Elec       q    Type
REMARK                         _______ _______ _______ _____ _____    ______ ____
ROOT
ATOM      1  N   UNL     1       5.780   5.828  17.396  0.00  0.00    +0.000 N 
ATOM      2  C   UNL     1       5.596   5.521  18.805  0.00  0.00    +0.000 C 
ATOM      3  C   UNL     1       4.599   6.449  19.469  0.00  0.00    +0.000 C 
ATOM      4  C   UNL     1       3.335   6.513  18.611  0.00  0.00    +0.000 C 
ATOM      5  O   UNL     1       3.721   6.970  17.294  0.00  0.00    +0.000 OA
ATOM      6  C   UNL     1       4.860   6.562  16.663  0.00  0.00    +0.000 C 
ATOM      7  O   UNL     1       5.026   6.863  15.486  0.00  0.00    +0.000 OA
ENDROOT
BRANCH   4   8
ATOM      8  C   UNL     1       2.613   5.151  18.529  0.00  0.00    +0.000 A 
ATOM      9  C   UNL     1       1.799   4.707  19.593  0.00  0.00    +0.000 A 
ATOM     10  C   UNL     1       1.172   3.459  19.547  0.00  0.00    +0.000 A 
ATOM     11  C   UNL     1       1.353   2.640  18.442  0.00  0.00    +0.000 A 
ATOM     12  F   UNL     1       0.762   1.439  18.405  0.00  0.00    +0.000 F 
ATOM     13  C   UNL     1       2.135   3.052  17.374  0.00  0.00    +0.000 A 
ATOM     14  C   UNL     1       2.752   4.304  17.411  0.00  0.00    +0.000 A 
ENDBRANCH   4   8
BRANCH   1  16
ATOM     15  C   UNL     1       7.838   4.463  17.632  0.00  0.00    +0.000 C 
ATOM     16  C   UNL     1       6.996   5.353  16.706  0.00  0.00    +0.000 C 
BRANCH  16  17
ATOM     17  C   UNL     1       6.715   4.726  15.342  0.00  0.00    +0.000 A 
ATOM     18  C   UNL     1       7.421   5.088  14.182  0.00  0.00    +0.000 A 
ATOM     19  C   UNL     1       7.090   4.535  12.943  0.00  0.00    +0.000 A 
ATOM     20  C   UNL     1       6.056   3.611  12.859  0.00  0.00    +0.000 A 
ATOM     21  F   UNL     1       5.725   3.100  11.667  0.00  0.00    +0.000 F 
ATOM     22  C   UNL     1       5.361   3.213  13.994  0.00  0.00    +0.000 A 
ATOM     23  C   UNL     1       5.694   3.762  15.233  0.00  0.00    +0.000 A 
ENDBRANCH  16  17
ENDBRANCH   1  16
BRANCH   4  24
ATOM     24  C   UNL     1       2.320   7.564  19.152  0.00  0.00    +0.000 C 
BRANCH  24  25
ATOM     25  C   UNL     1       1.923   8.654  18.150  0.00  0.00    +0.000 C 
BRANCH  25  26
ATOM     26  C   UNL     1       0.951   9.657  18.735  0.00  0.00    +0.000 C 
ATOM     27  N   UNL     1       0.149  10.300  17.843  0.00  0.00    +0.000 N 
ATOM     28  O   UNL     1       0.881   9.897  19.936  0.00  0.00    +0.000 OA
ATOM     29  H   UNL     1       0.293  10.251  16.844  0.00  0.00    +0.000 HD
ATOM     30  H   UNL     1      -0.448  11.033  18.206  0.00  0.00    +0.000 HD
ENDBRANCH  25  26
ENDBRANCH  24  25
ENDBRANCH   4  24
TORSDOF 6
ENDMDL
MODEL 6
REMARK VINA RESULT:      -7.2      2.287      3.256
REMARK  Name = 
REMARK  7 active torsions:
REMARK  status: ('A' for Active; 'I' for Inactive)
REMARK    1  A    between atoms: C_1  and  C_2
REMARK    2  A    between atoms: C_2  and  C_3
REMARK    3  A    between atoms: C_2  and  N_10
REMARK    4  A    between atoms: C_13  and  C_14
REMARK    5  A    between atoms: C_13  and  C_19
REMARK    6  A    between atoms: C_14  and  C_15
REMARK    7  A    between atoms: C_15  and  C_16
REMARK                            x       y       z     vdW  Elec       q    Type
REMARK                         _______ _______ _______ _____ _____    ______ ____
ROOT
ATOM      1  N   UNL     1       5.259   5.282  17.820  0.00  0.00    +0.000 N 
ATOM      2  C   UNL     1       4.022   5.172  17.064  0.00  0.00    +0.000 C 
ATOM      3  C   UNL     1       2.889   4.607  17.896  0.00  0.00    +0.000 C 
ATOM      4  C   UNL     1       2.818   5.372  19.219  0.00  0.00    +0.000 C 
ATOM      5  O   UNL     1       4.101   5.239  19.873  0.00  0.00    +0.000 OA
ATOM      6  C   UNL     1       5.291   5.292  19.206  0.00  0.00    +0.000 C 
ATOM      7  O   UNL     1       6.331   5.342  19.853  0.00  0.00    +0.000 OA
ENDROOT
BRANCH   4   8
ATOM      8  C   UNL     1       2.456   6.859  19.017  0.00  0.00    +0.000 A 
ATOM      9  C   UNL     1       1.883   7.605  20.068  0.00  0.00    +0.000 A 
ATOM     10  C   UNL     1       1.515   8.941  19.884  0.00  0.00    +0.000 A 
ATOM     11  C   UNL     1       1.714   9.544  18.651  0.00  0.00    +0.000 A 
ATOM     12  F   UNL     1       1.350  10.821  18.473  0.00  0.00    +0.000 F 
ATOM     13  C   UNL     1       2.289   8.843  17.602  0.00  0.00    +0.000 A 
ATOM     14  C   UNL     1       2.668   7.512  17.786  0.00  0.00    +0.000 A 
ENDBRANCH   4   8
BRANCH   1  16
ATOM     15  C   UNL     1       7.673   4.719  17.898  0.00  0.00    +0.000 C 
ATOM     16  C   UNL     1       6.542   5.378  17.096  0.00  0.00    +0.000 C 
BRANCH  16  17
ATOM     17  C   UNL     1       6.459   4.902  15.647  0.00  0.00    +0.000 A 
ATOM     18  C   UNL     1       5.506   3.965  15.210  0.00  0.00    +0.000 A 
ATOM     19  C   UNL     1       5.506   3.510  13.891  0.00  0.00    +0.000 A 
ATOM     20  C   UNL     1       6.453   3.995  12.998  0.00  0.00    +0.000 A 
ATOM     21  F   UNL     1       6.466   3.539  11.739  0.00  0.00    +0.000 F 
ATOM     22  C   UNL     1       7.387   4.943  13.394  0.00  0.00    +0.000 A 
ATOM     23  C   UNL     1       7.386   5.403  14.712  0.00  0.00    +0.000 A 
ENDBRANCH  16  17
ENDBRANCH   1  16
BRANCH   4  24
ATOM     24  C   UNL     1       1.772   4.749  20.192  0.00  0.00    +0.000 C 
BRANCH  24  25
ATOM     25  C   UNL     1       1.707   3.218  20.177  0.00  0.00    +0.000 C 
BRANCH  25  26
ATOM     26  C   UNL     1       2.739   2.583  21.085  0.00  0.00    +0.000 C 
ATOM     27  N   UNL     1       3.916   2.233  20.496  0.00  0.00    +0.000 N 
ATOM     28  O   UNL     1       2.544   2.378  22.278  0.00  0.00    +0.000 OA
ATOM     29  H   UNL     1       4.048   2.233  19.494  0.00  0.00    +0.000 HD
ATOM     30  H   UNL     1       4.585   1.732  21.067  0.00  0.00    +0.000 HD
ENDBRANCH  25  26
ENDBRANCH  24  25
ENDBRANCH   4  24
TORSDOF 6
ENDMDL
MODEL 7
REMARK VINA RESULT:      -7.1      1.400      1.741
REMARK  Name = 
REMARK  7 active torsions:
REMARK  status: ('A' for Active; 'I' for Inactive)
REMARK    1  A    between atoms: C_1  and  C_2
REMARK    2  A    between atoms: C_2  and  C_3
REMARK    3  A    between atoms: C_2  and  N_10
REMARK    4  A    between atoms: C_13  and  C_14
REMARK    5  A    between atoms: C_13  and  C_19
REMARK    6  A    between atoms: C_14  and  C_15
REMARK    7  A    between atoms: C_15  and  C_16
REMARK                            x       y       z     vdW  Elec       q    Type
REMARK                         _______ _______ _______ _____ _____    ______ ____
ROOT
ATOM      1  N   UNL     1       5.260   5.212  17.953  0.00  0.00    +0.000 N 
ATOM      2  C   UNL     1       4.141   5.273  17.027  0.00  0.00    +0.000 C 
ATOM      3  C   UNL     1       2.903   4.594  17.577  0.00  0.00    +0.000 C 
ATOM      4  C   UNL     1       2.647   5.105  18.996  0.00  0.00    +0.000 C 
ATOM      5  O   UNL     1       3.827   4.822  19.783  0.00  0.00    +0.000 OA
ATOM      6  C   UNL     1       5.098   4.966  19.308  0.00  0.00    +0.000 C 
ATOM      7  O   UNL     1       6.038   4.870  20.089  0.00  0.00    +0.000 OA
ENDROOT
BRANCH   4   8
ATOM      8  C   UNL     1       2.317   6.612  19.025  0.00  0.00    +0.000 A 
ATOM      9  C   UNL     1       2.446   7.396  17.859  0.00  0.00    +0.000 A 
ATOM     10  C   UNL     1       2.187   8.769  17.883  0.00  0.00    +0.000 A 
ATOM     11  C   UNL     1       1.800   9.374  19.069  0.00  0.00    +0.000 A 
ATOM     12  F   UNL     1       1.564  10.693  19.093  0.00  0.00    +0.000 F 
ATOM     13  C   UNL     1       1.649   8.630  20.229  0.00  0.00    +0.000 A 
ATOM     14  C   UNL     1       1.895   7.256  20.206  0.00  0.00    +0.000 A 
ENDBRANCH   4   8
BRANCH   1  16
ATOM     15  C   UNL     1       6.723   5.019  15.959  0.00  0.00    +0.000 C 
ATOM     16  C   UNL     1       6.631   5.407  17.442  0.00  0.00    +0.000 C 
BRANCH  16  17
ATOM     17  C   UNL     1       7.203   6.789  17.750  0.00  0.00    +0.000 A 
ATOM     18  C   UNL     1       6.770   7.953  17.091  0.00  0.00    +0.000 A 
ATOM     19  C   UNL     1       7.364   9.187  17.359  0.00  0.00    +0.000 A 
ATOM     20  C   UNL     1       8.389   9.267  18.292  0.00  0.00    +0.000 A 
ATOM     21  F   UNL     1       8.974  10.448  18.530  0.00  0.00    +0.000 F 
ATOM     22  C   UNL     1       8.817   8.139  18.979  0.00  0.00    +0.000 A 
ATOM     23  C   UNL     1       8.221   6.904  18.716  0.00  0.00    +0.000 A 
ENDBRANCH  16  17
ENDBRANCH   1  16
BRANCH   4  24
ATOM     24  C   UNL     1       1.476   4.341  19.684  0.00  0.00    +0.000 C 
BRANCH  24  25
ATOM     25  C   UNL     1       1.852   2.976  20.272  0.00  0.00    +0.000 C 
BRANCH  25  26
ATOM     26  C   UNL     1       2.055   1.920  19.207  0.00  0.00    +0.000 C 
ATOM     27  N   UNL     1       0.937   1.530  18.534  0.00  0.00    +0.000 N 
ATOM     28  O   UNL     1       3.149   1.425  18.956  0.00  0.00    +0.000 OA
ATOM     29  H   UNL     1       0.005   1.790  18.824  0.00  0.00    +0.000 HD
ATOM     30  H   UNL     1       1.039   0.766  17.877  0.00  0.00    +0.000 HD
ENDBRANCH  25  26
ENDBRANCH  24  25
ENDBRANCH   4  24
TORSDOF 6
ENDMDL
MODEL 8
REMARK VINA RESULT:      -7.0      2.122      6.210
REMARK  Name = 
REMARK  7 active torsions:
REMARK  status: ('A' for Active; 'I' for Inactive)
REMARK    1  A    between atoms: C_1  and  C_2
REMARK    2  A    between atoms: C_2  and  C_3
REMARK    3  A    between atoms: C_2  and  N_10
REMARK    4  A    between atoms: C_13  and  C_14
REMARK    5  A    between atoms: C_13  and  C_19
REMARK    6  A    between atoms: C_14  and  C_15
REMARK    7  A    between atoms: C_15  and  C_16
REMARK                            x       y       z     vdW  Elec       q    Type
REMARK                         _______ _______ _______ _____ _____    ______ ____
ROOT
ATOM      1  N   UNL     1       3.062   4.590  19.112  0.00  0.00    +0.000 N 
ATOM      2  C   UNL     1       4.356   4.145  19.602  0.00  0.00    +0.000 C 
ATOM      3  C   UNL     1       5.148   3.405  18.543  0.00  0.00    +0.000 C 
ATOM      4  C   UNL     1       5.150   4.234  17.257  0.00  0.00    +0.000 C 
ATOM      5  O   UNL     1       3.773   4.446  16.869  0.00  0.00    +0.000 OA
ATOM      6  C   UNL     1       2.776   4.715  17.761  0.00  0.00    +0.000 C 
ATOM      7  O   UNL     1       1.675   5.049  17.336  0.00  0.00    +0.000 OA
ENDROOT
BRANCH   4   8
ATOM      8  C   UNL     1       5.885   5.581  17.431  0.00  0.00    +0.000 A 
ATOM      9  C   UNL     1       5.298   6.780  16.975  0.00  0.00    +0.000 A 
ATOM     10  C   UNL     1       5.970   8.000  17.091  0.00  0.00    +0.000 A 
ATOM     11  C   UNL     1       7.235   8.035  17.661  0.00  0.00    +0.000 A 
ATOM     12  F   UNL     1       7.883   9.203  17.761  0.00  0.00    +0.000 F 
ATOM     13  C   UNL     1       7.833   6.877  18.132  0.00  0.00    +0.000 A 
ATOM     14  C   UNL     1       7.158   5.659  18.029  0.00  0.00    +0.000 A 
ENDBRANCH   4   8
BRANCH   1  16
ATOM     15  C   UNL     1       2.235   4.202  21.418  0.00  0.00    +0.000 C 
ATOM     16  C   UNL     1       1.997   4.917  20.080  0.00  0.00    +0.000 C 
BRANCH  16  17
ATOM     17  C   UNL     1       1.746   6.417  20.223  0.00  0.00    +0.000 A 
ATOM     18  C   UNL     1       0.998   6.962  21.282  0.00  0.00    +0.000 A 
ATOM     19  C   UNL     1       0.740   8.333  21.341  0.00  0.00    +0.000 A 
ATOM     20  C   UNL     1       1.233   9.167  20.347  0.00  0.00    +0.000 A 
ATOM     21  F   UNL     1       0.964  10.478  20.393  0.00  0.00    +0.000 F 
ATOM     22  C   UNL     1       1.999   8.660  19.306  0.00  0.00    +0.000 A 
ATOM     23  C   UNL     1       2.262   7.291  19.247  0.00  0.00    +0.000 A 
ENDBRANCH  16  17
ENDBRANCH   1  16
BRANCH   4  24
ATOM     24  C   UNL     1       5.819   3.469  16.076  0.00  0.00    +0.000 C 
BRANCH  24  25
ATOM     25  C   UNL     1       5.431   3.970  14.680  0.00  0.00    +0.000 C 
BRANCH  25  26
ATOM     26  C   UNL     1       6.633   4.361  13.847  0.00  0.00    +0.000 C 
ATOM     27  N   UNL     1       7.508   5.226  14.432  0.00  0.00    +0.000 N 
ATOM     28  O   UNL     1       6.822   3.944  12.709  0.00  0.00    +0.000 OA
ATOM     29  H   UNL     1       7.301   5.715  15.292  0.00  0.00    +0.000 HD
ATOM     30  H   UNL     1       8.272   5.563  13.861  0.00  0.00    +0.000 HD
ENDBRANCH  25  26
ENDBRANCH  24  25
ENDBRANCH   4  24
TORSDOF 6
ENDMDL
MODEL 9
REMARK VINA RESULT:      -7.0      8.221     11.265
REMARK  Name = 
REMARK  7 active torsions:
REMARK  status: ('A' for Active; 'I' for Inactive)
REMARK    1  A    between atoms: C_1  and  C_2
REMARK    2  A    between atoms: C_2  and  C_3
REMARK    3  A    between atoms: C_2  and  N_10
REMARK    4  A    between atoms: C_13  and  C_14
REMARK    5  A    between atoms: C_13  and  C_19
REMARK    6  A    between atoms: C_14  and  C_15
REMARK    7  A    between atoms: C_15  and  C_16
REMARK                            x       y       z     vdW  Elec       q    Type
REMARK                         _______ _______ _______ _____ _____    ______ ____
ROOT
ATOM      1  N   UNL     1      -3.670  12.601  20.352  0.00  0.00    +0.000 N 
ATOM      2  C   UNL     1      -2.386  13.060  19.850  0.00  0.00    +0.000 C 
ATOM      3  C   UNL     1      -1.650  13.921  20.856  0.00  0.00    +0.000 C 
ATOM      4  C   UNL     1      -1.641  13.205  22.208  0.00  0.00    +0.000 C 
ATOM      5  O   UNL     1      -3.017  12.966  22.587  0.00  0.00    +0.000 OA
ATOM      6  C   UNL     1      -3.981  12.579  21.703  0.00  0.00    +0.000 C 
ATOM      7  O   UNL     1      -5.077  12.234  22.134  0.00  0.00    +0.000 OA
ENDROOT
BRANCH   4   8
ATOM      8  C   UNL     1      -0.847  11.882  22.165  0.00  0.00    +0.000 A 
ATOM      9  C   UNL     1      -1.105  10.861  23.103  0.00  0.00    +0.000 A 
ATOM     10  C   UNL     1      -0.366   9.675  23.098  0.00  0.00    +0.000 A 
ATOM     11  C   UNL     1       0.640   9.498  22.159  0.00  0.00    +0.000 A 
ATOM     12  F   UNL     1       1.357   8.366  22.163  0.00  0.00    +0.000 F 
ATOM     13  C   UNL     1       0.910  10.476  21.214  0.00  0.00    +0.000 A 
ATOM     14  C   UNL     1       0.164  11.656  21.209  0.00  0.00    +0.000 A 
ENDBRANCH   4   8
BRANCH   1  16
ATOM     15  C   UNL     1      -5.683  13.279  19.071  0.00  0.00    +0.000 C 
ATOM     16  C   UNL     1      -4.699  12.146  19.396  0.00  0.00    +0.000 C 
BRANCH  16  17
ATOM     17  C   UNL     1      -4.119  11.464  18.158  0.00  0.00    +0.000 A 
ATOM     18  C   UNL     1      -4.590  11.724  16.859  0.00  0.00    +0.000 A 
ATOM     19  C   UNL     1      -4.075  11.033  15.762  0.00  0.00    +0.000 A 
ATOM     20  C   UNL     1      -3.080  10.084  15.955  0.00  0.00    +0.000 A 
ATOM     21  F   UNL     1      -2.604   9.405  14.903  0.00  0.00    +0.000 F 
ATOM     22  C   UNL     1      -2.575   9.828  17.223  0.00  0.00    +0.000 A 
ATOM     23  C   UNL     1      -3.086  10.521  18.321  0.00  0.00    +0.000 A 
ENDBRANCH  16  17
ENDBRANCH   1  16
BRANCH   4  24
ATOM     24  C   UNL     1      -1.033  14.097  23.331  0.00  0.00    +0.000 C 
BRANCH  24  25
ATOM     25  C   UNL     1      -1.931  15.247  23.801  0.00  0.00    +0.000 C 
BRANCH  25  26
ATOM     26  C   UNL     1      -2.398  15.074  25.231  0.00  0.00    +0.000 C 
ATOM     27  N   UNL     1      -3.557  14.379  25.399  0.00  0.00    +0.000 N 
ATOM     28  O   UNL     1      -1.790  15.533  26.192  0.00  0.00    +0.000 OA
ATOM     29  H   UNL     1      -4.165  14.134  24.630  0.00  0.00    +0.000 HD
ATOM     30  H   UNL     1      -3.928  14.325  26.340  0.00  0.00    +0.000 HD
ENDBRANCH  25  26
ENDBRANCH  24  25
ENDBRANCH   4  24
TORSDOF 6
ENDMDL
