MODEL 1
REMARK VINA RESULT:      -6.9      0.000      0.000
REMARK  Name = 
REMARK  6 active torsions:
REMARK  status: ('A' for Active; 'I' for Inactive)
REMARK    1  A    between atoms: C_1  and  C_2
REMARK    2  A    between atoms: N_4  and  C_5
REMARK    3  A    between atoms: C_10  and  N_11
REMARK    4  A    between atoms: C_16  and  C_17
REMARK    5  A    between atoms: C_17  and  O_19
REMARK    6  A    between atoms: C_30  and  C_31
REMARK                            x       y       z     vdW  Elec       q    Type
REMARK                         _______ _______ _______ _____ _____    ______ ____
ROOT
ATOM      1  C   UNL     1      -1.546  11.809  20.281  0.00  0.00    +0.000 A 
ATOM      2  C   UNL     1      -2.850  12.256  19.921  0.00  0.00    +0.000 A 
ATOM      3  C   UNL     1      -3.883  12.617  20.806  0.00  0.00    +0.000 A 
ATOM      4  C   UNL     1      -3.559  12.532  22.162  0.00  0.00    +0.000 A 
ATOM      5  C   UNL     1      -2.291  12.116  22.598  0.00  0.00    +0.000 A 
ATOM      6  C   UNL     1      -1.309  11.772  21.662  0.00  0.00    +0.000 A 
ATOM      7  C   UNL     1      -4.550  12.891  23.182  0.00  0.00    +0.000 A 
ATOM      8  O   UNL     1      -4.247  12.802  24.373  0.00  0.00    +0.000 OA
ATOM      9  C   UNL     1      -5.896  13.366  22.783  0.00  0.00    +0.000 A 
ATOM     10  C   UNL     1      -6.126  13.414  21.447  0.00  0.00    +0.000 A 
ATOM     11  S   UNL     1      -7.699  13.971  20.822  0.00  0.00    +0.000 S 
ATOM     12  C   UNL     1      -7.132  13.692  19.173  0.00  0.00    +0.000 A 
ATOM     13  C   UNL     1      -7.917  13.924  18.045  0.00  0.00    +0.000 A 
ATOM     14  C   UNL     1      -7.381  13.662  16.793  0.00  0.00    +0.000 A 
ATOM     15  C   UNL     1      -6.082  13.173  16.697  0.00  0.00    +0.000 A 
ATOM     16  C   UNL     1      -5.307  12.943  17.849  0.00  0.00    +0.000 A 
ATOM     17  C   UNL     1      -5.808  13.203  19.121  0.00  0.00    +0.000 A 
ATOM     18  N   UNL     1      -5.193  13.046  20.421  0.00  0.00    +0.000 N 
ENDROOT
BRANCH   1  22
ATOM     19  C   UNL     1       1.204   9.089  20.256  0.00  0.00    +0.000 C 
ATOM     20  C   UNL     1       0.808   9.470  18.831  0.00  0.00    +0.000 C 
ATOM     21  C   UNL     1      -0.620  10.054  18.720  0.00  0.00    +0.000 C 
ATOM     22  N   UNL     1      -0.670  11.423  19.282  0.00  0.00    +0.000 N 
ATOM     23  C   UNL     1       0.334  12.312  18.662  0.00  0.00    +0.000 C 
ATOM     24  C   UNL     1       1.739  11.682  18.781  0.00  0.00    +0.000 C 
ATOM     25  C   UNL     1       2.763  12.520  18.028  0.00  0.00    +0.000 C 
ATOM     26  O   UNL     1       1.783  10.350  18.241  0.00  0.00    +0.000 OA
ENDBRANCH   1  22
BRANCH   6  27
ATOM     27  N   UNL     1      -0.010  11.452  22.220  0.00  0.00    +0.000 N 
ATOM     28  O   UNL     1       0.962  12.115  21.834  0.00  0.00    +0.000 OA
ATOM     29  O   UNL     1       0.022  10.555  23.074  0.00  0.00    +0.000 OA
ENDBRANCH   6  27
BRANCH   9  30
ATOM     30  C   UNL     1      -6.880  13.748  23.850  0.00  0.00    +0.000 C 
ATOM     31  O   UNL     1      -7.821  13.069  24.228  0.00  0.00    +0.000 OA
BRANCH  30  32
ATOM     32  O   UNL     1      -6.670  14.960  24.418  0.00  0.00    +0.000 OA
ATOM     33  H   UNL     1      -6.827  15.005  25.391  0.00  0.00    +0.000 HD
ENDBRANCH  30  32
ENDBRANCH   9  30
TORSDOF 4
ENDMDL
MODEL 2
REMARK VINA RESULT:      -6.9      2.953      3.515
REMARK  Name = 
REMARK  6 active torsions:
REMARK  status: ('A' for Active; 'I' for Inactive)
REMARK    1  A    between atoms: C_1  and  C_2
REMARK    2  A    between atoms: N_4  and  C_5
REMARK    3  A    between atoms: C_10  and  N_11
REMARK    4  A    between atoms: C_16  and  C_17
REMARK    5  A    between atoms: C_17  and  O_19
REMARK    6  A    between atoms: C_30  and  C_31
REMARK                            x       y       z     vdW  Elec       q    Type
REMARK                         _______ _______ _______ _____ _____    ______ ____
ROOT
ATOM      1  C   UNL     1      -0.287  11.901  21.433  0.00  0.00    +0.000 A 
ATOM      2  C   UNL     1      -0.910  13.159  21.189  0.00  0.00    +0.000 A 
ATOM      3  C   UNL     1      -2.077  13.646  21.808  0.00  0.00    +0.000 A 
ATOM      4  C   UNL     1      -2.644  12.795  22.758  0.00  0.00    +0.000 A 
ATOM      5  C   UNL     1      -2.082  11.547  23.067  0.00  0.00    +0.000 A 
ATOM      6  C   UNL     1      -0.919  11.124  22.414  0.00  0.00    +0.000 A 
ATOM      7  C   UNL     1      -3.858  13.196  23.477  0.00  0.00    +0.000 A 
ATOM      8  O   UNL     1      -4.347  12.428  24.307  0.00  0.00    +0.000 OA
ATOM      9  C   UNL     1      -4.480  14.516  23.217  0.00  0.00    +0.000 A 
ATOM     10  C   UNL     1      -3.866  15.276  22.276  0.00  0.00    +0.000 A 
ATOM     11  S   UNL     1      -4.501  16.889  21.864  0.00  0.00    +0.000 S 
ATOM     12  C   UNL     1      -3.216  17.079  20.668  0.00  0.00    +0.000 A 
ATOM     13  C   UNL     1      -3.076  18.212  19.868  0.00  0.00    +0.000 A 
ATOM     14  C   UNL     1      -2.038  18.258  18.950  0.00  0.00    +0.000 A 
ATOM     15  C   UNL     1      -1.169  17.176  18.850  0.00  0.00    +0.000 A 
ATOM     16  C   UNL     1      -1.329  16.040  19.665  0.00  0.00    +0.000 A 
ATOM     17  C   UNL     1      -2.354  15.962  20.603  0.00  0.00    +0.000 A 
ATOM     18  N   UNL     1      -2.695  14.908  21.533  0.00  0.00    +0.000 N 
ENDROOT
BRANCH   1  22
ATOM     19  C   UNL     1       1.229  13.511  18.259  0.00  0.00    +0.000 C 
ATOM     20  C   UNL     1       2.256  12.622  18.958  0.00  0.00    +0.000 C 
ATOM     21  C   UNL     1       1.985  12.432  20.468  0.00  0.00    +0.000 C 
ATOM     22  N   UNL     1       0.819  11.544  20.683  0.00  0.00    +0.000 N 
ATOM     23  C   UNL     1       0.975  10.250  19.987  0.00  0.00    +0.000 C 
ATOM     24  C   UNL     1       1.261  10.489  18.489  0.00  0.00    +0.000 C 
ATOM     25  C   UNL     1       1.558   9.171  17.787  0.00  0.00    +0.000 C 
ATOM     26  O   UNL     1       2.389  11.357  18.284  0.00  0.00    +0.000 OA
ENDBRANCH   1  22
BRANCH   6  27
ATOM     27  N   UNL     1      -0.373   9.864  22.880  0.00  0.00    +0.000 N 
ATOM     28  O   UNL     1       0.472   9.902  23.785  0.00  0.00    +0.000 OA
ATOM     29  O   UNL     1      -0.824   8.836  22.357  0.00  0.00    +0.000 OA
ENDBRANCH   6  27
BRANCH   9  30
ATOM     30  C   UNL     1      -5.709  14.908  23.986  0.00  0.00    +0.000 C 
ATOM     31  O   UNL     1      -5.948  16.019  24.428  0.00  0.00    +0.000 OA
BRANCH  30  32
ATOM     32  O   UNL     1      -6.605  13.911  24.183  0.00  0.00    +0.000 OA
ATOM     33  H   UNL     1      -7.157  13.991  24.997  0.00  0.00    +0.000 HD
ENDBRANCH  30  32
ENDBRANCH   9  30
TORSDOF 4
ENDMDL
MODEL 3
REMARK VINA RESULT:      -6.8      4.028      8.008
REMARK  Name = 
REMARK  6 active torsions:
REMARK  status: ('A' for Active; 'I' for Inactive)
REMARK    1  A    between atoms: C_1  and  C_2
REMARK    2  A    between atoms: N_4  and  C_5
REMARK    3  A    between atoms: C_10  and  N_11
REMARK    4  A    between atoms: C_16  and  C_17
REMARK    5  A    between atoms: C_17  and  O_19
REMARK    6  A    between atoms: C_30  and  C_31
REMARK                            x       y       z     vdW  Elec       q    Type
REMARK                         _______ _______ _______ _____ _____    ______ ____
ROOT
ATOM      1  C   UNL     1      -2.954  15.336  21.201  0.00  0.00    +0.000 A 
ATOM      2  C   UNL     1      -1.913  14.558  20.619  0.00  0.00    +0.000 A 
ATOM      3  C   UNL     1      -0.759  15.051  19.980  0.00  0.00    +0.000 A 
ATOM      4  C   UNL     1      -0.650  16.442  19.945  0.00  0.00    +0.000 A 
ATOM      5  C   UNL     1      -1.625  17.278  20.509  0.00  0.00    +0.000 A 
ATOM      6  C   UNL     1      -2.748  16.721  21.131  0.00  0.00    +0.000 A 
ATOM      7  C   UNL     1       0.513  17.076  19.313  0.00  0.00    +0.000 A 
ATOM      8  O   UNL     1       0.587  18.305  19.286  0.00  0.00    +0.000 OA
ATOM      9  C   UNL     1       1.591  16.244  18.727  0.00  0.00    +0.000 A 
ATOM     10  C   UNL     1       1.401  14.904  18.803  0.00  0.00    +0.000 A 
ATOM     11  S   UNL     1       2.619  13.782  18.143  0.00  0.00    +0.000 S 
ATOM     12  C   UNL     1       1.606  12.416  18.621  0.00  0.00    +0.000 A 
ATOM     13  C   UNL     1       1.954  11.087  18.389  0.00  0.00    +0.000 A 
ATOM     14  C   UNL     1       1.083  10.087  18.794  0.00  0.00    +0.000 A 
ATOM     15  C   UNL     1      -0.113  10.436  19.415  0.00  0.00    +0.000 A 
ATOM     16  C   UNL     1      -0.447  11.785  19.638  0.00  0.00    +0.000 A 
ATOM     17  C   UNL     1       0.407  12.814  19.253  0.00  0.00    +0.000 A 
ATOM     18  N   UNL     1       0.267  14.248  19.387  0.00  0.00    +0.000 N 
ENDROOT
BRANCH   1  22
ATOM     19  C   UNL     1      -3.202  12.232  23.495  0.00  0.00    +0.000 C 
ATOM     20  C   UNL     1      -4.494  13.045  23.544  0.00  0.00    +0.000 C 
ATOM     21  C   UNL     1      -4.303  14.535  23.179  0.00  0.00    +0.000 C 
ATOM     22  N   UNL     1      -4.059  14.691  21.727  0.00  0.00    +0.000 N 
ATOM     23  C   UNL     1      -5.124  14.062  20.918  0.00  0.00    +0.000 C 
ATOM     24  C   UNL     1      -5.291  12.583  21.328  0.00  0.00    +0.000 C 
ATOM     25  C   UNL     1      -6.474  11.959  20.599  0.00  0.00    +0.000 C 
ATOM     26  O   UNL     1      -5.520  12.434  22.739  0.00  0.00    +0.000 OA
ENDBRANCH   1  22
BRANCH   6  27
ATOM     27  N   UNL     1      -3.640  17.674  21.763  0.00  0.00    +0.000 N 
ATOM     28  O   UNL     1      -3.343  18.076  22.896  0.00  0.00    +0.000 OA
ATOM     29  O   UNL     1      -4.619  18.042  21.101  0.00  0.00    +0.000 OA
ENDBRANCH   6  27
BRANCH   9  30
ATOM     30  C   UNL     1       2.780  16.922  18.109  0.00  0.00    +0.000 C 
ATOM     31  O   UNL     1       3.894  16.995  18.601  0.00  0.00    +0.000 OA
BRANCH  30  32
ATOM     32  O   UNL     1       2.554  17.488  16.899  0.00  0.00    +0.000 OA
ATOM     33  H   UNL     1       2.497  18.473  16.895  0.00  0.00    +0.000 HD
ENDBRANCH  30  32
ENDBRANCH   9  30
TORSDOF 4
ENDMDL
MODEL 4
REMARK VINA RESULT:      -6.7      3.260      6.100
REMARK  Name = 
REMARK  6 active torsions:
REMARK  status: ('A' for Active; 'I' for Inactive)
REMARK    1  A    between atoms: C_1  and  C_2
REMARK    2  A    between atoms: N_4  and  C_5
REMARK    3  A    between atoms: C_10  and  N_11
REMARK    4  A    between atoms: C_16  and  C_17
REMARK    5  A    between atoms: C_17  and  O_19
REMARK    6  A    between atoms: C_30  and  C_31
REMARK                            x       y       z     vdW  Elec       q    Type
REMARK                         _______ _______ _______ _____ _____    ______ ____
ROOT
ATOM      1  C   UNL     1      -1.284  14.262  21.851  0.00  0.00    +0.000 A 
ATOM      2  C   UNL     1      -2.501  13.636  21.456  0.00  0.00    +0.000 A 
ATOM      3  C   UNL     1      -2.729  12.938  20.255  0.00  0.00    +0.000 A 
ATOM      4  C   UNL     1      -1.630  12.857  19.398  0.00  0.00    +0.000 A 
ATOM      5  C   UNL     1      -0.392  13.433  19.722  0.00  0.00    +0.000 A 
ATOM      6  C   UNL     1      -0.234  14.113  20.934  0.00  0.00    +0.000 A 
ATOM      7  C   UNL     1      -1.742  12.147  18.119  0.00  0.00    +0.000 A 
ATOM      8  O   UNL     1      -0.763  12.093  17.374  0.00  0.00    +0.000 OA
ATOM      9  C   UNL     1      -3.015  11.492  17.736  0.00  0.00    +0.000 A 
ATOM     10  C   UNL     1      -4.030  11.624  18.626  0.00  0.00    +0.000 A 
ATOM     11  S   UNL     1      -5.618  10.883  18.299  0.00  0.00    +0.000 S 
ATOM     12  C   UNL     1      -6.227  11.538  19.821  0.00  0.00    +0.000 A 
ATOM     13  C   UNL     1      -7.534  11.349  20.268  0.00  0.00    +0.000 A 
ATOM     14  C   UNL     1      -7.917  11.915  21.474  0.00  0.00    +0.000 A 
ATOM     15  C   UNL     1      -6.992  12.657  22.202  0.00  0.00    +0.000 A 
ATOM     16  C   UNL     1      -5.677  12.838  21.732  0.00  0.00    +0.000 A 
ATOM     17  C   UNL     1      -5.255  12.277  20.531  0.00  0.00    +0.000 A 
ATOM     18  N   UNL     1      -3.969  12.332  19.872  0.00  0.00    +0.000 N 
ENDROOT
BRANCH   1  22
ATOM     19  C   UNL     1      -4.066  14.968  24.444  0.00  0.00    +0.000 C 
ATOM     20  C   UNL     1      -2.685  15.177  25.063  0.00  0.00    +0.000 C 
ATOM     21  C   UNL     1      -1.563  14.379  24.358  0.00  0.00    +0.000 C 
ATOM     22  N   UNL     1      -1.250  14.972  23.038  0.00  0.00    +0.000 N 
ATOM     23  C   UNL     1      -0.917  16.408  23.143  0.00  0.00    +0.000 C 
ATOM     24  C   UNL     1      -2.055  17.160  23.866  0.00  0.00    +0.000 C 
ATOM     25  C   UNL     1      -1.666  18.614  24.102  0.00  0.00    +0.000 C 
ATOM     26  O   UNL     1      -2.361  16.578  25.145  0.00  0.00    +0.000 OA
ENDBRANCH   1  22
BRANCH   6  27
ATOM     27  N   UNL     1       1.110  14.583  21.208  0.00  0.00    +0.000 N 
ATOM     28  O   UNL     1       1.820  13.895  21.954  0.00  0.00    +0.000 OA
ATOM     29  O   UNL     1       1.460  15.627  20.640  0.00  0.00    +0.000 OA
ENDBRANCH   6  27
BRANCH   9  30
ATOM     30  C   UNL     1      -3.091  10.753  16.432  0.00  0.00    +0.000 C 
ATOM     31  O   UNL     1      -3.022   9.543  16.293  0.00  0.00    +0.000 OA
BRANCH  30  32
ATOM     32  O   UNL     1      -3.252  11.535  15.337  0.00  0.00    +0.000 OA
ATOM     33  H   UNL     1      -3.145  11.077  14.469  0.00  0.00    +0.000 HD
ENDBRANCH  30  32
ENDBRANCH   9  30
TORSDOF 4
ENDMDL
MODEL 5
REMARK VINA RESULT:      -6.7      3.314      3.846
REMARK  Name = 
REMARK  6 active torsions:
REMARK  status: ('A' for Active; 'I' for Inactive)
REMARK    1  A    between atoms: C_1  and  C_2
REMARK    2  A    between atoms: N_4  and  C_5
REMARK    3  A    between atoms: C_10  and  N_11
REMARK    4  A    between atoms: C_16  and  C_17
REMARK    5  A    between atoms: C_17  and  O_19
REMARK    6  A    between atoms: C_30  and  C_31
REMARK                            x       y       z     vdW  Elec       q    Type
REMARK                         _______ _______ _______ _____ _____    ______ ____
ROOT
ATOM      1  C   UNL     1      -0.210  11.500  21.432  0.00  0.00    +0.000 A 
ATOM      2  C   UNL     1      -0.639  12.825  21.131  0.00  0.00    +0.000 A 
ATOM      3  C   UNL     1      -1.628  13.558  21.814  0.00  0.00    +0.000 A 
ATOM      4  C   UNL     1      -2.214  12.898  22.897  0.00  0.00    +0.000 A 
ATOM      5  C   UNL     1      -1.834  11.599  23.268  0.00  0.00    +0.000 A 
ATOM      6  C   UNL     1      -0.843  10.927  22.545  0.00  0.00    +0.000 A 
ATOM      7  C   UNL     1      -3.251  13.562  23.693  0.00  0.00    +0.000 A 
ATOM      8  O   UNL     1      -3.760  12.961  24.639  0.00  0.00    +0.000 OA
ATOM      9  C   UNL     1      -3.672  14.946  23.368  0.00  0.00    +0.000 A 
ATOM     10  C   UNL     1      -3.054  15.508  22.300  0.00  0.00    +0.000 A 
ATOM     11  S   UNL     1      -3.457  17.171  21.798  0.00  0.00    +0.000 S 
ATOM     12  C   UNL     1      -2.307  17.036  20.464  0.00  0.00    +0.000 A 
ATOM     13  C   UNL     1      -2.075  18.059  19.547  0.00  0.00    +0.000 A 
ATOM     14  C   UNL     1      -1.159  17.849  18.528  0.00  0.00    +0.000 A 
ATOM     15  C   UNL     1      -0.500  16.626  18.446  0.00  0.00    +0.000 A 
ATOM     16  C   UNL     1      -0.750  15.605  19.381  0.00  0.00    +0.000 A 
ATOM     17  C   UNL     1      -1.656  15.783  20.422  0.00  0.00    +0.000 A 
ATOM     18  N   UNL     1      -2.056  14.883  21.481  0.00  0.00    +0.000 N 
ENDROOT
BRANCH   1  22
ATOM     19  C   UNL     1      -0.564  10.006  17.882  0.00  0.00    +0.000 C 
ATOM     20  C   UNL     1       0.900  10.305  18.200  0.00  0.00    +0.000 C 
ATOM     21  C   UNL     1       1.090  11.404  19.270  0.00  0.00    +0.000 C 
ATOM     22  N   UNL     1       0.726  10.896  20.612  0.00  0.00    +0.000 N 
ATOM     23  C   UNL     1       1.467   9.664  20.956  0.00  0.00    +0.000 C 
ATOM     24  C   UNL     1       1.262   8.603  19.853  0.00  0.00    +0.000 C 
ATOM     25  C   UNL     1       2.127   7.380  20.125  0.00  0.00    +0.000 C 
ATOM     26  O   UNL     1       1.610   9.102  18.550  0.00  0.00    +0.000 OA
ENDBRANCH   1  22
BRANCH   6  27
ATOM     27  N   UNL     1      -0.463   9.632  23.074  0.00  0.00    +0.000 N 
ATOM     28  O   UNL     1      -0.935   8.626  22.527  0.00  0.00    +0.000 OA
ATOM     29  O   UNL     1       0.339   9.631  24.017  0.00  0.00    +0.000 OA
ENDBRANCH   6  27
BRANCH   9  30
ATOM     30  C   UNL     1      -4.719  15.608  24.216  0.00  0.00    +0.000 C 
ATOM     31  O   UNL     1      -4.559  16.610  24.894  0.00  0.00    +0.000 OA
BRANCH  30  32
ATOM     32  O   UNL     1      -5.934  15.009  24.200  0.00  0.00    +0.000 OA
ATOM     33  H   UNL     1      -6.047  14.260  24.832  0.00  0.00    +0.000 HD
ENDBRANCH  30  32
ENDBRANCH   9  30
TORSDOF 4
ENDMDL
MODEL 6
REMARK VINA RESULT:      -6.6      3.251      7.277
REMARK  Name = 
REMARK  6 active torsions:
REMARK  status: ('A' for Active; 'I' for Inactive)
REMARK    1  A    between atoms: C_1  and  C_2
REMARK    2  A    between atoms: N_4  and  C_5
REMARK    3  A    between atoms: C_10  and  N_11
REMARK    4  A    between atoms: C_16  and  C_17
REMARK    5  A    between atoms: C_17  and  O_19
REMARK    6  A    between atoms: C_30  and  C_31
REMARK                            x       y       z     vdW  Elec       q    Type
REMARK                         _______ _______ _______ _____ _____    ______ ____
ROOT
ATOM      1  C   UNL     1      -3.850  11.841  18.687  0.00  0.00    +0.000 A 
ATOM      2  C   UNL     1      -3.394  12.640  19.775  0.00  0.00    +0.000 A 
ATOM      3  C   UNL     1      -2.059  12.992  20.050  0.00  0.00    +0.000 A 
ATOM      4  C   UNL     1      -1.118  12.507  19.140  0.00  0.00    +0.000 A 
ATOM      5  C   UNL     1      -1.488  11.726  18.035  0.00  0.00    +0.000 A 
ATOM      6  C   UNL     1      -2.834  11.414  17.819  0.00  0.00    +0.000 A 
ATOM      7  C   UNL     1       0.306  12.814  19.316  0.00  0.00    +0.000 A 
ATOM      8  O   UNL     1       1.121  12.371  18.507  0.00  0.00    +0.000 OA
ATOM      9  C   UNL     1       0.754  13.660  20.448  0.00  0.00    +0.000 A 
ATOM     10  C   UNL     1      -0.226  14.085  21.284  0.00  0.00    +0.000 A 
ATOM     11  S   UNL     1       0.167  15.113  22.685  0.00  0.00    +0.000 S 
ATOM     12  C   UNL     1      -1.540  15.130  23.139  0.00  0.00    +0.000 A 
ATOM     13  C   UNL     1      -2.027  15.801  24.260  0.00  0.00    +0.000 A 
ATOM     14  C   UNL     1      -3.385  15.743  24.535  0.00  0.00    +0.000 A 
ATOM     15  C   UNL     1      -4.220  15.016  23.693  0.00  0.00    +0.000 A 
ATOM     16  C   UNL     1      -3.708  14.344  22.568  0.00  0.00    +0.000 A 
ATOM     17  C   UNL     1      -2.352  14.388  22.254  0.00  0.00    +0.000 A 
ATOM     18  N   UNL     1      -1.623  13.783  21.161  0.00  0.00    +0.000 N 
ENDROOT
BRANCH   1  22
ATOM     19  C   UNL     1      -6.923  13.453  20.396  0.00  0.00    +0.000 C 
ATOM     20  C   UNL     1      -7.348  12.640  19.174  0.00  0.00    +0.000 C 
ATOM     21  C   UNL     1      -6.228  12.473  18.122  0.00  0.00    +0.000 C 
ATOM     22  N   UNL     1      -5.195  11.528  18.603  0.00  0.00    +0.000 N 
ATOM     23  C   UNL     1      -5.776  10.227  18.995  0.00  0.00    +0.000 C 
ATOM     24  C   UNL     1      -6.899  10.444  20.032  0.00  0.00    +0.000 C 
ATOM     25  C   UNL     1      -7.598   9.127  20.343  0.00  0.00    +0.000 C 
ATOM     26  O   UNL     1      -7.897  11.368  19.564  0.00  0.00    +0.000 OA
ENDBRANCH   1  22
BRANCH   6  27
ATOM     27  N   UNL     1      -3.112  10.686  16.596  0.00  0.00    +0.000 N 
ATOM     28  O   UNL     1      -3.057   9.449  16.638  0.00  0.00    +0.000 OA
ATOM     29  O   UNL     1      -3.419  11.361  15.605  0.00  0.00    +0.000 OA
ENDBRANCH   6  27
BRANCH   9  30
ATOM     30  C   UNL     1       2.215  13.977  20.588  0.00  0.00    +0.000 C 
ATOM     31  O   UNL     1       2.977  13.480  21.401  0.00  0.00    +0.000 OA
BRANCH  30  32
ATOM     32  O   UNL     1       2.688  14.899  19.715  0.00  0.00    +0.000 OA
ATOM     33  H   UNL     1       2.269  14.893  18.822  0.00  0.00    +0.000 HD
ENDBRANCH  30  32
ENDBRANCH   9  30
TORSDOF 4
ENDMDL
MODEL 7
REMARK VINA RESULT:      -6.6      2.933      6.769
REMARK  Name = 
REMARK  6 active torsions:
REMARK  status: ('A' for Active; 'I' for Inactive)
REMARK    1  A    between atoms: C_1  and  C_2
REMARK    2  A    between atoms: N_4  and  C_5
REMARK    3  A    between atoms: C_10  and  N_11
REMARK    4  A    between atoms: C_16  and  C_17
REMARK    5  A    between atoms: C_17  and  O_19
REMARK    6  A    between atoms: C_30  and  C_31
REMARK                            x       y       z     vdW  Elec       q    Type
REMARK                         _______ _______ _______ _____ _____    ______ ____
ROOT
ATOM      1  C   UNL     1      -2.310  14.773  22.542  0.00  0.00    +0.000 A 
ATOM      2  C   UNL     1      -2.662  13.904  21.470  0.00  0.00    +0.000 A 
ATOM      3  C   UNL     1      -1.789  13.059  20.759  0.00  0.00    +0.000 A 
ATOM      4  C   UNL     1      -0.458  13.089  21.184  0.00  0.00    +0.000 A 
ATOM      5  C   UNL     1      -0.035  13.905  22.243  0.00  0.00    +0.000 A 
ATOM      6  C   UNL     1      -0.957  14.722  22.907  0.00  0.00    +0.000 A 
ATOM      7  C   UNL     1       0.545  12.245  20.526  0.00  0.00    +0.000 A 
ATOM      8  O   UNL     1       1.714  12.291  20.910  0.00  0.00    +0.000 OA
ATOM      9  C   UNL     1       0.153  11.338  19.421  0.00  0.00    +0.000 A 
ATOM     10  C   UNL     1      -1.158  11.377  19.072  0.00  0.00    +0.000 A 
ATOM     11  S   UNL     1      -1.773  10.336  17.763  0.00  0.00    +0.000 S 
ATOM     12  C   UNL     1      -3.384  11.023  17.986  0.00  0.00    +0.000 A 
ATOM     13  C   UNL     1      -4.488  10.650  17.221  0.00  0.00    +0.000 A 
ATOM     14  C   UNL     1      -5.709  11.258  17.469  0.00  0.00    +0.000 A 
ATOM     15  C   UNL     1      -5.799  12.223  18.468  0.00  0.00    +0.000 A 
ATOM     16  C   UNL     1      -4.672  12.586  19.228  0.00  0.00    +0.000 A 
ATOM     17  C   UNL     1      -3.432  11.991  19.014  0.00  0.00    +0.000 A 
ATOM     18  N   UNL     1      -2.162  12.207  19.671  0.00  0.00    +0.000 N 
ENDROOT
BRANCH   1  22
ATOM     19  C   UNL     1      -6.150  14.347  22.732  0.00  0.00    +0.000 C 
ATOM     20  C   UNL     1      -5.668  15.369  23.761  0.00  0.00    +0.000 C 
ATOM     21  C   UNL     1      -4.191  15.178  24.177  0.00  0.00    +0.000 C 
ATOM     22  N   UNL     1      -3.282  15.595  23.086  0.00  0.00    +0.000 N 
ATOM     23  C   UNL     1      -3.551  16.978  22.641  0.00  0.00    +0.000 C 
ATOM     24  C   UNL     1      -5.038  17.125  22.252  0.00  0.00    +0.000 C 
ATOM     25  C   UNL     1      -5.360  18.576  21.921  0.00  0.00    +0.000 C 
ATOM     26  O   UNL     1      -5.918  16.713  23.312  0.00  0.00    +0.000 OA
ENDBRANCH   1  22
BRANCH   6  27
ATOM     27  N   UNL     1      -0.431  15.448  24.046  0.00  0.00    +0.000 N 
ATOM     28  O   UNL     1       0.348  16.385  23.822  0.00  0.00    +0.000 OA
ATOM     29  O   UNL     1      -0.832  15.096  25.164  0.00  0.00    +0.000 OA
ENDBRANCH   6  27
BRANCH   9  30
ATOM     30  C   UNL     1       1.198  10.469  18.785  0.00  0.00    +0.000 C 
ATOM     31  O   UNL     1       1.332   9.269  18.961  0.00  0.00    +0.000 OA
BRANCH  30  32
ATOM     32  O   UNL     1       2.047  11.112  17.947  0.00  0.00    +0.000 OA
ATOM     33  H   UNL     1       2.601  11.815  18.362  0.00  0.00    +0.000 HD
ENDBRANCH  30  32
ENDBRANCH   9  30
TORSDOF 4
ENDMDL
MODEL 8
REMARK VINA RESULT:      -6.6      3.517      7.606
REMARK  Name = 
REMARK  6 active torsions:
REMARK  status: ('A' for Active; 'I' for Inactive)
REMARK    1  A    between atoms: C_1  and  C_2
REMARK    2  A    between atoms: N_4  and  C_5
REMARK    3  A    between atoms: C_10  and  N_11
REMARK    4  A    between atoms: C_16  and  C_17
REMARK    5  A    between atoms: C_17  and  O_19
REMARK    6  A    between atoms: C_30  and  C_31
REMARK                            x       y       z     vdW  Elec       q    Type
REMARK                         _______ _______ _______ _____ _____    ______ ____
ROOT
ATOM      1  C   UNL     1      -3.530  14.073  23.098  0.00  0.00    +0.000 A 
ATOM      2  C   UNL     1      -2.417  14.142  22.211  0.00  0.00    +0.000 A 
ATOM      3  C   UNL     1      -1.480  13.121  21.966  0.00  0.00    +0.000 A 
ATOM      4  C   UNL     1      -1.701  11.933  22.666  0.00  0.00    +0.000 A 
ATOM      5  C   UNL     1      -2.784  11.780  23.545  0.00  0.00    +0.000 A 
ATOM      6  C   UNL     1      -3.679  12.837  23.742  0.00  0.00    +0.000 A 
ATOM      7  C   UNL     1      -0.797  10.792  22.487  0.00  0.00    +0.000 A 
ATOM      8  O   UNL     1      -1.005   9.755  23.119  0.00  0.00    +0.000 OA
ATOM      9  C   UNL     1       0.346  10.883  21.548  0.00  0.00    +0.000 A 
ATOM     10  C   UNL     1       0.488  12.074  20.915  0.00  0.00    +0.000 A 
ATOM     11  S   UNL     1       1.816  12.324  19.753  0.00  0.00    +0.000 S 
ATOM     12  C   UNL     1       1.267  13.983  19.497  0.00  0.00    +0.000 A 
ATOM     13  C   UNL     1       1.900  14.875  18.634  0.00  0.00    +0.000 A 
ATOM     14  C   UNL     1       1.396  16.161  18.512  0.00  0.00    +0.000 A 
ATOM     15  C   UNL     1       0.277  16.526  19.254  0.00  0.00    +0.000 A 
ATOM     16  C   UNL     1      -0.347  15.611  20.122  0.00  0.00    +0.000 A 
ATOM     17  C   UNL     1       0.126  14.309  20.263  0.00  0.00    +0.000 A 
ATOM     18  N   UNL     1      -0.358  13.220  21.082  0.00  0.00    +0.000 N 
ENDROOT
BRANCH   1  22
ATOM     19  C   UNL     1      -3.617  17.419  21.157  0.00  0.00    +0.000 C 
ATOM     20  C   UNL     1      -4.910  17.217  21.946  0.00  0.00    +0.000 C 
ATOM     21  C   UNL     1      -5.229  15.733  22.243  0.00  0.00    +0.000 C 
ATOM     22  N   UNL     1      -4.315  15.198  23.277  0.00  0.00    +0.000 N 
ATOM     23  C   UNL     1      -4.331  16.018  24.507  0.00  0.00    +0.000 C 
ATOM     24  C   UNL     1      -4.024  17.491  24.160  0.00  0.00    +0.000 C 
ATOM     25  C   UNL     1      -4.172  18.370  25.395  0.00  0.00    +0.000 C 
ATOM     26  O   UNL     1      -4.910  18.006  23.150  0.00  0.00    +0.000 OA
ENDBRANCH   1  22
BRANCH   6  27
ATOM     27  N   UNL     1      -4.812  12.536  24.595  0.00  0.00    +0.000 N 
ATOM     28  O   UNL     1      -5.911  12.359  24.052  0.00  0.00    +0.000 OA
ATOM     29  O   UNL     1      -4.584  12.443  25.809  0.00  0.00    +0.000 OA
ENDBRANCH   6  27
BRANCH   9  30
ATOM     30  C   UNL     1       1.240   9.690  21.370  0.00  0.00    +0.000 C 
ATOM     31  O   UNL     1       1.335   9.016  20.357  0.00  0.00    +0.000 OA
BRANCH  30  32
ATOM     32  O   UNL     1       1.991   9.368  22.451  0.00  0.00    +0.000 OA
ATOM     33  H   UNL     1       2.378   8.460  22.444  0.00  0.00    +0.000 HD
ENDBRANCH  30  32
ENDBRANCH   9  30
TORSDOF 4
ENDMDL
MODEL 9
REMARK VINA RESULT:      -6.6      3.662      7.993
REMARK  Name = 
REMARK  6 active torsions:
REMARK  status: ('A' for Active; 'I' for Inactive)
REMARK    1  A    between atoms: C_1  and  C_2
REMARK    2  A    between atoms: N_4  and  C_5
REMARK    3  A    between atoms: C_10  and  N_11
REMARK    4  A    between atoms: C_16  and  C_17
REMARK    5  A    between atoms: C_17  and  O_19
REMARK    6  A    between atoms: C_30  and  C_31
REMARK                            x       y       z     vdW  Elec       q    Type
REMARK                         _______ _______ _______ _____ _____    ______ ____
ROOT
ATOM      1  C   UNL     1      -2.241  14.093  21.947  0.00  0.00    +0.000 A 
ATOM      2  C   UNL     1      -1.120  14.239  21.081  0.00  0.00    +0.000 A 
ATOM      3  C   UNL     1      -0.408  13.199  20.455  0.00  0.00    +0.000 A 
ATOM      4  C   UNL     1      -0.882  11.913  20.719  0.00  0.00    +0.000 A 
ATOM      5  C   UNL     1      -1.991  11.686  21.549  0.00  0.00    +0.000 A 
ATOM      6  C   UNL     1      -2.654  12.767  22.139  0.00  0.00    +0.000 A 
ATOM      7  C   UNL     1      -0.227  10.746  20.117  0.00  0.00    +0.000 A 
ATOM      8  O   UNL     1      -0.656   9.619  20.368  0.00  0.00    +0.000 OA
ATOM      9  C   UNL     1       0.929  10.925  19.207  0.00  0.00    +0.000 A 
ATOM     10  C   UNL     1       1.325  12.207  19.010  0.00  0.00    +0.000 A 
ATOM     11  S   UNL     1       2.700  12.571  17.936  0.00  0.00    +0.000 S 
ATOM     12  C   UNL     1       2.507  14.291  18.288  0.00  0.00    +0.000 A 
ATOM     13  C   UNL     1       3.328  15.280  17.749  0.00  0.00    +0.000 A 
ATOM     14  C   UNL     1       3.100  16.602  18.098  0.00  0.00    +0.000 A 
ATOM     15  C   UNL     1       2.065  16.905  18.977  0.00  0.00    +0.000 A 
ATOM     16  C   UNL     1       1.248  15.892  19.512  0.00  0.00    +0.000 A 
ATOM     17  C   UNL     1       1.442  14.555  19.177  0.00  0.00    +0.000 A 
ATOM     18  N   UNL     1       0.729  13.370  19.601  0.00  0.00    +0.000 N 
ENDROOT
BRANCH   1  22
ATOM     19  C   UNL     1      -2.570  15.068  25.677  0.00  0.00    +0.000 C 
ATOM     20  C   UNL     1      -2.700  16.300  24.782  0.00  0.00    +0.000 C 
ATOM     21  C   UNL     1      -2.013  16.141  23.406  0.00  0.00    +0.000 C 
ATOM     22  N   UNL     1      -2.783  15.221  22.539  0.00  0.00    +0.000 N 
ATOM     23  C   UNL     1      -4.193  15.641  22.402  0.00  0.00    +0.000 C 
ATOM     24  C   UNL     1      -4.832  15.802  23.798  0.00  0.00    +0.000 C 
ATOM     25  C   UNL     1      -6.241  16.366  23.676  0.00  0.00    +0.000 C 
ATOM     26  O   UNL     1      -4.078  16.692  24.639  0.00  0.00    +0.000 OA
ENDBRANCH   1  22
BRANCH   6  27
ATOM     27  N   UNL     1      -3.842  12.424  22.897  0.00  0.00    +0.000 N 
ATOM     28  O   UNL     1      -4.923  12.398  22.292  0.00  0.00    +0.000 OA
ATOM     29  O   UNL     1      -3.677  12.145  24.092  0.00  0.00    +0.000 OA
ENDBRANCH   6  27
BRANCH   9  30
ATOM     30  C   UNL     1       1.563   9.713  18.587  0.00  0.00    +0.000 C 
ATOM     31  O   UNL     1       1.870   9.591  17.413  0.00  0.00    +0.000 OA
BRANCH  30  32
ATOM     32  O   UNL     1       1.799   8.688  19.441  0.00  0.00    +0.000 OA
ATOM     33  H   UNL     1       2.012   8.948  20.369  0.00  0.00    +0.000 HD
ENDBRANCH  30  32
ENDBRANCH   9  30
TORSDOF 4
ENDMDL
