MODEL 1
REMARK VINA RESULT:      -8.4      0.000      0.000
REMARK  Name = 
REMARK  4 active torsions:
REMARK  status: ('A' for Active; 'I' for Inactive)
REMARK    1  A    between atoms: C_1  and  C_2
REMARK    2  A    between atoms: C_14  and  C_16
REMARK    3  A    between atoms: C_16  and  N_17
REMARK    4  A    between atoms: C_18  and  C_19
REMARK                            x       y       z     vdW  Elec       q    Type
REMARK                         _______ _______ _______ _____ _____    ______ ____
ROOT
ATOM      1  C   UNL     1      -4.837  13.266  22.576  0.00  0.00    +0.000 C 
ATOM      2  C   UNL     1      -3.711  12.688  21.768  0.00  0.00    +0.000 A 
ATOM      3  C   UNL     1      -3.684  12.812  20.377  0.00  0.00    +0.000 A 
ATOM      4  C   UNL     1      -2.640  12.272  19.615  0.00  0.00    +0.000 A 
ATOM      5  C   UNL     1      -1.608  11.598  20.288  0.00  0.00    +0.000 A 
ATOM      6  C   UNL     1      -1.609  11.456  21.681  0.00  0.00    +0.000 A 
ATOM      7  C   UNL     1      -2.673  12.009  22.424  0.00  0.00    +0.000 A 
ATOM      8  C   UNL     1      -0.457  10.696  22.031  0.00  0.00    +0.000 A 
ATOM      9  C   UNL     1       0.210  10.400  20.864  0.00  0.00    +0.000 A 
ATOM     10  N   UNL     1      -0.483  10.954  19.824  0.00  0.00    +0.000 N 
ATOM     11  C   UNL     1      -0.100  10.749  18.440  0.00  0.00    +0.000 C 
ATOM     12  C   UNL     1       1.321  10.189  18.361  0.00  0.00    +0.000 C 
ATOM     13  N   UNL     1       1.529   9.080  19.328  0.00  0.00    +0.000 N 
ATOM     14  C   UNL     1       2.118   7.930  18.803  0.00  0.00    +0.000 C 
ATOM     15  O   UNL     1       2.356   7.832  17.591  0.00  0.00    +0.000 OA
ATOM     16  C   UNL     1       1.432   9.531  20.735  0.00  0.00    +0.000 C 
ATOM     17  C   UNL     1       1.307   8.501  21.873  0.00  0.00    +0.000 C 
ATOM     18  C   UNL     1       1.101   9.144  23.262  0.00  0.00    +0.000 C 
ATOM     19  C   UNL     1      -0.024  10.192  23.361  0.00  0.00    +0.000 C 
ENDROOT
BRANCH  14  20
ATOM     20  C   UNL     1       2.403   6.688  19.663  0.00  0.00    +0.000 C 
BRANCH  20  21
ATOM     21  N   UNL     1       2.634   5.405  19.006  0.00  0.00    +0.000 N 
ATOM     22  C   UNL     1       3.774   4.868  18.505  0.00  0.00    +0.000 A 
ATOM     23  N   UNL     1       3.658   3.620  18.183  0.00  0.00    +0.000 NA
ATOM     24  O   UNL     1       2.343   3.252  18.545  0.00  0.00    +0.000 OA
ATOM     25  C   UNL     1       1.785   4.355  19.137  0.00  0.00    +0.000 A 
ATOM     26  O   UNL     1       0.691   4.341  19.678  0.00  0.00    +0.000 OA
BRANCH  22  27
ATOM     27  C   UNL     1       5.074   5.569  18.346  0.00  0.00    +0.000 A 
ATOM     28  C   UNL     1       6.101   5.250  19.258  0.00  0.00    +0.000 A 
ATOM     29  C   UNL     1       7.364   5.836  19.141  0.00  0.00    +0.000 A 
ATOM     30  C   UNL     1       7.618   6.744  18.116  0.00  0.00    +0.000 A 
ATOM     31  C   UNL     1       6.614   7.047  17.199  0.00  0.00    +0.000 A 
ATOM     32  C   UNL     1       5.358   6.447  17.307  0.00  0.00    +0.000 A 
ENDBRANCH  22  27
ENDBRANCH  20  21
ENDBRANCH  14  20
TORSDOF 3
ENDMDL
MODEL 2
REMARK VINA RESULT:      -8.3      4.509      9.986
REMARK  Name = 
REMARK  4 active torsions:
REMARK  status: ('A' for Active; 'I' for Inactive)
REMARK    1  A    between atoms: C_1  and  C_2
REMARK    2  A    between atoms: C_14  and  C_16
REMARK    3  A    between atoms: C_16  and  N_17
REMARK    4  A    between atoms: C_18  and  C_19
REMARK                            x       y       z     vdW  Elec       q    Type
REMARK                         _______ _______ _______ _____ _____    ______ ____
ROOT
ATOM      1  C   UNL     1       3.085   7.009  17.936  0.00  0.00    +0.000 C 
ATOM      2  C   UNL     1       2.254   7.771  18.927  0.00  0.00    +0.000 A 
ATOM      3  C   UNL     1       1.874   7.197  20.142  0.00  0.00    +0.000 A 
ATOM      4  C   UNL     1       1.094   7.898  21.071  0.00  0.00    +0.000 A 
ATOM      5  C   UNL     1       0.701   9.207  20.751  0.00  0.00    +0.000 A 
ATOM      6  C   UNL     1       1.064   9.810  19.540  0.00  0.00    +0.000 A 
ATOM      7  C   UNL     1       1.848   9.080  18.622  0.00  0.00    +0.000 A 
ATOM      8  C   UNL     1       0.474  11.105  19.516  0.00  0.00    +0.000 A 
ATOM      9  C   UNL     1      -0.221  11.263  20.694  0.00  0.00    +0.000 A 
ATOM     10  N   UNL     1      -0.070  10.123  21.434  0.00  0.00    +0.000 N 
ATOM     11  C   UNL     1      -0.756   9.921  22.696  0.00  0.00    +0.000 C 
ATOM     12  C   UNL     1      -1.312  11.248  23.214  0.00  0.00    +0.000 C 
ATOM     13  N   UNL     1      -2.005  12.009  22.143  0.00  0.00    +0.000 N 
ATOM     14  C   UNL     1      -3.268  12.496  22.475  0.00  0.00    +0.000 C 
ATOM     15  O   UNL     1      -3.792  12.220  23.564  0.00  0.00    +0.000 OA
ATOM     16  C   UNL     1      -1.082  12.439  21.067  0.00  0.00    +0.000 C 
ATOM     17  C   UNL     1      -1.640  12.960  19.729  0.00  0.00    +0.000 C 
ATOM     18  C   UNL     1      -0.544  13.254  18.682  0.00  0.00    +0.000 C 
ATOM     19  C   UNL     1       0.475  12.125  18.435  0.00  0.00    +0.000 C 
ENDROOT
BRANCH  14  20
ATOM     20  C   UNL     1      -4.125  13.303  21.485  0.00  0.00    +0.000 C 
BRANCH  20  21
ATOM     21  N   UNL     1      -5.501  13.635  21.840  0.00  0.00    +0.000 N 
ATOM     22  C   UNL     1      -6.648  12.935  21.652  0.00  0.00    +0.000 A 
ATOM     23  N   UNL     1      -7.663  13.432  22.284  0.00  0.00    +0.000 NA
ATOM     24  O   UNL     1      -7.160  14.533  23.012  0.00  0.00    +0.000 OA
ATOM     25  C   UNL     1      -5.809  14.558  22.785  0.00  0.00    +0.000 A 
ATOM     26  O   UNL     1      -5.049  15.315  23.366  0.00  0.00    +0.000 OA
BRANCH  22  27
ATOM     27  C   UNL     1      -6.795  11.695  20.848  0.00  0.00    +0.000 A 
ATOM     28  C   UNL     1      -7.589  10.661  21.385  0.00  0.00    +0.000 A 
ATOM     29  C   UNL     1      -7.808   9.485  20.664  0.00  0.00    +0.000 A 
ATOM     30  C   UNL     1      -7.241   9.326  19.403  0.00  0.00    +0.000 A 
ATOM     31  C   UNL     1      -6.473  10.353  18.857  0.00  0.00    +0.000 A 
ATOM     32  C   UNL     1      -6.269  11.535  19.572  0.00  0.00    +0.000 A 
ENDBRANCH  22  27
ENDBRANCH  20  21
ENDBRANCH  14  20
TORSDOF 3
ENDMDL
MODEL 3
REMARK VINA RESULT:      -8.3      1.267      1.625
REMARK  Name = 
REMARK  4 active torsions:
REMARK  status: ('A' for Active; 'I' for Inactive)
REMARK    1  A    between atoms: C_1  and  C_2
REMARK    2  A    between atoms: C_14  and  C_16
REMARK    3  A    between atoms: C_16  and  N_17
REMARK    4  A    between atoms: C_18  and  C_19
REMARK                            x       y       z     vdW  Elec       q    Type
REMARK                         _______ _______ _______ _____ _____    ______ ____
ROOT
ATOM      1  C   UNL     1      -4.406  13.162  20.731  0.00  0.00    +0.000 C 
ATOM      2  C   UNL     1      -3.244  12.410  20.149  0.00  0.00    +0.000 A 
ATOM      3  C   UNL     1      -3.084  12.285  18.767  0.00  0.00    +0.000 A 
ATOM      4  C   UNL     1      -2.006  11.582  18.216  0.00  0.00    +0.000 A 
ATOM      5  C   UNL     1      -1.077  11.000  19.093  0.00  0.00    +0.000 A 
ATOM      6  C   UNL     1      -1.211  11.105  20.483  0.00  0.00    +0.000 A 
ATOM      7  C   UNL     1      -2.307  11.819  21.011  0.00  0.00    +0.000 A 
ATOM      8  C   UNL     1      -0.138  10.377  21.070  0.00  0.00    +0.000 A 
ATOM      9  C   UNL     1       0.616   9.855  20.042  0.00  0.00    +0.000 A 
ATOM     10  N   UNL     1       0.051  10.243  18.859  0.00  0.00    +0.000 N 
ATOM     11  C   UNL     1       0.546   9.784  17.576  0.00  0.00    +0.000 C 
ATOM     12  C   UNL     1       1.936   9.167  17.735  0.00  0.00    +0.000 C 
ATOM     13  N   UNL     1       1.996   8.239  18.894  0.00  0.00    +0.000 N 
ATOM     14  C   UNL     1       2.568   6.993  18.634  0.00  0.00    +0.000 C 
ATOM     15  O   UNL     1       2.909   6.675  17.486  0.00  0.00    +0.000 OA
ATOM     16  C   UNL     1       1.796   8.933  20.186  0.00  0.00    +0.000 C 
ATOM     17  C   UNL     1       1.513   8.125  21.466  0.00  0.00    +0.000 C 
ATOM     18  C   UNL     1       1.217   9.009  22.696  0.00  0.00    +0.000 C 
ATOM     19  C   UNL     1       0.146  10.099  22.502  0.00  0.00    +0.000 C 
ENDROOT
BRANCH  14  20
ATOM     20  C   UNL     1       2.707   5.912  19.719  0.00  0.00    +0.000 C 
BRANCH  20  21
ATOM     21  N   UNL     1       2.558   4.508  19.347  0.00  0.00    +0.000 N 
ATOM     22  C   UNL     1       3.434   3.661  18.751  0.00  0.00    +0.000 A 
ATOM     23  N   UNL     1       3.046   2.426  18.765  0.00  0.00    +0.000 NA
ATOM     24  O   UNL     1       1.828   2.415  19.480  0.00  0.00    +0.000 OA
ATOM     25  C   UNL     1       1.619   3.702  19.903  0.00  0.00    +0.000 A 
ATOM     26  O   UNL     1       0.713   4.018  20.656  0.00  0.00    +0.000 OA
BRANCH  22  27
ATOM     27  C   UNL     1       4.742   4.033  18.153  0.00  0.00    +0.000 A 
ATOM     28  C   UNL     1       4.894   3.859  16.762  0.00  0.00    +0.000 A 
ATOM     29  C   UNL     1       6.081   4.230  16.125  0.00  0.00    +0.000 A 
ATOM     30  C   UNL     1       7.126   4.777  16.864  0.00  0.00    +0.000 A 
ATOM     31  C   UNL     1       6.974   4.971  18.236  0.00  0.00    +0.000 A 
ATOM     32  C   UNL     1       5.781   4.616  18.868  0.00  0.00    +0.000 A 
ENDBRANCH  22  27
ENDBRANCH  20  21
ENDBRANCH  14  20
TORSDOF 3
ENDMDL
MODEL 4
REMARK VINA RESULT:      -8.2      3.865      8.573
REMARK  Name = 
REMARK  4 active torsions:
REMARK  status: ('A' for Active; 'I' for Inactive)
REMARK    1  A    between atoms: C_1  and  C_2
REMARK    2  A    between atoms: C_14  and  C_16
REMARK    3  A    between atoms: C_16  and  N_17
REMARK    4  A    between atoms: C_18  and  C_19
REMARK                            x       y       z     vdW  Elec       q    Type
REMARK                         _______ _______ _______ _____ _____    ______ ____
ROOT
ATOM      1  C   UNL     1       3.412   5.728  18.244  0.00  0.00    +0.000 C 
ATOM      2  C   UNL     1       2.598   6.666  19.088  0.00  0.00    +0.000 A 
ATOM      3  C   UNL     1       1.998   6.233  20.274  0.00  0.00    +0.000 A 
ATOM      4  C   UNL     1       1.234   7.099  21.066  0.00  0.00    +0.000 A 
ATOM      5  C   UNL     1       1.083   8.428  20.638  0.00  0.00    +0.000 A 
ATOM      6  C   UNL     1       1.670   8.891  19.454  0.00  0.00    +0.000 A 
ATOM      7  C   UNL     1       2.434   7.997  18.675  0.00  0.00    +0.000 A 
ATOM      8  C   UNL     1       1.291  10.254  19.297  0.00  0.00    +0.000 A 
ATOM      9  C   UNL     1       0.498  10.587  20.372  0.00  0.00    +0.000 A 
ATOM     10  N   UNL     1       0.388   9.488  21.177  0.00  0.00    +0.000 N 
ATOM     11  C   UNL     1      -0.460   9.470  22.354  0.00  0.00    +0.000 C 
ATOM     12  C   UNL     1      -0.864  10.895  22.737  0.00  0.00    +0.000 C 
ATOM     13  N   UNL     1      -1.305  11.678  21.554  0.00  0.00    +0.000 N 
ATOM     14  C   UNL     1      -2.510  12.364  21.705  0.00  0.00    +0.000 C 
ATOM     15  O   UNL     1      -3.191  12.238  22.733  0.00  0.00    +0.000 OA
ATOM     16  C   UNL     1      -0.212  11.898  20.580  0.00  0.00    +0.000 C 
ATOM     17  C   UNL     1      -0.526  12.406  19.161  0.00  0.00    +0.000 C 
ATOM     18  C   UNL     1       0.714  12.470  18.244  0.00  0.00    +0.000 C 
ATOM     19  C   UNL     1       1.570  11.191  18.177  0.00  0.00    +0.000 C 
ENDROOT
BRANCH  14  20
ATOM     20  C   UNL     1      -3.114  13.221  20.581  0.00  0.00    +0.000 C 
BRANCH  20  21
ATOM     21  N   UNL     1      -4.449  12.903  20.082  0.00  0.00    +0.000 N 
ATOM     22  C   UNL     1      -4.841  12.026  19.124  0.00  0.00    +0.000 A 
ATOM     23  N   UNL     1      -6.122  11.844  19.087  0.00  0.00    +0.000 NA
ATOM     24  O   UNL     1      -6.650  12.616  20.145  0.00  0.00    +0.000 OA
ATOM     25  C   UNL     1      -5.575  13.170  20.789  0.00  0.00    +0.000 A 
ATOM     26  O   UNL     1      -5.673  13.800  21.830  0.00  0.00    +0.000 OA
BRANCH  22  27
ATOM     27  C   UNL     1      -3.948  11.285  18.198  0.00  0.00    +0.000 A 
ATOM     28  C   UNL     1      -4.028  11.600  16.826  0.00  0.00    +0.000 A 
ATOM     29  C   UNL     1      -3.186  10.974  15.902  0.00  0.00    +0.000 A 
ATOM     30  C   UNL     1      -2.256  10.032  16.334  0.00  0.00    +0.000 A 
ATOM     31  C   UNL     1      -2.157   9.733  17.692  0.00  0.00    +0.000 A 
ATOM     32  C   UNL     1      -2.988  10.371  18.615  0.00  0.00    +0.000 A 
ENDBRANCH  22  27
ENDBRANCH  20  21
ENDBRANCH  14  20
TORSDOF 3
ENDMDL
MODEL 5
REMARK VINA RESULT:      -8.2      1.035      1.144
REMARK  Name = 
REMARK  4 active torsions:
REMARK  status: ('A' for Active; 'I' for Inactive)
REMARK    1  A    between atoms: C_1  and  C_2
REMARK    2  A    between atoms: C_14  and  C_16
REMARK    3  A    between atoms: C_16  and  N_17
REMARK    4  A    between atoms: C_18  and  C_19
REMARK                            x       y       z     vdW  Elec       q    Type
REMARK                         _______ _______ _______ _____ _____    ______ ____
ROOT
ATOM      1  C   UNL     1      -4.751  13.197  20.631  0.00  0.00    +0.000 C 
ATOM      2  C   UNL     1      -3.573  12.451  20.075  0.00  0.00    +0.000 A 
ATOM      3  C   UNL     1      -3.427  12.252  18.700  0.00  0.00    +0.000 A 
ATOM      4  C   UNL     1      -2.334  11.553  18.173  0.00  0.00    +0.000 A 
ATOM      5  C   UNL     1      -1.375  11.052  19.067  0.00  0.00    +0.000 A 
ATOM      6  C   UNL     1      -1.493  11.234  20.451  0.00  0.00    +0.000 A 
ATOM      7  C   UNL     1      -2.604  11.941  20.954  0.00  0.00    +0.000 A 
ATOM      8  C   UNL     1      -0.388  10.575  21.062  0.00  0.00    +0.000 A 
ATOM      9  C   UNL     1       0.368  10.019  20.054  0.00  0.00    +0.000 A 
ATOM     10  N   UNL     1      -0.226  10.320  18.860  0.00  0.00    +0.000 N 
ATOM     11  C   UNL     1       0.266   9.803  17.597  0.00  0.00    +0.000 C 
ATOM     12  C   UNL     1       1.678   9.242  17.770  0.00  0.00    +0.000 C 
ATOM     13  N   UNL     1       1.785   8.385  18.978  0.00  0.00    +0.000 N 
ATOM     14  C   UNL     1       2.393   7.145  18.782  0.00  0.00    +0.000 C 
ATOM     15  O   UNL     1       2.730   6.772  17.649  0.00  0.00    +0.000 OA
ATOM     16  C   UNL     1       1.580   9.146  20.232  0.00  0.00    +0.000 C 
ATOM     17  C   UNL     1       1.341   8.404  21.560  0.00  0.00    +0.000 C 
ATOM     18  C   UNL     1       1.033   9.348  22.742  0.00  0.00    +0.000 C 
ATOM     19  C   UNL     1      -0.076  10.390  22.503  0.00  0.00    +0.000 C 
ENDROOT
BRANCH  14  20
ATOM     20  C   UNL     1       2.584   6.133  19.924  0.00  0.00    +0.000 C 
BRANCH  20  21
ATOM     21  N   UNL     1       2.901   4.746  19.600  0.00  0.00    +0.000 N 
ATOM     22  C   UNL     1       4.034   4.202  19.091  0.00  0.00    +0.000 A 
ATOM     23  N   UNL     1       4.047   2.907  19.131  0.00  0.00    +0.000 NA
ATOM     24  O   UNL     1       2.846   2.532  19.772  0.00  0.00    +0.000 OA
ATOM     25  C   UNL     1       2.221   3.699  20.130  0.00  0.00    +0.000 A 
ATOM     26  O   UNL     1       1.212   3.732  20.816  0.00  0.00    +0.000 OA
BRANCH  22  27
ATOM     27  C   UNL     1       5.201   4.950  18.558  0.00  0.00    +0.000 A 
ATOM     28  C   UNL     1       6.248   5.248  19.454  0.00  0.00    +0.000 A 
ATOM     29  C   UNL     1       7.397   5.909  19.012  0.00  0.00    +0.000 A 
ATOM     30  C   UNL     1       7.516   6.279  17.675  0.00  0.00    +0.000 A 
ATOM     31  C   UNL     1       6.494   5.968  16.780  0.00  0.00    +0.000 A 
ATOM     32  C   UNL     1       5.355   5.292  17.220  0.00  0.00    +0.000 A 
ENDBRANCH  22  27
ENDBRANCH  20  21
ENDBRANCH  14  20
TORSDOF 3
ENDMDL
MODEL 6
REMARK VINA RESULT:      -8.1      2.728      4.557
REMARK  Name = 
REMARK  4 active torsions:
REMARK  status: ('A' for Active; 'I' for Inactive)
REMARK    1  A    between atoms: C_1  and  C_2
REMARK    2  A    between atoms: C_14  and  C_16
REMARK    3  A    between atoms: C_16  and  N_17
REMARK    4  A    between atoms: C_18  and  C_19
REMARK                            x       y       z     vdW  Elec       q    Type
REMARK                         _______ _______ _______ _____ _____    ______ ____
ROOT
ATOM      1  C   UNL     1      -1.193  12.493  22.553  0.00  0.00    +0.000 C 
ATOM      2  C   UNL     1      -0.606  11.172  22.148  0.00  0.00    +0.000 A 
ATOM      3  C   UNL     1      -0.593  10.088  23.028  0.00  0.00    +0.000 A 
ATOM      4  C   UNL     1      -0.043   8.853  22.661  0.00  0.00    +0.000 A 
ATOM      5  C   UNL     1       0.499   8.727  21.372  0.00  0.00    +0.000 A 
ATOM      6  C   UNL     1       0.503   9.796  20.468  0.00  0.00    +0.000 A 
ATOM      7  C   UNL     1      -0.056  11.029  20.864  0.00  0.00    +0.000 A 
ATOM      8  C   UNL     1       1.156   9.349  19.284  0.00  0.00    +0.000 A 
ATOM      9  C   UNL     1       1.526   8.039  19.489  0.00  0.00    +0.000 A 
ATOM     10  N   UNL     1       1.118   7.671  20.740  0.00  0.00    +0.000 N 
ATOM     11  C   UNL     1       1.435   6.375  21.310  0.00  0.00    +0.000 C 
ATOM     12  C   UNL     1       1.916   5.420  20.216  0.00  0.00    +0.000 C 
ATOM     13  N   UNL     1       2.910   6.065  19.321  0.00  0.00    +0.000 N 
ATOM     14  C   UNL     1       4.069   5.328  19.083  0.00  0.00    +0.000 C 
ATOM     15  O   UNL     1       4.272   4.252  19.664  0.00  0.00    +0.000 OA
ATOM     16  C   UNL     1       2.330   7.185  18.545  0.00  0.00    +0.000 C 
ATOM     17  C   UNL     1       3.249   8.174  17.803  0.00  0.00    +0.000 C 
ATOM     18  C   UNL     1       2.486   9.342  17.143  0.00  0.00    +0.000 C 
ATOM     19  C   UNL     1       1.501  10.104  18.051  0.00  0.00    +0.000 C 
ENDROOT
BRANCH  14  20
ATOM     20  C   UNL     1       5.202   5.847  18.182  0.00  0.00    +0.000 C 
BRANCH  20  21
ATOM     21  N   UNL     1       6.471   5.125  18.147  0.00  0.00    +0.000 N 
ATOM     22  C   UNL     1       7.148   4.593  17.099  0.00  0.00    +0.000 A 
ATOM     23  N   UNL     1       8.347   4.209  17.402  0.00  0.00    +0.000 NA
ATOM     24  O   UNL     1       8.529   4.559  18.759  0.00  0.00    +0.000 OA
ATOM     25  C   UNL     1       7.385   5.208  19.145  0.00  0.00    +0.000 A 
ATOM     26  O   UNL     1       7.261   5.752  20.230  0.00  0.00    +0.000 OA
BRANCH  22  27
ATOM     27  C   UNL     1       6.646   4.462  15.707  0.00  0.00    +0.000 A 
ATOM     28  C   UNL     1       7.473   4.939  14.670  0.00  0.00    +0.000 A 
ATOM     29  C   UNL     1       7.084   4.809  13.334  0.00  0.00    +0.000 A 
ATOM     30  C   UNL     1       5.871   4.203  13.017  0.00  0.00    +0.000 A 
ATOM     31  C   UNL     1       5.060   3.710  14.037  0.00  0.00    +0.000 A 
ATOM     32  C   UNL     1       5.457   3.826  15.371  0.00  0.00    +0.000 A 
ENDBRANCH  22  27
ENDBRANCH  20  21
ENDBRANCH  14  20
TORSDOF 3
ENDMDL
MODEL 7
REMARK VINA RESULT:      -8.1      3.559      8.524
REMARK  Name = 
REMARK  4 active torsions:
REMARK  status: ('A' for Active; 'I' for Inactive)
REMARK    1  A    between atoms: C_1  and  C_2
REMARK    2  A    between atoms: C_14  and  C_16
REMARK    3  A    between atoms: C_16  and  N_17
REMARK    4  A    between atoms: C_18  and  C_19
REMARK                            x       y       z     vdW  Elec       q    Type
REMARK                         _______ _______ _______ _____ _____    ______ ____
ROOT
ATOM      1  C   UNL     1       3.128   4.094  17.806  0.00  0.00    +0.000 C 
ATOM      2  C   UNL     1       2.545   5.153  18.696  0.00  0.00    +0.000 A 
ATOM      3  C   UNL     1       1.939   4.822  19.911  0.00  0.00    +0.000 A 
ATOM      4  C   UNL     1       1.388   5.802  20.745  0.00  0.00    +0.000 A 
ATOM      5  C   UNL     1       1.460   7.142  20.330  0.00  0.00    +0.000 A 
ATOM      6  C   UNL     1       2.059   7.505  19.117  0.00  0.00    +0.000 A 
ATOM      7  C   UNL     1       2.605   6.497  18.296  0.00  0.00    +0.000 A 
ATOM      8  C   UNL     1       1.927   8.916  18.985  0.00  0.00    +0.000 A 
ATOM      9  C   UNL     1       1.265   9.375  20.102  0.00  0.00    +0.000 A 
ATOM     10  N   UNL     1       0.999   8.304  20.909  0.00  0.00    +0.000 N 
ATOM     11  C   UNL     1       0.225   8.426  22.129  0.00  0.00    +0.000 C 
ATOM     12  C   UNL     1       0.109   9.895  22.537  0.00  0.00    +0.000 C 
ATOM     13  N   UNL     1      -0.244  10.760  21.382  0.00  0.00    +0.000 N 
ATOM     14  C   UNL     1      -1.293  11.652  21.600  0.00  0.00    +0.000 C 
ATOM     15  O   UNL     1      -1.931  11.640  22.663  0.00  0.00    +0.000 OA
ATOM     16  C   UNL     1       0.819  10.790  20.352  0.00  0.00    +0.000 C 
ATOM     17  C   UNL     1       0.529  11.365  18.953  0.00  0.00    +0.000 C 
ATOM     18  C   UNL     1       1.709  11.213  17.970  0.00  0.00    +0.000 C 
ATOM     19  C   UNL     1       2.314   9.801  17.854  0.00  0.00    +0.000 C 
ENDROOT
BRANCH  14  20
ATOM     20  C   UNL     1      -1.789  12.619  20.512  0.00  0.00    +0.000 C 
BRANCH  20  21
ATOM     21  N   UNL     1      -3.222  12.726  20.254  0.00  0.00    +0.000 N 
ATOM     22  C   UNL     1      -3.991  12.122  19.314  0.00  0.00    +0.000 A 
ATOM     23  N   UNL     1      -5.262  12.280  19.509  0.00  0.00    +0.000 NA
ATOM     24  O   UNL     1      -5.377  13.006  20.715  0.00  0.00    +0.000 OA
ATOM     25  C   UNL     1      -4.101  13.172  21.187  0.00  0.00    +0.000 A 
ATOM     26  O   UNL     1      -3.850  13.654  22.280  0.00  0.00    +0.000 OA
BRANCH  22  27
ATOM     27  C   UNL     1      -3.500  11.313  18.170  0.00  0.00    +0.000 A 
ATOM     28  C   UNL     1      -4.059  11.574  16.902  0.00  0.00    +0.000 A 
ATOM     29  C   UNL     1      -3.613  10.882  15.772  0.00  0.00    +0.000 A 
ATOM     30  C   UNL     1      -2.607   9.928  15.892  0.00  0.00    +0.000 A 
ATOM     31  C   UNL     1      -2.035   9.681  17.139  0.00  0.00    +0.000 A 
ATOM     32  C   UNL     1      -2.470  10.385  18.264  0.00  0.00    +0.000 A 
ENDBRANCH  22  27
ENDBRANCH  20  21
ENDBRANCH  14  20
TORSDOF 3
ENDMDL
MODEL 8
REMARK VINA RESULT:      -8.0      4.253      9.971
REMARK  Name = 
REMARK  4 active torsions:
REMARK  status: ('A' for Active; 'I' for Inactive)
REMARK    1  A    between atoms: C_1  and  C_2
REMARK    2  A    between atoms: C_14  and  C_16
REMARK    3  A    between atoms: C_16  and  N_17
REMARK    4  A    between atoms: C_18  and  C_19
REMARK                            x       y       z     vdW  Elec       q    Type
REMARK                         _______ _______ _______ _____ _____    ______ ____
ROOT
ATOM      1  C   UNL     1       3.280   6.007  19.218  0.00  0.00    +0.000 C 
ATOM      2  C   UNL     1       2.507   7.291  19.136  0.00  0.00    +0.000 A 
ATOM      3  C   UNL     1       2.584   8.110  18.006  0.00  0.00    +0.000 A 
ATOM      4  C   UNL     1       1.870   9.311  17.922  0.00  0.00    +0.000 A 
ATOM      5  C   UNL     1       1.062   9.679  19.010  0.00  0.00    +0.000 A 
ATOM      6  C   UNL     1       0.965   8.881  20.157  0.00  0.00    +0.000 A 
ATOM      7  C   UNL     1       1.696   7.677  20.215  0.00  0.00    +0.000 A 
ATOM      8  C   UNL     1       0.108   9.556  21.072  0.00  0.00    +0.000 A 
ATOM      9  C   UNL     1      -0.294  10.728  20.471  0.00  0.00    +0.000 A 
ATOM     10  N   UNL     1       0.275  10.788  19.230  0.00  0.00    +0.000 N 
ATOM     11  C   UNL     1       0.131  11.944  18.366  0.00  0.00    +0.000 C 
ATOM     12  C   UNL     1      -1.001  12.842  18.868  0.00  0.00    +0.000 C 
ATOM     13  N   UNL     1      -0.922  13.057  20.336  0.00  0.00    +0.000 N 
ATOM     14  C   UNL     1      -1.029  14.383  20.753  0.00  0.00    +0.000 C 
ATOM     15  O   UNL     1      -1.092  15.308  19.931  0.00  0.00    +0.000 OA
ATOM     16  C   UNL     1      -1.130  11.808  21.103  0.00  0.00    +0.000 C 
ATOM     17  C   UNL     1      -0.783  11.751  22.602  0.00  0.00    +0.000 C 
ATOM     18  C   UNL     1      -0.953  10.345  23.218  0.00  0.00    +0.000 C 
ATOM     19  C   UNL     1      -0.265   9.191  22.464  0.00  0.00    +0.000 C 
ENDROOT
BRANCH  14  20
ATOM     20  C   UNL     1      -0.966  14.785  22.237  0.00  0.00    +0.000 C 
BRANCH  20  21
ATOM     21  N   UNL     1      -1.778  15.904  22.706  0.00  0.00    +0.000 N 
ATOM     22  C   UNL     1      -2.949  15.911  23.389  0.00  0.00    +0.000 A 
ATOM     23  N   UNL     1      -3.282  17.082  23.829  0.00  0.00    +0.000 NA
ATOM     24  O   UNL     1      -2.221  17.943  23.467  0.00  0.00    +0.000 OA
ATOM     25  C   UNL     1      -1.275  17.154  22.866  0.00  0.00    +0.000 A 
ATOM     26  O   UNL     1      -0.173  17.564  22.541  0.00  0.00    +0.000 OA
BRANCH  22  27
ATOM     27  C   UNL     1      -3.803  14.729  23.674  0.00  0.00    +0.000 A 
ATOM     28  C   UNL     1      -4.953  14.550  22.879  0.00  0.00    +0.000 A 
ATOM     29  C   UNL     1      -5.778  13.437  23.062  0.00  0.00    +0.000 A 
ATOM     30  C   UNL     1      -5.466  12.492  24.035  0.00  0.00    +0.000 A 
ATOM     31  C   UNL     1      -4.318  12.652  24.809  0.00  0.00    +0.000 A 
ATOM     32  C   UNL     1      -3.486  13.756  24.614  0.00  0.00    +0.000 A 
ENDBRANCH  22  27
ENDBRANCH  20  21
ENDBRANCH  14  20
TORSDOF 3
ENDMDL
MODEL 9
REMARK VINA RESULT:      -8.0      4.280      9.204
REMARK  Name = 
REMARK  4 active torsions:
REMARK  status: ('A' for Active; 'I' for Inactive)
REMARK    1  A    between atoms: C_1  and  C_2
REMARK    2  A    between atoms: C_14  and  C_16
REMARK    3  A    between atoms: C_16  and  N_17
REMARK    4  A    between atoms: C_18  and  C_19
REMARK                            x       y       z     vdW  Elec       q    Type
REMARK                         _______ _______ _______ _____ _____    ______ ____
ROOT
ATOM      1  C   UNL     1       3.121   7.610  17.636  0.00  0.00    +0.000 C 
ATOM      2  C   UNL     1       2.270   8.272  18.681  0.00  0.00    +0.000 A 
ATOM      3  C   UNL     1       1.969   7.626  19.882  0.00  0.00    +0.000 A 
ATOM      4  C   UNL     1       1.173   8.234  20.861  0.00  0.00    +0.000 A 
ATOM      5  C   UNL     1       0.680   9.523  20.606  0.00  0.00    +0.000 A 
ATOM      6  C   UNL     1       0.962  10.196  19.411  0.00  0.00    +0.000 A 
ATOM      7  C   UNL     1       1.766   9.560  18.442  0.00  0.00    +0.000 A 
ATOM      8  C   UNL     1       0.284  11.447  19.457  0.00  0.00    +0.000 A 
ATOM      9  C   UNL     1      -0.383  11.509  20.660  0.00  0.00    +0.000 A 
ATOM     10  N   UNL     1      -0.131  10.355  21.347  0.00  0.00    +0.000 N 
ATOM     11  C   UNL     1      -0.761  10.056  22.619  0.00  0.00    +0.000 C 
ATOM     12  C   UNL     1      -1.391  11.320  23.207  0.00  0.00    +0.000 C 
ATOM     13  N   UNL     1      -2.168  12.072  22.188  0.00  0.00    +0.000 N 
ATOM     14  C   UNL     1      -3.451  12.455  22.577  0.00  0.00    +0.000 C 
ATOM     15  O   UNL     1      -3.920  12.101  23.668  0.00  0.00    +0.000 OA
ATOM     16  C   UNL     1      -1.312  12.607  21.105  0.00  0.00    +0.000 C 
ATOM     17  C   UNL     1      -1.945  13.139  19.807  0.00  0.00    +0.000 C 
ATOM     18  C   UNL     1      -0.906  13.551  18.741  0.00  0.00    +0.000 C 
ATOM     19  C   UNL     1       0.180  12.506  18.419  0.00  0.00    +0.000 C 
ENDROOT
BRANCH  14  20
ATOM     20  C   UNL     1      -4.392  13.238  21.645  0.00  0.00    +0.000 C 
BRANCH  20  21
ATOM     21  N   UNL     1      -5.732  12.720  21.388  0.00  0.00    +0.000 N 
ATOM     22  C   UNL     1      -6.203  11.984  20.351  0.00  0.00    +0.000 A 
ATOM     23  N   UNL     1      -7.394  11.516  20.550  0.00  0.00    +0.000 NA
ATOM     24  O   UNL     1      -7.748  11.916  21.858  0.00  0.00    +0.000 OA
ATOM     25  C   UNL     1      -6.657  12.569  22.369  0.00  0.00    +0.000 A 
ATOM     26  O   UNL     1      -6.583  12.939  23.530  0.00  0.00    +0.000 OA
BRANCH  22  27
ATOM     27  C   UNL     1      -5.473  11.673  19.095  0.00  0.00    +0.000 A 
ATOM     28  C   UNL     1      -5.842  12.384  17.935  0.00  0.00    +0.000 A 
ATOM     29  C   UNL     1      -5.168  12.175  16.728  0.00  0.00    +0.000 A 
ATOM     30  C   UNL     1      -4.120  11.260  16.666  0.00  0.00    +0.000 A 
ATOM     31  C   UNL     1      -3.736  10.571  17.815  0.00  0.00    +0.000 A 
ATOM     32  C   UNL     1      -4.400  10.793  19.023  0.00  0.00    +0.000 A 
ENDBRANCH  22  27
ENDBRANCH  20  21
ENDBRANCH  14  20
TORSDOF 3
ENDMDL
