MODEL 1
REMARK VINA RESULT:      -7.9      0.000      0.000
REMARK  Name = 
REMARK  4 active torsions:
REMARK  status: ('A' for Active; 'I' for Inactive)
REMARK    1  A    between atoms: C_4  and  C_5
REMARK    2  A    between atoms: C_5  and  C_6
REMARK    3  A    between atoms: C_6  and  C_7
REMARK    4  A    between atoms: C_12  and  C_13
REMARK                            x       y       z     vdW  Elec       q    Type
REMARK                         _______ _______ _______ _____ _____    ______ ____
ROOT
ATOM      1  C   UNL     1       3.744   5.254  17.654  0.00  0.00    +0.000 A 
ATOM      2  C   UNL     1       3.458   6.413  18.387  0.00  0.00    +0.000 A 
ATOM      3  C   UNL     1       2.590   6.357  19.472  0.00  0.00    +0.000 A 
ATOM      4  F   UNL     1       2.334   7.466  20.177  0.00  0.00    +0.000 F 
ATOM      5  C   UNL     1       1.985   5.162  19.851  0.00  0.00    +0.000 A 
ATOM      6  C   UNL     1       2.244   3.992  19.127  0.00  0.00    +0.000 A 
ATOM      7  C   UNL     1       3.123   4.051  18.027  0.00  0.00    +0.000 A 
ENDROOT
BRANCH   6   8
ATOM      8  C   UNL     1       1.600   2.687  19.522  0.00  0.00    +0.000 C 
ATOM      9  F   UNL     1       2.182   1.597  18.948  0.00  0.00    +0.000 F 
ATOM     10  F   UNL     1       1.652   2.470  20.867  0.00  0.00    +0.000 F 
ATOM     11  F   UNL     1       0.283   2.628  19.184  0.00  0.00    +0.000 F 
ENDBRANCH   6   8
BRANCH   1  12
ATOM     12  C   UNL     1       4.712   5.290  16.490  0.00  0.00    +0.000 C 
BRANCH  12  13
ATOM     13  C   UNL     1       5.820   4.237  16.606  0.00  0.00    +0.000 C 
BRANCH  13  17
ATOM     14  N   UNL     1       8.196   5.577  20.149  0.00  0.00    +0.000 N 
ATOM     15  C   UNL     1       7.785   5.474  18.875  0.00  0.00    +0.000 C 
ATOM     16  N   UNL     1       7.729   4.403  18.164  0.00  0.00    +0.000 NA
ATOM     17  C   UNL     1       7.204   4.853  16.864  0.00  0.00    +0.000 C 
ATOM     18  C   UNL     1       7.146   6.370  16.972  0.00  0.00    +0.000 C 
ATOM     19  O   UNL     1       7.379   6.650  18.344  0.00  0.00    +0.000 OA
ATOM     20  H   UNL     1       8.199   4.702  20.654  0.00  0.00    +0.000 HD
ATOM     21  H   UNL     1       7.825   6.370  20.654  0.00  0.00    +0.000 HD
ENDBRANCH  13  17
ENDBRANCH  12  13
ENDBRANCH   1  12
TORSDOF 4
ENDMDL
MODEL 2
REMARK VINA RESULT:      -7.7      0.594      1.153
REMARK  Name = 
REMARK  4 active torsions:
REMARK  status: ('A' for Active; 'I' for Inactive)
REMARK    1  A    between atoms: C_4  and  C_5
REMARK    2  A    between atoms: C_5  and  C_6
REMARK    3  A    between atoms: C_6  and  C_7
REMARK    4  A    between atoms: C_12  and  C_13
REMARK                            x       y       z     vdW  Elec       q    Type
REMARK                         _______ _______ _______ _____ _____    ______ ____
ROOT
ATOM      1  C   UNL     1       3.719   4.925  17.903  0.00  0.00    +0.000 A 
ATOM      2  C   UNL     1       3.506   6.166  18.517  0.00  0.00    +0.000 A 
ATOM      3  C   UNL     1       2.581   6.285  19.549  0.00  0.00    +0.000 A 
ATOM      4  F   UNL     1       2.394   7.472  20.140  0.00  0.00    +0.000 F 
ATOM      5  C   UNL     1       1.848   5.188  19.991  0.00  0.00    +0.000 A 
ATOM      6  C   UNL     1       2.034   3.939  19.385  0.00  0.00    +0.000 A 
ATOM      7  C   UNL     1       2.970   3.819  18.339  0.00  0.00    +0.000 A 
ENDROOT
BRANCH   6   8
ATOM      8  C   UNL     1       1.250   2.737  19.852  0.00  0.00    +0.000 C 
ATOM      9  F   UNL     1       1.009   2.731  21.193  0.00  0.00    +0.000 F 
ATOM     10  F   UNL     1       0.028   2.651  19.254  0.00  0.00    +0.000 F 
ATOM     11  F   UNL     1       1.882   1.562  19.581  0.00  0.00    +0.000 F 
ENDBRANCH   6   8
BRANCH   1  12
ATOM     12  C   UNL     1       4.746   4.768  16.801  0.00  0.00    +0.000 C 
BRANCH  12  13
ATOM     13  C   UNL     1       5.499   6.069  16.500  0.00  0.00    +0.000 C 
BRANCH  13  17
ATOM     14  N   UNL     1       8.154   5.350  20.026  0.00  0.00    +0.000 N 
ATOM     15  C   UNL     1       7.762   5.753  18.807  0.00  0.00    +0.000 C 
ATOM     16  N   UNL     1       7.265   5.022  17.872  0.00  0.00    +0.000 NA
ATOM     17  C   UNL     1       7.008   5.962  16.768  0.00  0.00    +0.000 C 
ATOM     18  C   UNL     1       7.604   7.283  17.235  0.00  0.00    +0.000 C 
ATOM     19  O   UNL     1       7.908   7.083  18.608  0.00  0.00    +0.000 OA
ATOM     20  H   UNL     1       7.772   4.457  20.308  0.00  0.00    +0.000 HD
ATOM     21  H   UNL     1       8.148   6.070  20.736  0.00  0.00    +0.000 HD
ENDBRANCH  13  17
ENDBRANCH  12  13
ENDBRANCH   1  12
TORSDOF 4
ENDMDL
MODEL 3
REMARK VINA RESULT:      -7.7      1.314      2.727
REMARK  Name = 
REMARK  4 active torsions:
REMARK  status: ('A' for Active; 'I' for Inactive)
REMARK    1  A    between atoms: C_4  and  C_5
REMARK    2  A    between atoms: C_5  and  C_6
REMARK    3  A    between atoms: C_6  and  C_7
REMARK    4  A    between atoms: C_12  and  C_13
REMARK                            x       y       z     vdW  Elec       q    Type
REMARK                         _______ _______ _______ _____ _____    ______ ____
ROOT
ATOM      1  C   UNL     1       3.971   4.417  17.519  0.00  0.00    +0.000 A 
ATOM      2  C   UNL     1       4.149   3.031  17.420  0.00  0.00    +0.000 A 
ATOM      3  C   UNL     1       3.568   2.183  18.358  0.00  0.00    +0.000 A 
ATOM      4  F   UNL     1       3.731   0.859  18.248  0.00  0.00    +0.000 F 
ATOM      5  C   UNL     1       2.807   2.685  19.410  0.00  0.00    +0.000 A 
ATOM      6  C   UNL     1       2.624   4.067  19.538  0.00  0.00    +0.000 A 
ATOM      7  C   UNL     1       3.214   4.925  18.588  0.00  0.00    +0.000 A 
ENDROOT
BRANCH   6   8
ATOM      8  C   UNL     1       1.801   4.630  20.670  0.00  0.00    +0.000 C 
ATOM      9  F   UNL     1       0.476   4.327  20.582  0.00  0.00    +0.000 F 
ATOM     10  F   UNL     1       2.208   4.169  21.886  0.00  0.00    +0.000 F 
ATOM     11  F   UNL     1       1.869   5.988  20.742  0.00  0.00    +0.000 F 
ENDBRANCH   6   8
BRANCH   1  12
ATOM     12  C   UNL     1       4.568   5.353  16.489  0.00  0.00    +0.000 C 
BRANCH  12  13
ATOM     13  C   UNL     1       5.379   6.491  17.118  0.00  0.00    +0.000 C 
BRANCH  13  17
ATOM     14  N   UNL     1       8.458   5.389  20.168  0.00  0.00    +0.000 N 
ATOM     15  C   UNL     1       7.927   5.864  19.030  0.00  0.00    +0.000 C 
ATOM     16  N   UNL     1       7.208   5.217  18.182  0.00  0.00    +0.000 NA
ATOM     17  C   UNL     1       6.889   6.206  17.140  0.00  0.00    +0.000 C 
ATOM     18  C   UNL     1       7.700   7.439  17.514  0.00  0.00    +0.000 C 
ATOM     19  O   UNL     1       8.193   7.173  18.819  0.00  0.00    +0.000 OA
ATOM     20  H   UNL     1       8.025   4.538  20.502  0.00  0.00    +0.000 HD
ATOM     21  H   UNL     1       8.649   6.087  20.874  0.00  0.00    +0.000 HD
ENDBRANCH  13  17
ENDBRANCH  12  13
ENDBRANCH   1  12
TORSDOF 4
ENDMDL
MODEL 4
REMARK VINA RESULT:      -7.6      3.814      5.439
REMARK  Name = 
REMARK  4 active torsions:
REMARK  status: ('A' for Active; 'I' for Inactive)
REMARK    1  A    between atoms: C_4  and  C_5
REMARK    2  A    between atoms: C_5  and  C_6
REMARK    3  A    between atoms: C_6  and  C_7
REMARK    4  A    between atoms: C_12  and  C_13
REMARK                            x       y       z     vdW  Elec       q    Type
REMARK                         _______ _______ _______ _____ _____    ______ ____
ROOT
ATOM      1  C   UNL     1       3.915   5.748  18.583  0.00  0.00    +0.000 A 
ATOM      2  C   UNL     1       3.785   6.249  17.282  0.00  0.00    +0.000 A 
ATOM      3  C   UNL     1       4.918   6.584  16.546  0.00  0.00    +0.000 A 
ATOM      4  F   UNL     1       4.785   7.049  15.297  0.00  0.00    +0.000 F 
ATOM      5  C   UNL     1       6.194   6.435  17.079  0.00  0.00    +0.000 A 
ATOM      6  C   UNL     1       6.350   5.947  18.382  0.00  0.00    +0.000 A 
ATOM      7  C   UNL     1       5.203   5.610  19.127  0.00  0.00    +0.000 A 
ENDROOT
BRANCH   6   8
ATOM      8  C   UNL     1       7.726   5.776  18.977  0.00  0.00    +0.000 C 
ATOM      9  F   UNL     1       8.529   6.865  18.813  0.00  0.00    +0.000 F 
ATOM     10  F   UNL     1       7.685   5.544  20.319  0.00  0.00    +0.000 F 
ATOM     11  F   UNL     1       8.404   4.728  18.437  0.00  0.00    +0.000 F 
ENDBRANCH   6   8
BRANCH   1  12
ATOM     12  C   UNL     1       2.696   5.347  19.387  0.00  0.00    +0.000 C 
BRANCH  12  13
ATOM     13  C   UNL     1       1.739   4.439  18.605  0.00  0.00    +0.000 C 
BRANCH  13  17
ATOM     14  N   UNL     1       5.026   1.762  20.029  0.00  0.00    +0.000 N 
ATOM     15  C   UNL     1       3.871   2.145  19.460  0.00  0.00    +0.000 C 
ATOM     16  N   UNL     1       2.908   2.788  20.021  0.00  0.00    +0.000 NA
ATOM     17  C   UNL     1       1.907   2.953  18.955  0.00  0.00    +0.000 C 
ATOM     18  C   UNL     1       2.449   2.145  17.784  0.00  0.00    +0.000 C 
ATOM     19  O   UNL     1       3.779   1.810  18.153  0.00  0.00    +0.000 OA
ATOM     20  H   UNL     1       5.252   2.260  20.879  0.00  0.00    +0.000 HD
ATOM     21  H   UNL     1       5.794   1.627  19.385  0.00  0.00    +0.000 HD
ENDBRANCH  13  17
ENDBRANCH  12  13
ENDBRANCH   1  12
TORSDOF 4
ENDMDL
MODEL 5
REMARK VINA RESULT:      -7.6      4.178      6.173
REMARK  Name = 
REMARK  4 active torsions:
REMARK  status: ('A' for Active; 'I' for Inactive)
REMARK    1  A    between atoms: C_4  and  C_5
REMARK    2  A    between atoms: C_5  and  C_6
REMARK    3  A    between atoms: C_6  and  C_7
REMARK    4  A    between atoms: C_12  and  C_13
REMARK                            x       y       z     vdW  Elec       q    Type
REMARK                         _______ _______ _______ _____ _____    ______ ____
ROOT
ATOM      1  C   UNL     1       4.674   4.136  16.858  0.00  0.00    +0.000 A 
ATOM      2  C   UNL     1       5.204   4.090  15.562  0.00  0.00    +0.000 A 
ATOM      3  C   UNL     1       6.501   4.531  15.322  0.00  0.00    +0.000 A 
ATOM      4  F   UNL     1       7.005   4.470  14.083  0.00  0.00    +0.000 F 
ATOM      5  C   UNL     1       7.296   5.028  16.351  0.00  0.00    +0.000 A 
ATOM      6  C   UNL     1       6.785   5.095  17.653  0.00  0.00    +0.000 A 
ATOM      7  C   UNL     1       5.471   4.650  17.894  0.00  0.00    +0.000 A 
ENDROOT
BRANCH   6   8
ATOM      8  C   UNL     1       7.632   5.628  18.782  0.00  0.00    +0.000 C 
ATOM      9  F   UNL     1       8.718   4.854  19.060  0.00  0.00    +0.000 F 
ATOM     10  F   UNL     1       8.120   6.873  18.520  0.00  0.00    +0.000 F 
ATOM     11  F   UNL     1       6.941   5.735  19.950  0.00  0.00    +0.000 F 
ENDBRANCH   6   8
BRANCH   1  12
ATOM     12  C   UNL     1       3.275   3.630  17.145  0.00  0.00    +0.000 C 
BRANCH  12  13
ATOM     13  C   UNL     1       2.452   4.604  17.995  0.00  0.00    +0.000 C 
BRANCH  13  17
ATOM     14  N   UNL     1       1.782   2.781  22.023  0.00  0.00    +0.000 N 
ATOM     15  C   UNL     1       1.614   3.046  20.717  0.00  0.00    +0.000 C 
ATOM     16  N   UNL     1       1.385   4.194  20.184  0.00  0.00    +0.000 NA
ATOM     17  C   UNL     1       1.297   3.918  18.741  0.00  0.00    +0.000 C 
ATOM     18  C   UNL     1       1.364   2.401  18.631  0.00  0.00    +0.000 C 
ATOM     19  O   UNL     1       1.732   1.954  19.928  0.00  0.00    +0.000 OA
ATOM     20  H   UNL     1       2.013   3.590  22.582  0.00  0.00    +0.000 HD
ATOM     21  H   UNL     1       2.317   1.946  22.223  0.00  0.00    +0.000 HD
ENDBRANCH  13  17
ENDBRANCH  12  13
ENDBRANCH   1  12
TORSDOF 4
ENDMDL
MODEL 6
REMARK VINA RESULT:      -7.5      1.790      2.473
REMARK  Name = 
REMARK  4 active torsions:
REMARK  status: ('A' for Active; 'I' for Inactive)
REMARK    1  A    between atoms: C_4  and  C_5
REMARK    2  A    between atoms: C_5  and  C_6
REMARK    3  A    between atoms: C_6  and  C_7
REMARK    4  A    between atoms: C_12  and  C_13
REMARK                            x       y       z     vdW  Elec       q    Type
REMARK                         _______ _______ _______ _____ _____    ______ ____
ROOT
ATOM      1  C   UNL     1       3.101   5.777  18.361  0.00  0.00    +0.000 A 
ATOM      2  C   UNL     1       2.713   6.798  19.238  0.00  0.00    +0.000 A 
ATOM      3  C   UNL     1       1.878   6.515  20.313  0.00  0.00    +0.000 A 
ATOM      4  F   UNL     1       1.524   7.494  21.155  0.00  0.00    +0.000 F 
ATOM      5  C   UNL     1       1.407   5.225  20.542  0.00  0.00    +0.000 A 
ATOM      6  C   UNL     1       1.771   4.189  19.673  0.00  0.00    +0.000 A 
ATOM      7  C   UNL     1       2.616   4.477  18.583  0.00  0.00    +0.000 A 
ENDROOT
BRANCH   6   8
ATOM      8  C   UNL     1       1.273   2.784  19.904  0.00  0.00    +0.000 C 
ATOM      9  F   UNL     1       0.228   2.438  19.102  0.00  0.00    +0.000 F 
ATOM     10  F   UNL     1       2.239   1.849  19.681  0.00  0.00    +0.000 F 
ATOM     11  F   UNL     1       0.845   2.583  21.181  0.00  0.00    +0.000 F 
ENDBRANCH   6   8
BRANCH   1  12
ATOM     12  C   UNL     1       4.036   6.059  17.203  0.00  0.00    +0.000 C 
BRANCH  12  13
ATOM     13  C   UNL     1       5.504   6.157  17.635  0.00  0.00    +0.000 C 
BRANCH  13  17
ATOM     14  N   UNL     1       7.665   5.361  13.802  0.00  0.00    +0.000 N 
ATOM     15  C   UNL     1       7.051   5.127  14.973  0.00  0.00    +0.000 C 
ATOM     16  N   UNL     1       7.376   5.597  16.125  0.00  0.00    +0.000 NA
ATOM     17  C   UNL     1       6.375   5.036  17.047  0.00  0.00    +0.000 C 
ATOM     18  C   UNL     1       5.566   4.065  16.198  0.00  0.00    +0.000 C 
ATOM     19  O   UNL     1       5.969   4.323  14.860  0.00  0.00    +0.000 OA
ATOM     20  H   UNL     1       8.256   6.181  13.803  0.00  0.00    +0.000 HD
ATOM     21  H   UNL     1       7.083   5.244  12.984  0.00  0.00    +0.000 HD
ENDBRANCH  13  17
ENDBRANCH  12  13
ENDBRANCH   1  12
TORSDOF 4
ENDMDL
MODEL 7
REMARK VINA RESULT:      -7.5      1.383      1.630
REMARK  Name = 
REMARK  4 active torsions:
REMARK  status: ('A' for Active; 'I' for Inactive)
REMARK    1  A    between atoms: C_4  and  C_5
REMARK    2  A    between atoms: C_5  and  C_6
REMARK    3  A    between atoms: C_6  and  C_7
REMARK    4  A    between atoms: C_12  and  C_13
REMARK                            x       y       z     vdW  Elec       q    Type
REMARK                         _______ _______ _______ _____ _____    ______ ____
ROOT
ATOM      1  C   UNL     1       2.951   5.795  18.483  0.00  0.00    +0.000 A 
ATOM      2  C   UNL     1       2.588   6.824  19.362  0.00  0.00    +0.000 A 
ATOM      3  C   UNL     1       1.799   6.548  20.474  0.00  0.00    +0.000 A 
ATOM      4  F   UNL     1       1.469   7.534  21.317  0.00  0.00    +0.000 F 
ATOM      5  C   UNL     1       1.351   5.257  20.737  0.00  0.00    +0.000 A 
ATOM      6  C   UNL     1       1.690   4.213  19.868  0.00  0.00    +0.000 A 
ATOM      7  C   UNL     1       2.488   4.494  18.741  0.00  0.00    +0.000 A 
ENDROOT
BRANCH   6   8
ATOM      8  C   UNL     1       1.216   2.806  20.137  0.00  0.00    +0.000 C 
ATOM      9  F   UNL     1       2.159   1.856  19.881  0.00  0.00    +0.000 F 
ATOM     10  F   UNL     1       0.847   2.623  21.436  0.00  0.00    +0.000 F 
ATOM     11  F   UNL     1       0.132   2.466  19.388  0.00  0.00    +0.000 F 
ENDBRANCH   6   8
BRANCH   1  12
ATOM     12  C   UNL     1       3.837   6.071  17.286  0.00  0.00    +0.000 C 
BRANCH  12  13
ATOM     13  C   UNL     1       4.625   4.838  16.832  0.00  0.00    +0.000 C 
BRANCH  13  17
ATOM     14  N   UNL     1       7.825   7.922  17.328  0.00  0.00    +0.000 N 
ATOM     15  C   UNL     1       7.250   6.721  17.157  0.00  0.00    +0.000 C 
ATOM     16  N   UNL     1       6.400   6.151  17.937  0.00  0.00    +0.000 NA
ATOM     17  C   UNL     1       6.096   4.871  17.277  0.00  0.00    +0.000 C 
ATOM     18  C   UNL     1       7.054   4.805  16.096  0.00  0.00    +0.000 C 
ATOM     19  O   UNL     1       7.627   6.102  16.015  0.00  0.00    +0.000 OA
ATOM     20  H   UNL     1       7.339   8.523  17.979  0.00  0.00    +0.000 HD
ATOM     21  H   UNL     1       8.143   8.367  16.478  0.00  0.00    +0.000 HD
ENDBRANCH  13  17
ENDBRANCH  12  13
ENDBRANCH   1  12
TORSDOF 4
ENDMDL
MODEL 8
REMARK VINA RESULT:      -7.5      1.247      2.705
REMARK  Name = 
REMARK  4 active torsions:
REMARK  status: ('A' for Active; 'I' for Inactive)
REMARK    1  A    between atoms: C_4  and  C_5
REMARK    2  A    between atoms: C_5  and  C_6
REMARK    3  A    between atoms: C_6  and  C_7
REMARK    4  A    between atoms: C_12  and  C_13
REMARK                            x       y       z     vdW  Elec       q    Type
REMARK                         _______ _______ _______ _____ _____    ______ ____
ROOT
ATOM      1  C   UNL     1       4.061   4.359  17.805  0.00  0.00    +0.000 A 
ATOM      2  C   UNL     1       4.234   2.984  17.605  0.00  0.00    +0.000 A 
ATOM      3  C   UNL     1       3.598   2.071  18.441  0.00  0.00    +0.000 A 
ATOM      4  F   UNL     1       3.756   0.758  18.234  0.00  0.00    +0.000 F 
ATOM      5  C   UNL     1       2.787   2.496  19.489  0.00  0.00    +0.000 A 
ATOM      6  C   UNL     1       2.609   3.866  19.717  0.00  0.00    +0.000 A 
ATOM      7  C   UNL     1       3.254   4.790  18.871  0.00  0.00    +0.000 A 
ENDROOT
BRANCH   6   8
ATOM      8  C   UNL     1       1.732   4.348  20.846  0.00  0.00    +0.000 C 
ATOM      9  F   UNL     1       1.565   5.700  20.868  0.00  0.00    +0.000 F 
ATOM     10  F   UNL     1       0.477   3.820  20.789  0.00  0.00    +0.000 F 
ATOM     11  F   UNL     1       2.223   4.013  22.071  0.00  0.00    +0.000 F 
ENDBRANCH   6   8
BRANCH   1  12
ATOM     12  C   UNL     1       4.719   5.367  16.885  0.00  0.00    +0.000 C 
BRANCH  12  13
ATOM     13  C   UNL     1       5.861   4.763  16.060  0.00  0.00    +0.000 C 
BRANCH  13  17
ATOM     14  N   UNL     1       8.002   5.345  19.942  0.00  0.00    +0.000 N 
ATOM     15  C   UNL     1       7.692   5.481  18.642  0.00  0.00    +0.000 C 
ATOM     16  N   UNL     1       7.641   4.550  17.756  0.00  0.00    +0.000 NA
ATOM     17  C   UNL     1       7.247   5.241  16.518  0.00  0.00    +0.000 C 
ATOM     18  C   UNL     1       7.254   6.719  16.879  0.00  0.00    +0.000 C 
ATOM     19  O   UNL     1       7.387   6.752  18.293  0.00  0.00    +0.000 OA
ATOM     20  H   UNL     1       7.922   4.399  20.288  0.00  0.00    +0.000 HD
ATOM     21  H   UNL     1       7.630   6.064  20.547  0.00  0.00    +0.000 HD
ENDBRANCH  13  17
ENDBRANCH  12  13
ENDBRANCH   1  12
TORSDOF 4
ENDMDL
MODEL 9
REMARK VINA RESULT:      -7.5      3.869      5.565
REMARK  Name = 
REMARK  4 active torsions:
REMARK  status: ('A' for Active; 'I' for Inactive)
REMARK    1  A    between atoms: C_4  and  C_5
REMARK    2  A    between atoms: C_5  and  C_6
REMARK    3  A    between atoms: C_6  and  C_7
REMARK    4  A    between atoms: C_12  and  C_13
REMARK                            x       y       z     vdW  Elec       q    Type
REMARK                         _______ _______ _______ _____ _____    ______ ____
ROOT
ATOM      1  C   UNL     1       4.048   5.287  18.323  0.00  0.00    +0.000 A 
ATOM      2  C   UNL     1       5.045   5.472  19.289  0.00  0.00    +0.000 A 
ATOM      3  C   UNL     1       6.387   5.362  18.938  0.00  0.00    +0.000 A 
ATOM      4  F   UNL     1       7.334   5.556  19.865  0.00  0.00    +0.000 F 
ATOM      5  C   UNL     1       6.770   5.065  17.634  0.00  0.00    +0.000 A 
ATOM      6  C   UNL     1       5.792   4.864  16.652  0.00  0.00    +0.000 A 
ATOM      7  C   UNL     1       4.433   4.973  17.008  0.00  0.00    +0.000 A 
ENDROOT
BRANCH   6   8
ATOM      8  C   UNL     1       6.186   4.543  15.232  0.00  0.00    +0.000 C 
ATOM      9  F   UNL     1       7.441   4.963  14.907  0.00  0.00    +0.000 F 
ATOM     10  F   UNL     1       6.166   3.204  14.978  0.00  0.00    +0.000 F 
ATOM     11  F   UNL     1       5.355   5.110  14.316  0.00  0.00    +0.000 F 
ENDBRANCH   6   8
BRANCH   1  12
ATOM     12  C   UNL     1       2.584   5.434  18.678  0.00  0.00    +0.000 C 
BRANCH  12  13
ATOM     13  C   UNL     1       2.213   4.718  19.982  0.00  0.00    +0.000 C 
BRANCH  13  17
ATOM     14  N   UNL     1       3.939   0.911  18.392  0.00  0.00    +0.000 N 
ATOM     15  C   UNL     1       3.023   1.824  18.752  0.00  0.00    +0.000 C 
ATOM     16  N   UNL     1       2.856   2.334  19.921  0.00  0.00    +0.000 NA
ATOM     17  C   UNL     1       1.735   3.275  19.755  0.00  0.00    +0.000 C 
ATOM     18  C   UNL     1       1.246   3.049  18.331  0.00  0.00    +0.000 C 
ATOM     19  O   UNL     1       2.236   2.228  17.728  0.00  0.00    +0.000 OA
ATOM     20  H   UNL     1       4.718   0.833  19.032  0.00  0.00    +0.000 HD
ATOM     21  H   UNL     1       4.181   0.913  17.411  0.00  0.00    +0.000 HD
ENDBRANCH  13  17
ENDBRANCH  12  13
ENDBRANCH   1  12
TORSDOF 4
ENDMDL
