MODEL 1
REMARK VINA RESULT:      -7.6      0.000      0.000
REMARK  Name = 
REMARK  5 active torsions:
REMARK  status: ('A' for Active; 'I' for Inactive)
REMARK    1  A    between atoms: C_2  and  O_3
REMARK    2  A    between atoms: C_2  and  C_18
REMARK    3  A    between atoms: O_3  and  C_4
REMARK    4  A    between atoms: C_7  and  C_8
REMARK    5  A    between atoms: C_8  and  N_10
REMARK                            x       y       z     vdW  Elec       q    Type
REMARK                         _______ _______ _______ _____ _____    ______ ____
ROOT
ATOM      1  C   UNL     1       2.378   7.168  19.091  0.00  0.00    +0.000 A 
ATOM      2  C   UNL     1       1.817   7.665  20.265  0.00  0.00    +0.000 A 
ATOM      3  C   UNL     1       1.207   8.922  20.265  0.00  0.00    +0.000 A 
ATOM      4  C   UNL     1       1.123   9.678  19.086  0.00  0.00    +0.000 A 
ATOM      5  C   UNL     1       1.684   9.153  17.909  0.00  0.00    +0.000 A 
ATOM      6  C   UNL     1       2.322   7.906  17.912  0.00  0.00    +0.000 A 
ENDROOT
BRANCH   4   7
ATOM      7  C   UNL     1       0.571  11.081  19.146  0.00  0.00    +0.000 C 
ATOM      8  S   UNL     1       1.606  12.421  19.153  0.00  0.00    +0.000 S 
BRANCH   7   9
ATOM      9  N   UNL     1      -0.820  11.237  19.238  0.00  0.00    +0.000 N 
ATOM     10  C   UNL     1      -1.776  10.594  18.324  0.00  0.00    +0.000 C 
ATOM     11  C   UNL     1      -2.954  11.531  18.026  0.00  0.00    +0.000 C 
ATOM     12  O   UNL     1      -3.589  11.970  19.239  0.00  0.00    +0.000 OA
ATOM     13  C   UNL     1      -2.659  12.703  20.050  0.00  0.00    +0.000 C 
ATOM     14  C   UNL     1      -1.456  11.837  20.426  0.00  0.00    +0.000 C 
ENDBRANCH   7   9
ENDBRANCH   4   7
BRANCH   1  15
ATOM     15  O   UNL     1       3.071   5.944  19.229  0.00  0.00    +0.000 OA
BRANCH  15  17
ATOM     16  O   UNL     1       3.358   4.476  17.444  0.00  0.00    +0.000 OA
ATOM     17  C   UNL     1       3.786   5.314  18.224  0.00  0.00    +0.000 C 
BRANCH  17  18
ATOM     18  C   UNL     1       5.205   5.756  18.223  0.00  0.00    +0.000 A 
ATOM     19  C   UNL     1       6.028   5.313  19.272  0.00  0.00    +0.000 A 
ATOM     20  C   UNL     1       7.365   5.714  19.345  0.00  0.00    +0.000 A 
ATOM     21  C   UNL     1       7.897   6.553  18.368  0.00  0.00    +0.000 A 
ATOM     22  C   UNL     1       7.093   6.981  17.312  0.00  0.00    +0.000 A 
ATOM     23  C   UNL     1       5.758   6.582  17.240  0.00  0.00    +0.000 A 
ATOM     24  F   UNL     1       5.042   7.016  16.195  0.00  0.00    +0.000 F 
ENDBRANCH  17  18
ENDBRANCH  15  17
ENDBRANCH   1  15
TORSDOF 5
ENDMDL
MODEL 2
REMARK VINA RESULT:      -7.5      3.739      8.582
REMARK  Name = 
REMARK  5 active torsions:
REMARK  status: ('A' for Active; 'I' for Inactive)
REMARK    1  A    between atoms: C_2  and  O_3
REMARK    2  A    between atoms: C_2  and  C_18
REMARK    3  A    between atoms: O_3  and  C_4
REMARK    4  A    between atoms: C_7  and  C_8
REMARK    5  A    between atoms: C_8  and  N_10
REMARK                            x       y       z     vdW  Elec       q    Type
REMARK                         _______ _______ _______ _____ _____    ______ ____
ROOT
ATOM      1  C   UNL     1       1.683   8.774  19.134  0.00  0.00    +0.000 A 
ATOM      2  C   UNL     1       1.826   7.685  19.991  0.00  0.00    +0.000 A 
ATOM      3  C   UNL     1       2.510   6.546  19.558  0.00  0.00    +0.000 A 
ATOM      4  C   UNL     1       3.084   6.497  18.279  0.00  0.00    +0.000 A 
ATOM      5  C   UNL     1       2.939   7.612  17.434  0.00  0.00    +0.000 A 
ATOM      6  C   UNL     1       2.230   8.744  17.855  0.00  0.00    +0.000 A 
ENDROOT
BRANCH   4   7
ATOM      7  C   UNL     1       3.706   5.210  17.797  0.00  0.00    +0.000 C 
ATOM      8  S   UNL     1       2.858   3.748  17.895  0.00  0.00    +0.000 S 
BRANCH   7   9
ATOM      9  N   UNL     1       5.018   5.257  17.305  0.00  0.00    +0.000 N 
ATOM     10  C   UNL     1       5.353   5.322  15.875  0.00  0.00    +0.000 C 
ATOM     11  C   UNL     1       6.608   4.493  15.573  0.00  0.00    +0.000 C 
ATOM     12  O   UNL     1       7.712   4.903  16.398  0.00  0.00    +0.000 OA
ATOM     13  C   UNL     1       7.397   4.707  17.785  0.00  0.00    +0.000 C 
ATOM     14  C   UNL     1       6.168   5.523  18.190  0.00  0.00    +0.000 C 
ENDBRANCH   7   9
ENDBRANCH   4   7
BRANCH   1  15
ATOM     15  O   UNL     1       0.876   9.824  19.629  0.00  0.00    +0.000 OA
BRANCH  15  17
ATOM     16  O   UNL     1       1.244  11.905  18.651  0.00  0.00    +0.000 OA
ATOM     17  C   UNL     1       0.519  10.958  18.919  0.00  0.00    +0.000 C 
BRANCH  17  18
ATOM     18  C   UNL     1      -0.916  10.917  18.535  0.00  0.00    +0.000 A 
ATOM     19  C   UNL     1      -1.308   9.972  17.571  0.00  0.00    +0.000 A 
ATOM     20  C   UNL     1      -2.637   9.899  17.147  0.00  0.00    +0.000 A 
ATOM     21  C   UNL     1      -3.591  10.760  17.686  0.00  0.00    +0.000 A 
ATOM     22  C   UNL     1      -3.216  11.685  18.659  0.00  0.00    +0.000 A 
ATOM     23  C   UNL     1      -1.888  11.759  19.081  0.00  0.00    +0.000 A 
ATOM     24  F   UNL     1      -1.593  12.660  20.028  0.00  0.00    +0.000 F 
ENDBRANCH  17  18
ENDBRANCH  15  17
ENDBRANCH   1  15
TORSDOF 5
ENDMDL
MODEL 3
REMARK VINA RESULT:      -7.5      2.593      3.942
REMARK  Name = 
REMARK  5 active torsions:
REMARK  status: ('A' for Active; 'I' for Inactive)
REMARK    1  A    between atoms: C_2  and  O_3
REMARK    2  A    between atoms: C_2  and  C_18
REMARK    3  A    between atoms: O_3  and  C_4
REMARK    4  A    between atoms: C_7  and  C_8
REMARK    5  A    between atoms: C_8  and  N_10
REMARK                            x       y       z     vdW  Elec       q    Type
REMARK                         _______ _______ _______ _____ _____    ______ ____
ROOT
ATOM      1  C   UNL     1       2.460   7.630  18.741  0.00  0.00    +0.000 A 
ATOM      2  C   UNL     1       2.071   8.557  17.777  0.00  0.00    +0.000 A 
ATOM      3  C   UNL     1       1.175   9.575  18.115  0.00  0.00    +0.000 A 
ATOM      4  C   UNL     1       0.686   9.695  19.425  0.00  0.00    +0.000 A 
ATOM      5  C   UNL     1       1.102   8.757  20.385  0.00  0.00    +0.000 A 
ATOM      6  C   UNL     1       1.978   7.718  20.043  0.00  0.00    +0.000 A 
ENDROOT
BRANCH   4   7
ATOM      7  C   UNL     1      -0.373  10.725  19.726  0.00  0.00    +0.000 C 
ATOM      8  S   UNL     1      -1.657  10.988  18.655  0.00  0.00    +0.000 S 
BRANCH   7   9
ATOM      9  N   UNL     1      -0.237  11.485  20.897  0.00  0.00    +0.000 N 
ATOM     10  C   UNL     1      -0.779  11.077  22.202  0.00  0.00    +0.000 C 
ATOM     11  C   UNL     1      -1.306  12.294  22.974  0.00  0.00    +0.000 C 
ATOM     12  O   UNL     1      -0.290  13.302  23.110  0.00  0.00    +0.000 OA
ATOM     13  C   UNL     1       0.125  13.767  21.818  0.00  0.00    +0.000 C 
ATOM     14  C   UNL     1       0.697  12.624  20.979  0.00  0.00    +0.000 C 
ENDBRANCH   7   9
ENDBRANCH   4   7
BRANCH   1  15
ATOM     15  O   UNL     1       3.275   6.577  18.265  0.00  0.00    +0.000 OA
BRANCH  15  17
ATOM     16  O   UNL     1       4.907   5.416  19.453  0.00  0.00    +0.000 OA
ATOM     17  C   UNL     1       3.764   5.536  19.036  0.00  0.00    +0.000 C 
BRANCH  17  18
ATOM     18  C   UNL     1       2.713   4.513  19.278  0.00  0.00    +0.000 A 
ATOM     19  C   UNL     1       2.274   4.328  20.600  0.00  0.00    +0.000 A 
ATOM     20  C   UNL     1       1.307   3.364  20.899  0.00  0.00    +0.000 A 
ATOM     21  C   UNL     1       0.762   2.582  19.882  0.00  0.00    +0.000 A 
ATOM     22  C   UNL     1       1.177   2.773  18.565  0.00  0.00    +0.000 A 
ATOM     23  C   UNL     1       2.142   3.735  18.267  0.00  0.00    +0.000 A 
ATOM     24  F   UNL     1       2.489   3.880  16.981  0.00  0.00    +0.000 F 
ENDBRANCH  17  18
ENDBRANCH  15  17
ENDBRANCH   1  15
TORSDOF 5
ENDMDL
MODEL 4
REMARK VINA RESULT:      -7.4      0.452      1.084
REMARK  Name = 
REMARK  5 active torsions:
REMARK  status: ('A' for Active; 'I' for Inactive)
REMARK    1  A    between atoms: C_2  and  O_3
REMARK    2  A    between atoms: C_2  and  C_18
REMARK    3  A    between atoms: O_3  and  C_4
REMARK    4  A    between atoms: C_7  and  C_8
REMARK    5  A    between atoms: C_8  and  N_10
REMARK                            x       y       z     vdW  Elec       q    Type
REMARK                         _______ _______ _______ _____ _____    ______ ____
ROOT
ATOM      1  C   UNL     1       2.514   7.027  19.075  0.00  0.00    +0.000 A 
ATOM      2  C   UNL     1       2.598   7.755  17.890  0.00  0.00    +0.000 A 
ATOM      3  C   UNL     1       2.044   9.036  17.822  0.00  0.00    +0.000 A 
ATOM      4  C   UNL     1       1.430   9.613  18.944  0.00  0.00    +0.000 A 
ATOM      5  C   UNL     1       1.367   8.867  20.133  0.00  0.00    +0.000 A 
ATOM      6  C   UNL     1       1.896   7.571  20.197  0.00  0.00    +0.000 A 
ENDROOT
BRANCH   4   7
ATOM      7  C   UNL     1       0.734  10.943  18.801  0.00  0.00    +0.000 C 
ATOM      8  S   UNL     1       1.619  12.385  18.742  0.00  0.00    +0.000 S 
BRANCH   7   9
ATOM      9  N   UNL     1      -0.668  10.950  18.761  0.00  0.00    +0.000 N 
ATOM     10  C   UNL     1      -1.460  10.247  17.741  0.00  0.00    +0.000 C 
ATOM     11  C   UNL     1      -2.698  11.067  17.355  0.00  0.00    +0.000 C 
ATOM     12  O   UNL     1      -3.488  11.391  18.512  0.00  0.00    +0.000 OA
ATOM     13  C   UNL     1      -2.722  12.186  19.430  0.00  0.00    +0.000 C 
ATOM     14  C   UNL     1      -1.474  11.436  19.898  0.00  0.00    +0.000 C 
ENDBRANCH   7   9
ENDBRANCH   4   7
BRANCH   1  15
ATOM     15  O   UNL     1       3.001   5.703  19.000  0.00  0.00    +0.000 OA
BRANCH  15  17
ATOM     16  O   UNL     1       3.420   4.447  17.084  0.00  0.00    +0.000 OA
ATOM     17  C   UNL     1       3.786   5.198  17.977  0.00  0.00    +0.000 C 
BRANCH  17  18
ATOM     18  C   UNL     1       5.194   5.655  18.112  0.00  0.00    +0.000 A 
ATOM     19  C   UNL     1       5.918   5.216  19.233  0.00  0.00    +0.000 A 
ATOM     20  C   UNL     1       7.238   5.630  19.433  0.00  0.00    +0.000 A 
ATOM     21  C   UNL     1       7.851   6.478  18.513  0.00  0.00    +0.000 A 
ATOM     22  C   UNL     1       7.147   6.902  17.387  0.00  0.00    +0.000 A 
ATOM     23  C   UNL     1       5.829   6.489  17.188  0.00  0.00    +0.000 A 
ATOM     24  F   UNL     1       5.210   6.920  16.080  0.00  0.00    +0.000 F 
ENDBRANCH  17  18
ENDBRANCH  15  17
ENDBRANCH   1  15
TORSDOF 5
ENDMDL
MODEL 5
REMARK VINA RESULT:      -7.4      1.472      1.952
REMARK  Name = 
REMARK  5 active torsions:
REMARK  status: ('A' for Active; 'I' for Inactive)
REMARK    1  A    between atoms: C_2  and  O_3
REMARK    2  A    between atoms: C_2  and  C_18
REMARK    3  A    between atoms: O_3  and  C_4
REMARK    4  A    between atoms: C_7  and  C_8
REMARK    5  A    between atoms: C_8  and  N_10
REMARK                            x       y       z     vdW  Elec       q    Type
REMARK                         _______ _______ _______ _____ _____    ______ ____
ROOT
ATOM      1  C   UNL     1       2.520   6.957  18.566  0.00  0.00    +0.000 A 
ATOM      2  C   UNL     1       2.178   8.160  17.952  0.00  0.00    +0.000 A 
ATOM      3  C   UNL     1       1.524   9.153  18.686  0.00  0.00    +0.000 A 
ATOM      4  C   UNL     1       1.238   8.967  20.047  0.00  0.00    +0.000 A 
ATOM      5  C   UNL     1       1.603   7.752  20.651  0.00  0.00    +0.000 A 
ATOM      6  C   UNL     1       2.232   6.742  19.910  0.00  0.00    +0.000 A 
ENDROOT
BRANCH   4   7
ATOM      7  C   UNL     1       0.422  10.005  20.778  0.00  0.00    +0.000 C 
ATOM      8  S   UNL     1      -0.035   9.770  22.391  0.00  0.00    +0.000 S 
BRANCH   7   9
ATOM      9  N   UNL     1       0.022  11.146  20.068  0.00  0.00    +0.000 N 
ATOM     10  C   UNL     1      -1.340  11.352  19.553  0.00  0.00    +0.000 C 
ATOM     11  C   UNL     1      -1.303  12.057  18.190  0.00  0.00    +0.000 C 
ATOM     12  O   UNL     1      -0.569  13.291  18.264  0.00  0.00    +0.000 OA
ATOM     13  C   UNL     1       0.791  13.038  18.648  0.00  0.00    +0.000 C 
ATOM     14  C   UNL     1       0.859  12.360  20.017  0.00  0.00    +0.000 C 
ENDBRANCH   7   9
ENDBRANCH   4   7
BRANCH   1  15
ATOM     15  O   UNL     1       3.070   5.980  17.706  0.00  0.00    +0.000 OA
BRANCH  15  17
ATOM     16  O   UNL     1       3.807   3.865  18.346  0.00  0.00    +0.000 OA
ATOM     17  C   UNL     1       4.017   5.038  18.070  0.00  0.00    +0.000 C 
BRANCH  17  18
ATOM     18  C   UNL     1       5.373   5.644  18.134  0.00  0.00    +0.000 A 
ATOM     19  C   UNL     1       6.209   5.262  19.197  0.00  0.00    +0.000 A 
ATOM     20  C   UNL     1       7.486   5.814  19.329  0.00  0.00    +0.000 A 
ATOM     21  C   UNL     1       7.945   6.745  18.400  0.00  0.00    +0.000 A 
ATOM     22  C   UNL     1       7.130   7.114  17.331  0.00  0.00    +0.000 A 
ATOM     23  C   UNL     1       5.855   6.564  17.199  0.00  0.00    +0.000 A 
ATOM     24  F   UNL     1       5.124   6.949  16.144  0.00  0.00    +0.000 F 
ENDBRANCH  17  18
ENDBRANCH  15  17
ENDBRANCH   1  15
TORSDOF 5
ENDMDL
MODEL 6
REMARK VINA RESULT:      -7.4      3.731      8.387
REMARK  Name = 
REMARK  5 active torsions:
REMARK  status: ('A' for Active; 'I' for Inactive)
REMARK    1  A    between atoms: C_2  and  O_3
REMARK    2  A    between atoms: C_2  and  C_18
REMARK    3  A    between atoms: O_3  and  C_4
REMARK    4  A    between atoms: C_7  and  C_8
REMARK    5  A    between atoms: C_8  and  N_10
REMARK                            x       y       z     vdW  Elec       q    Type
REMARK                         _______ _______ _______ _____ _____    ______ ____
ROOT
ATOM      1  C   UNL     1       1.491   7.442  20.409  0.00  0.00    +0.000 A 
ATOM      2  C   UNL     1       1.676   6.103  20.742  0.00  0.00    +0.000 A 
ATOM      3  C   UNL     1       2.405   5.269  19.889  0.00  0.00    +0.000 A 
ATOM      4  C   UNL     1       2.983   5.774  18.715  0.00  0.00    +0.000 A 
ATOM      5  C   UNL     1       2.796   7.132  18.403  0.00  0.00    +0.000 A 
ATOM      6  C   UNL     1       2.041   7.963  19.241  0.00  0.00    +0.000 A 
ENDROOT
BRANCH   4   7
ATOM      7  C   UNL     1       3.656   4.824  17.756  0.00  0.00    +0.000 C 
ATOM      8  S   UNL     1       2.884   3.401  17.260  0.00  0.00    +0.000 S 
BRANCH   7   9
ATOM      9  N   UNL     1       4.953   5.135  17.323  0.00  0.00    +0.000 N 
ATOM     10  C   UNL     1       5.264   5.657  15.984  0.00  0.00    +0.000 C 
ATOM     11  C   UNL     1       6.587   5.074  15.469  0.00  0.00    +0.000 C 
ATOM     12  O   UNL     1       7.657   5.316  16.397  0.00  0.00    +0.000 OA
ATOM     13  C   UNL     1       7.377   4.685  17.656  0.00  0.00    +0.000 C 
ATOM     14  C   UNL     1       6.084   5.227  18.266  0.00  0.00    +0.000 C 
ENDBRANCH   7   9
ENDBRANCH   4   7
BRANCH   1  15
ATOM     15  O   UNL     1       0.642   8.165  21.278  0.00  0.00    +0.000 OA
BRANCH  15  17
ATOM     16  O   UNL     1       2.022   9.404  22.686  0.00  0.00    +0.000 OA
ATOM     17  C   UNL     1       1.012   9.281  22.008  0.00  0.00    +0.000 C 
BRANCH  17  18
ATOM     18  C   UNL     1      -0.019  10.348  21.909  0.00  0.00    +0.000 A 
ATOM     19  C   UNL     1      -0.791  10.619  23.051  0.00  0.00    +0.000 A 
ATOM     20  C   UNL     1      -1.795  11.590  23.017  0.00  0.00    +0.000 A 
ATOM     21  C   UNL     1      -2.033  12.308  21.846  0.00  0.00    +0.000 A 
ATOM     22  C   UNL     1      -1.259  12.060  20.714  0.00  0.00    +0.000 A 
ATOM     23  C   UNL     1      -0.257  11.089  20.748  0.00  0.00    +0.000 A 
ATOM     24  F   UNL     1       0.461  10.907  19.632  0.00  0.00    +0.000 F 
ENDBRANCH  17  18
ENDBRANCH  15  17
ENDBRANCH   1  15
TORSDOF 5
ENDMDL
MODEL 7
REMARK VINA RESULT:      -7.4      3.482      8.076
REMARK  Name = 
REMARK  5 active torsions:
REMARK  status: ('A' for Active; 'I' for Inactive)
REMARK    1  A    between atoms: C_2  and  O_3
REMARK    2  A    between atoms: C_2  and  C_18
REMARK    3  A    between atoms: O_3  and  C_4
REMARK    4  A    between atoms: C_7  and  C_8
REMARK    5  A    between atoms: C_8  and  N_10
REMARK                            x       y       z     vdW  Elec       q    Type
REMARK                         _______ _______ _______ _____ _____    ______ ____
ROOT
ATOM      1  C   UNL     1       1.410   9.065  19.263  0.00  0.00    +0.000 A 
ATOM      2  C   UNL     1       1.586   7.995  20.138  0.00  0.00    +0.000 A 
ATOM      3  C   UNL     1       2.329   6.883  19.734  0.00  0.00    +0.000 A 
ATOM      4  C   UNL     1       2.931   6.844  18.468  0.00  0.00    +0.000 A 
ATOM      5  C   UNL     1       2.753   7.940  17.605  0.00  0.00    +0.000 A 
ATOM      6  C   UNL     1       1.984   9.044  17.996  0.00  0.00    +0.000 A 
ENDROOT
BRANCH   4   7
ATOM      7  C   UNL     1       3.621   5.581  18.017  0.00  0.00    +0.000 C 
ATOM      8  S   UNL     1       4.921   5.642  16.934  0.00  0.00    +0.000 S 
BRANCH   7   9
ATOM      9  N   UNL     1       3.125   4.357  18.489  0.00  0.00    +0.000 N 
ATOM     10  C   UNL     1       2.049   3.603  17.829  0.00  0.00    +0.000 C 
ATOM     11  C   UNL     1       1.138   2.937  18.869  0.00  0.00    +0.000 C 
ATOM     12  O   UNL     1       1.895   2.110  19.769  0.00  0.00    +0.000 OA
ATOM     13  C   UNL     1       2.851   2.902  20.488  0.00  0.00    +0.000 C 
ATOM     14  C   UNL     1       3.828   3.586  19.532  0.00  0.00    +0.000 C 
ENDBRANCH   7   9
ENDBRANCH   4   7
BRANCH   1  15
ATOM     15  O   UNL     1       0.546  10.082  19.727  0.00  0.00    +0.000 OA
BRANCH  15  17
ATOM     16  O   UNL     1       0.837  12.155  18.706  0.00  0.00    +0.000 OA
ATOM     17  C   UNL     1       0.148  11.187  18.993  0.00  0.00    +0.000 C 
BRANCH  17  18
ATOM     18  C   UNL     1      -1.285  11.084  18.610  0.00  0.00    +0.000 A 
ATOM     19  C   UNL     1      -2.194  11.950  19.241  0.00  0.00    +0.000 A 
ATOM     20  C   UNL     1      -3.558  11.886  18.945  0.00  0.00    +0.000 A 
ATOM     21  C   UNL     1      -4.028  10.965  18.012  0.00  0.00    +0.000 A 
ATOM     22  C   UNL     1      -3.131  10.115  17.366  0.00  0.00    +0.000 A 
ATOM     23  C   UNL     1      -1.769  10.178  17.662  0.00  0.00    +0.000 A 
ATOM     24  F   UNL     1      -0.956   9.345  16.999  0.00  0.00    +0.000 F 
ENDBRANCH  17  18
ENDBRANCH  15  17
ENDBRANCH   1  15
TORSDOF 5
ENDMDL
MODEL 8
REMARK VINA RESULT:      -7.4      3.924      8.462
REMARK  Name = 
REMARK  5 active torsions:
REMARK  status: ('A' for Active; 'I' for Inactive)
REMARK    1  A    between atoms: C_2  and  O_3
REMARK    2  A    between atoms: C_2  and  C_18
REMARK    3  A    between atoms: O_3  and  C_4
REMARK    4  A    between atoms: C_7  and  C_8
REMARK    5  A    between atoms: C_8  and  N_10
REMARK                            x       y       z     vdW  Elec       q    Type
REMARK                         _______ _______ _______ _____ _____    ______ ____
ROOT
ATOM      1  C   UNL     1       1.818   7.492  20.150  0.00  0.00    +0.000 A 
ATOM      2  C   UNL     1       2.295   7.793  18.877  0.00  0.00    +0.000 A 
ATOM      3  C   UNL     1       2.866   6.786  18.093  0.00  0.00    +0.000 A 
ATOM      4  C   UNL     1       2.934   5.465  18.561  0.00  0.00    +0.000 A 
ATOM      5  C   UNL     1       2.435   5.180  19.844  0.00  0.00    +0.000 A 
ATOM      6  C   UNL     1       1.889   6.193  20.643  0.00  0.00    +0.000 A 
ENDROOT
BRANCH   4   7
ATOM      7  C   UNL     1       3.667   4.430  17.745  0.00  0.00    +0.000 C 
ATOM      8  S   UNL     1       2.984   2.907  17.461  0.00  0.00    +0.000 S 
BRANCH   7   9
ATOM      9  N   UNL     1       4.944   4.754  17.266  0.00  0.00    +0.000 N 
ATOM     10  C   UNL     1       5.248   4.997  15.847  0.00  0.00    +0.000 C 
ATOM     11  C   UNL     1       6.629   4.435  15.485  0.00  0.00    +0.000 C 
ATOM     12  O   UNL     1       7.649   4.969  16.346  0.00  0.00    +0.000 OA
ATOM     13  C   UNL     1       7.388   4.605  17.710  0.00  0.00    +0.000 C 
ATOM     14  C   UNL     1       6.036   5.149  18.175  0.00  0.00    +0.000 C 
ENDBRANCH   7   9
ENDBRANCH   4   7
BRANCH   1  15
ATOM     15  O   UNL     1       1.370   8.603  20.900  0.00  0.00    +0.000 OA
BRANCH  15  17
ATOM     16  O   UNL     1      -0.710   8.156  21.848  0.00  0.00    +0.000 OA
ATOM     17  C   UNL     1       0.048   8.874  21.213  0.00  0.00    +0.000 C 
BRANCH  17  18
ATOM     18  C   UNL     1      -0.381  10.173  20.630  0.00  0.00    +0.000 A 
ATOM     19  C   UNL     1      -0.546  10.241  19.236  0.00  0.00    +0.000 A 
ATOM     20  C   UNL     1      -0.922  11.439  18.623  0.00  0.00    +0.000 A 
ATOM     21  C   UNL     1      -1.145  12.578  19.393  0.00  0.00    +0.000 A 
ATOM     22  C   UNL     1      -1.003  12.515  20.778  0.00  0.00    +0.000 A 
ATOM     23  C   UNL     1      -0.627  11.319  21.391  0.00  0.00    +0.000 A 
ATOM     24  F   UNL     1      -0.521  11.319  22.726  0.00  0.00    +0.000 F 
ENDBRANCH  17  18
ENDBRANCH  15  17
ENDBRANCH   1  15
TORSDOF 5
ENDMDL
MODEL 9
REMARK VINA RESULT:      -7.3      2.099      2.718
REMARK  Name = 
REMARK  5 active torsions:
REMARK  status: ('A' for Active; 'I' for Inactive)
REMARK    1  A    between atoms: C_2  and  O_3
REMARK    2  A    between atoms: C_2  and  C_18
REMARK    3  A    between atoms: O_3  and  C_4
REMARK    4  A    between atoms: C_7  and  C_8
REMARK    5  A    between atoms: C_8  and  N_10
REMARK                            x       y       z     vdW  Elec       q    Type
REMARK                         _______ _______ _______ _____ _____    ______ ____
ROOT
ATOM      1  C   UNL     1       2.353   7.229  19.057  0.00  0.00    +0.000 A 
ATOM      2  C   UNL     1       1.793   7.761  20.216  0.00  0.00    +0.000 A 
ATOM      3  C   UNL     1       1.188   9.020  20.182  0.00  0.00    +0.000 A 
ATOM      4  C   UNL     1       1.107   9.743  18.982  0.00  0.00    +0.000 A 
ATOM      5  C   UNL     1       1.666   9.184  17.821  0.00  0.00    +0.000 A 
ATOM      6  C   UNL     1       2.299   7.935  17.858  0.00  0.00    +0.000 A 
ENDROOT
BRANCH   4   7
ATOM      7  C   UNL     1       0.560  11.149  19.004  0.00  0.00    +0.000 C 
ATOM      8  S   UNL     1      -1.073  11.450  18.674  0.00  0.00    +0.000 S 
BRANCH   7   9
ATOM      9  N   UNL     1       1.454  12.198  19.266  0.00  0.00    +0.000 N 
ATOM     10  C   UNL     1       1.699  12.747  20.608  0.00  0.00    +0.000 C 
ATOM     11  C   UNL     1       1.899  14.267  20.543  0.00  0.00    +0.000 C 
ATOM     12  O   UNL     1       2.951  14.613  19.625  0.00  0.00    +0.000 OA
ATOM     13  C   UNL     1       2.619  14.173  18.300  0.00  0.00    +0.000 C 
ATOM     14  C   UNL     1       2.428  12.656  18.257  0.00  0.00    +0.000 C 
ENDBRANCH   7   9
ENDBRANCH   4   7
BRANCH   1  15
ATOM     15  O   UNL     1       3.041   6.007  19.229  0.00  0.00    +0.000 OA
BRANCH  15  17
ATOM     16  O   UNL     1       3.305   4.497  17.476  0.00  0.00    +0.000 OA
ATOM     17  C   UNL     1       3.747   5.343  18.240  0.00  0.00    +0.000 C 
BRANCH  17  18
ATOM     18  C   UNL     1       5.174   5.758  18.234  0.00  0.00    +0.000 A 
ATOM     19  C   UNL     1       5.991   5.301  19.282  0.00  0.00    +0.000 A 
ATOM     20  C   UNL     1       7.335   5.677  19.350  0.00  0.00    +0.000 A 
ATOM     21  C   UNL     1       7.881   6.504  18.371  0.00  0.00    +0.000 A 
ATOM     22  C   UNL     1       7.082   6.946  17.317  0.00  0.00    +0.000 A 
ATOM     23  C   UNL     1       5.740   6.572  17.249  0.00  0.00    +0.000 A 
ATOM     24  F   UNL     1       5.029   7.018  16.205  0.00  0.00    +0.000 F 
ENDBRANCH  17  18
ENDBRANCH  15  17
ENDBRANCH   1  15
TORSDOF 5
ENDMDL
