MODEL 1
REMARK VINA RESULT:      -6.4      0.000      0.000
REMARK  Name = 
REMARK  7 active torsions:
REMARK  status: ('A' for Active; 'I' for Inactive)
REMARK    1  A    between atoms: C_1  and  C_2
REMARK    2  A    between atoms: C_2  and  C_3
REMARK    3  A    between atoms: C_2  and  N_4
REMARK    4  A    between atoms: N_7  and  C_8
REMARK    5  A    between atoms: C_10  and  C_11
REMARK    6  A    between atoms: C_26  and  C_27
REMARK    7  A    between atoms: C_26  and  C_28
REMARK                            x       y       z     vdW  Elec       q    Type
REMARK                         _______ _______ _______ _____ _____    ______ ____
ROOT
ATOM      1  C   UNL     1      -1.872  13.746  21.827  0.00  0.00    +0.000 C 
ATOM      2  C   UNL     1      -1.623  12.268  21.374  0.00  0.00    +0.000 C 
ATOM      3  C   UNL     1      -0.862  12.244  20.024  0.00  0.00    +0.000 C 
ATOM      4  C   UNL     1      -0.572  13.695  19.778  0.00  0.00    +0.000 A 
ATOM      5  C   UNL     1       0.083  14.270  18.695  0.00  0.00    +0.000 A 
ATOM      6  C   UNL     1       0.346  15.645  18.715  0.00  0.00    +0.000 A 
ATOM      7  C   UNL     1       0.044  16.397  19.850  0.00  0.00    +0.000 A 
ATOM      8 CL   UNL     1       0.318  18.100  19.862  0.00  0.00    +0.000 Cl
ATOM      9  C   UNL     1      -0.548  15.804  20.960  0.00  0.00    +0.000 A 
ATOM     10  C   UNL     1      -0.946  14.476  20.876  0.00  0.00    +0.000 A 
ENDROOT
BRANCH   1  14
ATOM     11  N   UNL     1      -5.527  13.966  23.738  0.00  0.00    +0.000 NA
ATOM     12  C   UNL     1      -5.021  12.780  23.020  0.00  0.00    +0.000 C 
ATOM     13  C   UNL     1      -4.255  13.033  21.696  0.00  0.00    +0.000 C 
ATOM     14  N   UNL     1      -3.286  14.143  21.663  0.00  0.00    +0.000 NA
ATOM     15  C   UNL     1      -3.787  15.277  22.465  0.00  0.00    +0.000 C 
ATOM     16  C   UNL     1      -4.453  14.994  23.854  0.00  0.00    +0.000 C 
ATOM     17  C   UNL     1      -4.943  16.343  24.442  0.00  0.00    +0.000 C 
ATOM     18  C   UNL     1      -3.417  14.480  24.891  0.00  0.00    +0.000 C 
BRANCH  11  20
ATOM     19  C   UNL     1      -7.403  13.987  21.960  0.00  0.00    +0.000 C 
ATOM     20  C   UNL     1      -6.873  14.424  23.329  0.00  0.00    +0.000 C 
ATOM     21  C   UNL     1      -7.916  14.034  24.391  0.00  0.00    +0.000 C 
ENDBRANCH  11  20
ENDBRANCH   1  14
BRANCH   3  22
ATOM     22  C   UNL     1      -1.544  11.452  18.927  0.00  0.00    +0.000 A 
ATOM     23  C   UNL     1      -0.900  10.398  18.255  0.00  0.00    +0.000 A 
ATOM     24  C   UNL     1      -1.536   9.751  17.187  0.00  0.00    +0.000 A 
ATOM     25  C   UNL     1      -2.807  10.148  16.788  0.00  0.00    +0.000 A 
ATOM     26  F   UNL     1      -3.395   9.545  15.751  0.00  0.00    +0.000 F 
ATOM     27  C   UNL     1      -3.474  11.172  17.450  0.00  0.00    +0.000 A 
ATOM     28  C   UNL     1      -2.843  11.819  18.517  0.00  0.00    +0.000 A 
ENDBRANCH   3  22
TORSDOF 3
ENDMDL
MODEL 2
REMARK VINA RESULT:      -6.2      3.032      4.728
REMARK  Name = 
REMARK  7 active torsions:
REMARK  status: ('A' for Active; 'I' for Inactive)
REMARK    1  A    between atoms: C_1  and  C_2
REMARK    2  A    between atoms: C_2  and  C_3
REMARK    3  A    between atoms: C_2  and  N_4
REMARK    4  A    between atoms: N_7  and  C_8
REMARK    5  A    between atoms: C_10  and  C_11
REMARK    6  A    between atoms: C_26  and  C_27
REMARK    7  A    between atoms: C_26  and  C_28
REMARK                            x       y       z     vdW  Elec       q    Type
REMARK                         _______ _______ _______ _____ _____    ______ ____
ROOT
ATOM      1  C   UNL     1      -1.911  12.928  19.814  0.00  0.00    +0.000 C 
ATOM      2  C   UNL     1      -0.457  12.445  19.491  0.00  0.00    +0.000 C 
ATOM      3  C   UNL     1      -0.500  11.113  18.699  0.00  0.00    +0.000 C 
ATOM      4  C   UNL     1      -1.968  10.909  18.467  0.00  0.00    +0.000 A 
ATOM      5  C   UNL     1      -2.597   9.856  17.814  0.00  0.00    +0.000 A 
ATOM      6  C   UNL     1      -3.982   9.916  17.611  0.00  0.00    +0.000 A 
ATOM      7  C   UNL     1      -4.691  11.062  17.970  0.00  0.00    +0.000 A 
ATOM      8 CL   UNL     1      -6.403  11.122  17.771  0.00  0.00    +0.000 Cl
ATOM      9  C   UNL     1      -4.045  12.143  18.561  0.00  0.00    +0.000 A 
ATOM     10  C   UNL     1      -2.704  12.016  18.899  0.00  0.00    +0.000 A 
ENDROOT
BRANCH   1  14
ATOM     11  N   UNL     1      -3.459  14.797  23.155  0.00  0.00    +0.000 NA
ATOM     12  C   UNL     1      -2.041  14.835  22.749  0.00  0.00    +0.000 C 
ATOM     13  C   UNL     1      -1.435  13.524  22.184  0.00  0.00    +0.000 C 
ATOM     14  N   UNL     1      -2.251  12.741  21.239  0.00  0.00    +0.000 NA
ATOM     15  C   UNL     1      -3.674  12.800  21.628  0.00  0.00    +0.000 C 
ATOM     16  C   UNL     1      -4.285  14.168  22.084  0.00  0.00    +0.000 C 
ATOM     17  C   UNL     1      -5.761  13.929  22.494  0.00  0.00    +0.000 C 
ATOM     18  C   UNL     1      -4.375  15.176  20.905  0.00  0.00    +0.000 C 
BRANCH  11  20
ATOM     19  C   UNL     1      -3.759  12.866  24.847  0.00  0.00    +0.000 C 
ATOM     20  C   UNL     1      -3.705  14.368  24.550  0.00  0.00    +0.000 C 
ATOM     21  C   UNL     1      -2.672  15.005  25.496  0.00  0.00    +0.000 C 
ENDBRANCH  11  20
ENDBRANCH   1  14
BRANCH   3  22
ATOM     22  C   UNL     1       0.292   9.980  19.321  0.00  0.00    +0.000 A 
ATOM     23  C   UNL     1       1.285   9.284  18.611  0.00  0.00    +0.000 A 
ATOM     24  C   UNL     1       1.931   8.186  19.196  0.00  0.00    +0.000 A 
ATOM     25  C   UNL     1       1.593   7.783  20.482  0.00  0.00    +0.000 A 
ATOM     26  F   UNL     1       2.193   6.718  21.023  0.00  0.00    +0.000 F 
ATOM     27  C   UNL     1       0.632   8.469  21.215  0.00  0.00    +0.000 A 
ATOM     28  C   UNL     1      -0.015   9.566  20.634  0.00  0.00    +0.000 A 
ENDBRANCH   3  22
TORSDOF 3
ENDMDL
MODEL 3
REMARK VINA RESULT:      -6.1      0.425      1.006
REMARK  Name = 
REMARK  7 active torsions:
REMARK  status: ('A' for Active; 'I' for Inactive)
REMARK    1  A    between atoms: C_1  and  C_2
REMARK    2  A    between atoms: C_2  and  C_3
REMARK    3  A    between atoms: C_2  and  N_4
REMARK    4  A    between atoms: N_7  and  C_8
REMARK    5  A    between atoms: C_10  and  C_11
REMARK    6  A    between atoms: C_26  and  C_27
REMARK    7  A    between atoms: C_26  and  C_28
REMARK                            x       y       z     vdW  Elec       q    Type
REMARK                         _______ _______ _______ _____ _____    ______ ____
ROOT
ATOM      1  C   UNL     1      -1.804  13.725  22.147  0.00  0.00    +0.000 C 
ATOM      2  C   UNL     1      -1.607  12.261  21.627  0.00  0.00    +0.000 C 
ATOM      3  C   UNL     1      -0.806  12.270  20.300  0.00  0.00    +0.000 C 
ATOM      4  C   UNL     1      -0.444  13.717  20.136  0.00  0.00    +0.000 A 
ATOM      5  C   UNL     1       0.268  14.315  19.104  0.00  0.00    +0.000 A 
ATOM      6  C   UNL     1       0.590  15.674  19.203  0.00  0.00    +0.000 A 
ATOM      7  C   UNL     1       0.287  16.381  20.366  0.00  0.00    +0.000 A 
ATOM      8 CL   UNL     1       0.635  18.067  20.473  0.00  0.00    +0.000 Cl
ATOM      9  C   UNL     1      -0.365  15.761  21.426  0.00  0.00    +0.000 A 
ATOM     10  C   UNL     1      -0.818  14.458  21.262  0.00  0.00    +0.000 A 
ENDROOT
BRANCH   1  14
ATOM     11  N   UNL     1      -5.434  14.252  24.045  0.00  0.00    +0.000 NA
ATOM     12  C   UNL     1      -4.999  13.003  23.389  0.00  0.00    +0.000 C 
ATOM     13  C   UNL     1      -4.224  13.143  22.054  0.00  0.00    +0.000 C 
ATOM     14  N   UNL     1      -3.193  14.193  21.964  0.00  0.00    +0.000 NA
ATOM     15  C   UNL     1      -3.627  15.394  22.706  0.00  0.00    +0.000 C 
ATOM     16  C   UNL     1      -4.303  15.222  24.108  0.00  0.00    +0.000 C 
ATOM     17  C   UNL     1      -4.713  16.625  24.625  0.00  0.00    +0.000 C 
ATOM     18  C   UNL     1      -3.295  14.703  25.170  0.00  0.00    +0.000 C 
BRANCH  11  20
ATOM     19  C   UNL     1      -7.056  14.814  22.113  0.00  0.00    +0.000 C 
ATOM     20  C   UNL     1      -6.753  14.765  23.614  0.00  0.00    +0.000 C 
ATOM     21  C   UNL     1      -7.884  13.982  24.304  0.00  0.00    +0.000 C 
ENDBRANCH  11  20
ENDBRANCH   1  14
BRANCH   3  22
ATOM     22  C   UNL     1      -1.487  11.566  19.144  0.00  0.00    +0.000 A 
ATOM     23  C   UNL     1      -2.828  11.814  18.802  0.00  0.00    +0.000 A 
ATOM     24  C   UNL     1      -3.442  11.075  17.782  0.00  0.00    +0.000 A 
ATOM     25  C   UNL     1      -2.728  10.095  17.103  0.00  0.00    +0.000 A 
ATOM     26  F   UNL     1      -3.329   9.375  16.151  0.00  0.00    +0.000 F 
ATOM     27  C   UNL     1      -1.395   9.847  17.406  0.00  0.00    +0.000 A 
ATOM     28  C   UNL     1      -0.777  10.582  18.423  0.00  0.00    +0.000 A 
ENDBRANCH   3  22
TORSDOF 3
ENDMDL
MODEL 4
REMARK VINA RESULT:      -6.0      3.340      5.011
REMARK  Name = 
REMARK  7 active torsions:
REMARK  status: ('A' for Active; 'I' for Inactive)
REMARK    1  A    between atoms: C_1  and  C_2
REMARK    2  A    between atoms: C_2  and  C_3
REMARK    3  A    between atoms: C_2  and  N_4
REMARK    4  A    between atoms: N_7  and  C_8
REMARK    5  A    between atoms: C_10  and  C_11
REMARK    6  A    between atoms: C_26  and  C_27
REMARK    7  A    between atoms: C_26  and  C_28
REMARK                            x       y       z     vdW  Elec       q    Type
REMARK                         _______ _______ _______ _____ _____    ______ ____
ROOT
ATOM      1  C   UNL     1      -3.352  12.932  19.241  0.00  0.00    +0.000 C 
ATOM      2  C   UNL     1      -2.099  13.051  20.173  0.00  0.00    +0.000 C 
ATOM      3  C   UNL     1      -1.098  11.908  19.871  0.00  0.00    +0.000 C 
ATOM      4  C   UNL     1      -1.719  11.221  18.692  0.00  0.00    +0.000 A 
ATOM      5  C   UNL     1      -1.256  10.106  18.003  0.00  0.00    +0.000 A 
ATOM      6  C   UNL     1      -1.939   9.689  16.853  0.00  0.00    +0.000 A 
ATOM      7  C   UNL     1      -3.002  10.446  16.359  0.00  0.00    +0.000 A 
ATOM      8 CL   UNL     1      -3.879   9.910  14.975  0.00  0.00    +0.000 Cl
ATOM      9  C   UNL     1      -3.418  11.600  17.013  0.00  0.00    +0.000 A 
ATOM     10  C   UNL     1      -2.839  11.923  18.234  0.00  0.00    +0.000 A 
ENDROOT
BRANCH   1  14
ATOM     11  N   UNL     1      -6.488  14.103  21.659  0.00  0.00    +0.000 NA
ATOM     12  C   UNL     1      -5.144  13.733  22.142  0.00  0.00    +0.000 C 
ATOM     13  C   UNL     1      -4.448  12.537  21.442  0.00  0.00    +0.000 C 
ATOM     14  N   UNL     1      -4.541  12.452  19.973  0.00  0.00    +0.000 NA
ATOM     15  C   UNL     1      -5.870  12.914  19.522  0.00  0.00    +0.000 C 
ATOM     16  C   UNL     1      -6.493  14.195  20.171  0.00  0.00    +0.000 C 
ATOM     17  C   UNL     1      -7.904  14.410  19.563  0.00  0.00    +0.000 C 
ATOM     18  C   UNL     1      -5.709  15.477  19.774  0.00  0.00    +0.000 C 
BRANCH  11  20
ATOM     19  C   UNL     1      -7.711  11.870  22.105  0.00  0.00    +0.000 C 
ATOM     20  C   UNL     1      -7.610  13.386  22.304  0.00  0.00    +0.000 C 
ATOM     21  C   UNL     1      -7.628  13.671  23.817  0.00  0.00    +0.000 C 
ENDBRANCH  11  20
ENDBRANCH   1  14
BRANCH   3  22
ATOM     22  C   UNL     1      -0.715  11.067  21.072  0.00  0.00    +0.000 A 
ATOM     23  C   UNL     1      -1.395  11.161  22.299  0.00  0.00    +0.000 A 
ATOM     24  C   UNL     1      -0.951  10.429  23.408  0.00  0.00    +0.000 A 
ATOM     25  C   UNL     1       0.163   9.606  23.300  0.00  0.00    +0.000 A 
ATOM     26  F   UNL     1       0.597   8.933  24.370  0.00  0.00    +0.000 F 
ATOM     27  C   UNL     1       0.839   9.477  22.093  0.00  0.00    +0.000 A 
ATOM     28  C   UNL     1       0.399  10.205  20.983  0.00  0.00    +0.000 A 
ENDBRANCH   3  22
TORSDOF 3
ENDMDL
MODEL 5
REMARK VINA RESULT:      -6.0      0.918      1.029
REMARK  Name = 
REMARK  7 active torsions:
REMARK  status: ('A' for Active; 'I' for Inactive)
REMARK    1  A    between atoms: C_1  and  C_2
REMARK    2  A    between atoms: C_2  and  C_3
REMARK    3  A    between atoms: C_2  and  N_4
REMARK    4  A    between atoms: N_7  and  C_8
REMARK    5  A    between atoms: C_10  and  C_11
REMARK    6  A    between atoms: C_26  and  C_27
REMARK    7  A    between atoms: C_26  and  C_28
REMARK                            x       y       z     vdW  Elec       q    Type
REMARK                         _______ _______ _______ _____ _____    ______ ____
ROOT
ATOM      1  C   UNL     1      -1.218  14.065  22.433  0.00  0.00    +0.000 C 
ATOM      2  C   UNL     1      -0.878  12.576  22.087  0.00  0.00    +0.000 C 
ATOM      3  C   UNL     1       0.000  12.511  20.812  0.00  0.00    +0.000 C 
ATOM      4  C   UNL     1       0.260  13.957  20.510  0.00  0.00    +0.000 A 
ATOM      5  C   UNL     1       0.988  14.499  19.458  0.00  0.00    +0.000 A 
ATOM      6  C   UNL     1       1.199  15.883  19.423  0.00  0.00    +0.000 A 
ATOM      7  C   UNL     1       0.772  16.682  20.484  0.00  0.00    +0.000 A 
ATOM      8 CL   UNL     1       0.983  18.392  20.423  0.00  0.00    +0.000 Cl
ATOM      9  C   UNL     1       0.105  16.125  21.570  0.00  0.00    +0.000 A 
ATOM     10  C   UNL     1      -0.237  14.780  21.526  0.00  0.00    +0.000 A 
ENDROOT
BRANCH   1  14
ATOM     11  N   UNL     1      -5.047  14.156  23.977  0.00  0.00    +0.000 NA
ATOM     12  C   UNL     1      -4.424  12.981  23.338  0.00  0.00    +0.000 C 
ATOM     13  C   UNL     1      -3.544  13.245  22.088  0.00  0.00    +0.000 C 
ATOM     14  N   UNL     1      -2.625  14.396  22.125  0.00  0.00    +0.000 NA
ATOM     15  C   UNL     1      -3.250  15.521  22.850  0.00  0.00    +0.000 C 
ATOM     16  C   UNL     1      -4.035  15.233  24.174  0.00  0.00    +0.000 C 
ATOM     17  C   UNL     1      -4.636  16.569  24.682  0.00  0.00    +0.000 C 
ATOM     18  C   UNL     1      -3.084  14.784  25.317  0.00  0.00    +0.000 C 
BRANCH  11  20
ATOM     19  C   UNL     1      -6.628  14.319  21.939  0.00  0.00    +0.000 C 
ATOM     20  C   UNL     1      -6.366  14.547  23.431  0.00  0.00    +0.000 C 
ATOM     21  C   UNL     1      -7.496  13.868  24.224  0.00  0.00    +0.000 C 
ENDBRANCH  11  20
ENDBRANCH   1  14
BRANCH   3  22
ATOM     22  C   UNL     1      -0.553  11.635  19.706  0.00  0.00    +0.000 A 
ATOM     23  C   UNL     1       0.202  10.604  19.120  0.00  0.00    +0.000 A 
ATOM     24  C   UNL     1      -0.318   9.877  18.041  0.00  0.00    +0.000 A 
ATOM     25  C   UNL     1      -1.582  10.172  17.546  0.00  0.00    +0.000 A 
ATOM     26  F   UNL     1      -2.059   9.493  16.498  0.00  0.00    +0.000 F 
ATOM     27  C   UNL     1      -2.357  11.171  18.121  0.00  0.00    +0.000 A 
ATOM     28  C   UNL     1      -1.843  11.898  19.200  0.00  0.00    +0.000 A 
ENDBRANCH   3  22
TORSDOF 3
ENDMDL
MODEL 6
REMARK VINA RESULT:      -6.0      4.118      7.372
REMARK  Name = 
REMARK  7 active torsions:
REMARK  status: ('A' for Active; 'I' for Inactive)
REMARK    1  A    between atoms: C_1  and  C_2
REMARK    2  A    between atoms: C_2  and  C_3
REMARK    3  A    between atoms: C_2  and  N_4
REMARK    4  A    between atoms: N_7  and  C_8
REMARK    5  A    between atoms: C_10  and  C_11
REMARK    6  A    between atoms: C_26  and  C_27
REMARK    7  A    between atoms: C_26  and  C_28
REMARK                            x       y       z     vdW  Elec       q    Type
REMARK                         _______ _______ _______ _____ _____    ______ ____
ROOT
ATOM      1  C   UNL     1       0.564  13.684  19.581  0.00  0.00    +0.000 C 
ATOM      2  C   UNL     1       0.385  12.439  18.650  0.00  0.00    +0.000 C 
ATOM      3  C   UNL     1      -0.238  11.263  19.444  0.00  0.00    +0.000 C 
ATOM      4  C   UNL     1      -0.526  11.877  20.782  0.00  0.00    +0.000 A 
ATOM      5  C   UNL     1      -1.079  11.274  21.905  0.00  0.00    +0.000 A 
ATOM      6  C   UNL     1      -1.365  12.064  23.026  0.00  0.00    +0.000 A 
ATOM      7  C   UNL     1      -1.190  13.446  22.969  0.00  0.00    +0.000 A 
ATOM      8 CL   UNL     1      -1.491  14.418  24.361  0.00  0.00    +0.000 Cl
ATOM      9  C   UNL     1      -0.702  14.055  21.818  0.00  0.00    +0.000 A 
ATOM     10  C   UNL     1      -0.275  13.253  20.767  0.00  0.00    +0.000 A 
ENDROOT
BRANCH   1  14
ATOM     11  N   UNL     1       3.970  15.789  18.573  0.00  0.00    +0.000 NA
ATOM     12  C   UNL     1       3.570  14.499  17.979  0.00  0.00    +0.000 C 
ATOM     13  C   UNL     1       2.957  13.444  18.936  0.00  0.00    +0.000 C 
ATOM     14  N   UNL     1       1.980  13.909  19.937  0.00  0.00    +0.000 NA
ATOM     15  C   UNL     1       2.367  15.242  20.442  0.00  0.00    +0.000 C 
ATOM     16  C   UNL     1       2.873  16.324  19.430  0.00  0.00    +0.000 C 
ATOM     17  C   UNL     1       3.270  17.591  20.232  0.00  0.00    +0.000 C 
ATOM     18  C   UNL     1       1.734  16.809  18.492  0.00  0.00    +0.000 C 
BRANCH  11  20
ATOM     19  C   UNL     1       5.632  15.106  20.431  0.00  0.00    +0.000 C 
ATOM     20  C   UNL     1       5.347  15.835  19.115  0.00  0.00    +0.000 C 
ATOM     21  C   UNL     1       6.353  15.334  18.063  0.00  0.00    +0.000 C 
ENDBRANCH  11  20
ENDBRANCH   1  14
BRANCH   3  22
ATOM     22  C   UNL     1       0.562   9.976  19.403  0.00  0.00    +0.000 A 
ATOM     23  C   UNL     1       0.732   9.164  20.538  0.00  0.00    +0.000 A 
ATOM     24  C   UNL     1       1.553   8.030  20.475  0.00  0.00    +0.000 A 
ATOM     25  C   UNL     1       2.200   7.702  19.290  0.00  0.00    +0.000 A 
ATOM     26  F   UNL     1       3.004   6.635  19.247  0.00  0.00    +0.000 F 
ATOM     27  C   UNL     1       2.030   8.475  18.148  0.00  0.00    +0.000 A 
ATOM     28  C   UNL     1       1.211   9.607  18.206  0.00  0.00    +0.000 A 
ENDBRANCH   3  22
TORSDOF 3
ENDMDL
MODEL 7
REMARK VINA RESULT:      -5.8      4.164      7.368
REMARK  Name = 
REMARK  7 active torsions:
REMARK  status: ('A' for Active; 'I' for Inactive)
REMARK    1  A    between atoms: C_1  and  C_2
REMARK    2  A    between atoms: C_2  and  C_3
REMARK    3  A    between atoms: C_2  and  N_4
REMARK    4  A    between atoms: N_7  and  C_8
REMARK    5  A    between atoms: C_10  and  C_11
REMARK    6  A    between atoms: C_26  and  C_27
REMARK    7  A    between atoms: C_26  and  C_28
REMARK                            x       y       z     vdW  Elec       q    Type
REMARK                         _______ _______ _______ _____ _____    ______ ____
ROOT
ATOM      1  C   UNL     1       0.689  13.688  19.623  0.00  0.00    +0.000 C 
ATOM      2  C   UNL     1       0.595  12.450  18.668  0.00  0.00    +0.000 C 
ATOM      3  C   UNL     1      -0.021  11.242  19.420  0.00  0.00    +0.000 C 
ATOM      4  C   UNL     1      -0.388  11.828  20.751  0.00  0.00    +0.000 A 
ATOM      5  C   UNL     1      -0.968  11.191  21.841  0.00  0.00    +0.000 A 
ATOM      6  C   UNL     1      -1.331  11.954  22.958  0.00  0.00    +0.000 A 
ATOM      7  C   UNL     1      -1.202  13.343  22.926  0.00  0.00    +0.000 A 
ATOM      8 CL   UNL     1      -1.597  14.284  24.316  0.00  0.00    +0.000 Cl
ATOM      9  C   UNL     1      -0.684  13.984  21.805  0.00  0.00    +0.000 A 
ATOM     10  C   UNL     1      -0.185  13.212  20.765  0.00  0.00    +0.000 A 
ENDROOT
BRANCH   1  14
ATOM     11  N   UNL     1       3.964  16.122  18.986  0.00  0.00    +0.000 NA
ATOM     12  C   UNL     1       3.664  14.896  18.221  0.00  0.00    +0.000 C 
ATOM     13  C   UNL     1       3.105  13.689  19.018  0.00  0.00    +0.000 C 
ATOM     14  N   UNL     1       2.080  13.957  20.043  0.00  0.00    +0.000 NA
ATOM     15  C   UNL     1       2.366  15.235  20.725  0.00  0.00    +0.000 C 
ATOM     16  C   UNL     1       2.817  16.469  19.874  0.00  0.00    +0.000 C 
ATOM     17  C   UNL     1       3.111  17.645  20.841  0.00  0.00    +0.000 C 
ATOM     18  C   UNL     1       1.666  16.996  18.973  0.00  0.00    +0.000 C 
BRANCH  11  20
ATOM     19  C   UNL     1       6.097  14.877  19.748  0.00  0.00    +0.000 C 
ATOM     20  C   UNL     1       5.324  16.187  19.567  0.00  0.00    +0.000 C 
ATOM     21  C   UNL     1       6.206  17.154  18.757  0.00  0.00    +0.000 C 
ENDBRANCH  11  20
ENDBRANCH   1  14
BRANCH   3  22
ATOM     22  C   UNL     1       0.825   9.985  19.398  0.00  0.00    +0.000 A 
ATOM     23  C   UNL     1       1.467   9.535  18.231  0.00  0.00    +0.000 A 
ATOM     24  C   UNL     1       2.165   8.320  18.236  0.00  0.00    +0.000 A 
ATOM     25  C   UNL     1       2.227   7.556  19.394  0.00  0.00    +0.000 A 
ATOM     26  F   UNL     1       2.871   6.384  19.382  0.00  0.00    +0.000 F 
ATOM     27  C   UNL     1       1.620   7.988  20.566  0.00  0.00    +0.000 A 
ATOM     28  C   UNL     1       0.923   9.201  20.567  0.00  0.00    +0.000 A 
ENDBRANCH   3  22
TORSDOF 3
ENDMDL
MODEL 8
REMARK VINA RESULT:      -5.8      2.521      2.922
REMARK  Name = 
REMARK  7 active torsions:
REMARK  status: ('A' for Active; 'I' for Inactive)
REMARK    1  A    between atoms: C_1  and  C_2
REMARK    2  A    between atoms: C_2  and  C_3
REMARK    3  A    between atoms: C_2  and  N_4
REMARK    4  A    between atoms: N_7  and  C_8
REMARK    5  A    between atoms: C_10  and  C_11
REMARK    6  A    between atoms: C_26  and  C_27
REMARK    7  A    between atoms: C_26  and  C_28
REMARK                            x       y       z     vdW  Elec       q    Type
REMARK                         _______ _______ _______ _____ _____    ______ ____
ROOT
ATOM      1  C   UNL     1      -2.256  14.928  22.054  0.00  0.00    +0.000 C 
ATOM      2  C   UNL     1      -1.482  13.850  22.885  0.00  0.00    +0.000 C 
ATOM      3  C   UNL     1      -0.265  13.327  22.080  0.00  0.00    +0.000 C 
ATOM      4  C   UNL     1      -0.277  14.193  20.855  0.00  0.00    +0.000 A 
ATOM      5  C   UNL     1       0.588  14.157  19.768  0.00  0.00    +0.000 A 
ATOM      6  C   UNL     1       0.464  15.134  18.772  0.00  0.00    +0.000 A 
ATOM      7  C   UNL     1      -0.446  16.180  18.929  0.00  0.00    +0.000 A 
ATOM      8 CL   UNL     1      -0.640  17.356  17.683  0.00  0.00    +0.000 Cl
ATOM      9  C   UNL     1      -1.262  16.250  20.053  0.00  0.00    +0.000 A 
ATOM     10  C   UNL     1      -1.244  15.198  20.959  0.00  0.00    +0.000 A 
ENDROOT
BRANCH   1  14
ATOM     11  N   UNL     1      -6.091  13.812  23.104  0.00  0.00    +0.000 NA
ATOM     12  C   UNL     1      -4.913  12.924  23.147  0.00  0.00    +0.000 C 
ATOM     13  C   UNL     1      -3.892  13.052  21.987  0.00  0.00    +0.000 C 
ATOM     14  N   UNL     1      -3.536  14.407  21.531  0.00  0.00    +0.000 NA
ATOM     15  C   UNL     1      -4.720  15.289  21.586  0.00  0.00    +0.000 C 
ATOM     16  C   UNL     1      -5.668  15.216  22.830  0.00  0.00    +0.000 C 
ATOM     17  C   UNL     1      -6.852  16.190  22.596  0.00  0.00    +0.000 C 
ATOM     18  C   UNL     1      -4.976  15.759  24.110  0.00  0.00    +0.000 C 
BRANCH  11  20
ATOM     19  C   UNL     1      -7.026  12.825  20.906  0.00  0.00    +0.000 C 
ATOM     20  C   UNL     1      -7.250  13.286  22.349  0.00  0.00    +0.000 C 
ATOM     21  C   UNL     1      -7.913  12.132  23.122  0.00  0.00    +0.000 C 
ENDBRANCH  11  20
ENDBRANCH   1  14
BRANCH   3  22
ATOM     22  C   UNL     1      -0.226  11.823  21.896  0.00  0.00    +0.000 A 
ATOM     23  C   UNL     1      -0.715  10.937  22.872  0.00  0.00    +0.000 A 
ATOM     24  C   UNL     1      -0.577   9.554  22.698  0.00  0.00    +0.000 A 
ATOM     25  C   UNL     1       0.042   9.052  21.560  0.00  0.00    +0.000 A 
ATOM     26  F   UNL     1       0.194   7.732  21.415  0.00  0.00    +0.000 F 
ATOM     27  C   UNL     1       0.513   9.905  20.570  0.00  0.00    +0.000 A 
ATOM     28  C   UNL     1       0.377  11.287  20.739  0.00  0.00    +0.000 A 
ENDBRANCH   3  22
TORSDOF 3
ENDMDL
MODEL 9
REMARK VINA RESULT:      -5.8      3.435      5.247
REMARK  Name = 
REMARK  7 active torsions:
REMARK  status: ('A' for Active; 'I' for Inactive)
REMARK    1  A    between atoms: C_1  and  C_2
REMARK    2  A    between atoms: C_2  and  C_3
REMARK    3  A    between atoms: C_2  and  N_4
REMARK    4  A    between atoms: N_7  and  C_8
REMARK    5  A    between atoms: C_10  and  C_11
REMARK    6  A    between atoms: C_26  and  C_27
REMARK    7  A    between atoms: C_26  and  C_28
REMARK                            x       y       z     vdW  Elec       q    Type
REMARK                         _______ _______ _______ _____ _____    ______ ____
ROOT
ATOM      1  C   UNL     1      -1.788  11.853  20.613  0.00  0.00    +0.000 C 
ATOM      2  C   UNL     1      -1.710  12.907  19.458  0.00  0.00    +0.000 C 
ATOM      3  C   UNL     1      -0.416  12.697  18.630  0.00  0.00    +0.000 C 
ATOM      4  C   UNL     1       0.169  11.455  19.234  0.00  0.00    +0.000 A 
ATOM      5  C   UNL     1       1.350  10.806  18.891  0.00  0.00    +0.000 A 
ATOM      6  C   UNL     1       1.658   9.590  19.514  0.00  0.00    +0.000 A 
ATOM      7  C   UNL     1       0.743   8.998  20.384  0.00  0.00    +0.000 A 
ATOM      8 CL   UNL     1       1.139   7.528  21.193  0.00  0.00    +0.000 Cl
ATOM      9  C   UNL     1      -0.469   9.618  20.671  0.00  0.00    +0.000 A 
ATOM     10  C   UNL     1      -0.702  10.893  20.172  0.00  0.00    +0.000 A 
ENDROOT
BRANCH   1  14
ATOM     11  N   UNL     1      -3.261  14.434  23.481  0.00  0.00    +0.000 NA
ATOM     12  C   UNL     1      -2.453  14.841  22.316  0.00  0.00    +0.000 C 
ATOM     13  C   UNL     1      -1.277  13.912  21.917  0.00  0.00    +0.000 C 
ATOM     14  N   UNL     1      -1.514  12.458  21.933  0.00  0.00    +0.000 NA
ATOM     15  C   UNL     1      -2.399  12.101  23.059  0.00  0.00    +0.000 C 
ATOM     16  C   UNL     1      -3.646  12.997  23.364  0.00  0.00    +0.000 C 
ATOM     17  C   UNL     1      -4.351  12.436  24.626  0.00  0.00    +0.000 C 
ATOM     18  C   UNL     1      -4.719  12.885  22.246  0.00  0.00    +0.000 C 
BRANCH  11  20
ATOM     19  C   UNL     1      -1.262  15.172  24.943  0.00  0.00    +0.000 C 
ATOM     20  C   UNL     1      -2.763  14.904  24.792  0.00  0.00    +0.000 C 
ATOM     21  C   UNL     1      -3.519  16.172  25.229  0.00  0.00    +0.000 C 
ENDBRANCH  11  20
ENDBRANCH   1  14
BRANCH   3  22
ATOM     22  C   UNL     1       0.467  13.923  18.512  0.00  0.00    +0.000 A 
ATOM     23  C   UNL     1       1.848  13.829  18.271  0.00  0.00    +0.000 A 
ATOM     24  C   UNL     1       2.640  14.985  18.257  0.00  0.00    +0.000 A 
ATOM     25  C   UNL     1       2.063  16.229  18.481  0.00  0.00    +0.000 A 
ATOM     26  F   UNL     1       2.830  17.323  18.494  0.00  0.00    +0.000 F 
ATOM     27  C   UNL     1       0.696  16.351  18.699  0.00  0.00    +0.000 A 
ATOM     28  C   UNL     1      -0.098  15.200  18.712  0.00  0.00    +0.000 A 
ENDBRANCH   3  22
TORSDOF 3
ENDMDL
