MODEL 1
REMARK VINA RESULT:      -6.5      0.000      0.000
REMARK  Name = 
REMARK  5 active torsions:
REMARK  status: ('A' for Active; 'I' for Inactive)
REMARK    1  A    between atoms: C_1  and  C_2
REMARK    2  A    between atoms: C_2  and  O_3
REMARK    3  A    between atoms: N_5  and  O_6
REMARK    4  A    between atoms: C_11  and  C_12
REMARK    5  A    between atoms: C_11  and  C_13
REMARK                            x       y       z     vdW  Elec       q    Type
REMARK                         _______ _______ _______ _____ _____    ______ ____
ROOT
ATOM      1  C   UNL     1       1.200   3.699  19.476  0.00  0.00    +0.000 C 
ATOM      2  C   UNL     1       2.268   3.782  18.388  0.00  0.00    +0.000 C 
ATOM      3  C   UNL     1       3.398   2.772  18.690  0.00  0.00    +0.000 C 
ATOM      4  N   UNL     1       3.238   1.532  18.328  0.00  0.00    +0.000 NA
ATOM      5  C   UNL     1       4.650   3.352  19.340  0.00  0.00    +0.000 C 
ATOM      6  C   UNL     1       4.800   4.853  19.027  0.00  0.00    +0.000 C 
ATOM      7  C   UNL     1       3.579   5.639  19.580  0.00  0.00    +0.000 C 
ATOM      8  C   UNL     1       2.857   5.206  18.263  0.00  0.00    +0.000 C 
ATOM      9  C   UNL     1       4.312   5.308  17.585  0.00  0.00    +0.000 C 
ATOM     10  C   UNL     1       4.672   4.388  16.410  0.00  0.00    +0.000 C 
ATOM     11  C   UNL     1       4.750   6.731  17.184  0.00  0.00    +0.000 C 
ENDROOT
BRANCH   2  12
ATOM     12  O   UNL     1       1.651   3.460  17.145  0.00  0.00    +0.000 OA
ATOM     13  H   UNL     1       0.875   4.050  17.075  0.00  0.00    +0.000 HD
ENDBRANCH   2  12
BRANCH   4  14
ATOM     14  O   UNL     1       4.387   0.780  18.580  0.00  0.00    +0.000 OA
ATOM     15  H   UNL     1       5.076   1.274  18.096  0.00  0.00    +0.000 HD
ENDBRANCH   4  14
TORSDOF 2
ENDMDL
MODEL 2
REMARK VINA RESULT:      -6.3      1.979      3.042
REMARK  Name = 
REMARK  5 active torsions:
REMARK  status: ('A' for Active; 'I' for Inactive)
REMARK    1  A    between atoms: C_1  and  C_2
REMARK    2  A    between atoms: C_2  and  O_3
REMARK    3  A    between atoms: N_5  and  O_6
REMARK    4  A    between atoms: C_11  and  C_12
REMARK    5  A    between atoms: C_11  and  C_13
REMARK                            x       y       z     vdW  Elec       q    Type
REMARK                         _______ _______ _______ _____ _____    ______ ____
ROOT
ATOM      1  C   UNL     1       3.679   1.120  18.582  0.00  0.00    +0.000 C 
ATOM      2  C   UNL     1       3.919   2.550  19.063  0.00  0.00    +0.000 C 
ATOM      3  C   UNL     1       2.814   2.953  20.066  0.00  0.00    +0.000 C 
ATOM      4  N   UNL     1       2.943   2.596  21.310  0.00  0.00    +0.000 NA
ATOM      5  C   UNL     1       1.685   3.808  19.500  0.00  0.00    +0.000 C 
ATOM      6  C   UNL     1       2.144   4.589  18.253  0.00  0.00    +0.000 C 
ATOM      7  C   UNL     1       2.587   3.602  17.138  0.00  0.00    +0.000 C 
ATOM      8  C   UNL     1       3.957   3.557  17.891  0.00  0.00    +0.000 C 
ATOM      9  C   UNL     1       3.651   5.089  18.271  0.00  0.00    +0.000 C 
ATOM     10  C   UNL     1       4.175   5.666  19.593  0.00  0.00    +0.000 C 
ATOM     11  C   UNL     1       3.994   6.117  17.173  0.00  0.00    +0.000 C 
ENDROOT
BRANCH   2  12
ATOM     12  O   UNL     1       5.191   2.587  19.704  0.00  0.00    +0.000 OA
ATOM     13  H   UNL     1       5.844   2.382  19.006  0.00  0.00    +0.000 HD
ENDBRANCH   2  12
BRANCH   4  14
ATOM     14  O   UNL     1       1.918   3.126  22.097  0.00  0.00    +0.000 OA
ATOM     15  H   UNL     1       1.937   2.554  22.888  0.00  0.00    +0.000 HD
ENDBRANCH   4  14
TORSDOF 2
ENDMDL
MODEL 3
REMARK VINA RESULT:      -6.3      2.880      3.872
REMARK  Name = 
REMARK  5 active torsions:
REMARK  status: ('A' for Active; 'I' for Inactive)
REMARK    1  A    between atoms: C_1  and  C_2
REMARK    2  A    between atoms: C_2  and  O_3
REMARK    3  A    between atoms: N_5  and  O_6
REMARK    4  A    between atoms: C_11  and  C_12
REMARK    5  A    between atoms: C_11  and  C_13
REMARK                            x       y       z     vdW  Elec       q    Type
REMARK                         _______ _______ _______ _____ _____    ______ ____
ROOT
ATOM      1  C   UNL     1       4.055   5.241  19.546  0.00  0.00    +0.000 C 
ATOM      2  C   UNL     1       5.146   4.773  18.585  0.00  0.00    +0.000 C 
ATOM      3  C   UNL     1       6.441   5.579  18.837  0.00  0.00    +0.000 C 
ATOM      4  N   UNL     1       7.233   5.200  19.797  0.00  0.00    +0.000 NA
ATOM      5  C   UNL     1       6.705   6.729  17.870  0.00  0.00    +0.000 C 
ATOM      6  C   UNL     1       5.995   6.501  16.522  0.00  0.00    +0.000 C 
ATOM      7  C   UNL     1       4.458   6.413  16.735  0.00  0.00    +0.000 C 
ATOM      8  C   UNL     1       4.718   4.917  17.107  0.00  0.00    +0.000 C 
ATOM      9  C   UNL     1       5.913   4.992  16.033  0.00  0.00    +0.000 C 
ATOM     10  C   UNL     1       7.168   4.131  16.228  0.00  0.00    +0.000 C 
ATOM     11  C   UNL     1       5.482   4.822  14.562  0.00  0.00    +0.000 C 
ENDROOT
BRANCH   2  12
ATOM     12  O   UNL     1       5.382   3.390  18.833  0.00  0.00    +0.000 OA
ATOM     13  H   UNL     1       5.506   3.312  19.799  0.00  0.00    +0.000 HD
ENDBRANCH   2  12
BRANCH   4  14
ATOM     14  O   UNL     1       8.400   5.968  19.822  0.00  0.00    +0.000 OA
ATOM     15  H   UNL     1       8.064   6.860  20.032  0.00  0.00    +0.000 HD
ENDBRANCH   4  14
TORSDOF 2
ENDMDL
MODEL 4
REMARK VINA RESULT:      -6.3      2.284      3.674
REMARK  Name = 
REMARK  5 active torsions:
REMARK  status: ('A' for Active; 'I' for Inactive)
REMARK    1  A    between atoms: C_1  and  C_2
REMARK    2  A    between atoms: C_2  and  O_3
REMARK    3  A    between atoms: N_5  and  O_6
REMARK    4  A    between atoms: C_11  and  C_12
REMARK    5  A    between atoms: C_11  and  C_13
REMARK                            x       y       z     vdW  Elec       q    Type
REMARK                         _______ _______ _______ _____ _____    ______ ____
ROOT
ATOM      1  C   UNL     1       3.055   6.870  18.252  0.00  0.00    +0.000 C 
ATOM      2  C   UNL     1       3.135   5.549  19.015  0.00  0.00    +0.000 C 
ATOM      3  C   UNL     1       4.338   4.725  18.503  0.00  0.00    +0.000 C 
ATOM      4  N   UNL     1       5.519   4.984  18.984  0.00  0.00    +0.000 NA
ATOM      5  C   UNL     1       4.008   3.616  17.509  0.00  0.00    +0.000 C 
ATOM      6  C   UNL     1       2.551   3.142  17.661  0.00  0.00    +0.000 C 
ATOM      7  C   UNL     1       1.574   4.320  17.389  0.00  0.00    +0.000 C 
ATOM      8  C   UNL     1       1.836   4.721  18.878  0.00  0.00    +0.000 C 
ATOM      9  C   UNL     1       1.979   3.141  19.143  0.00  0.00    +0.000 C 
ATOM     10  C   UNL     1       2.916   2.635  20.248  0.00  0.00    +0.000 C 
ATOM     11  C   UNL     1       0.646   2.383  19.311  0.00  0.00    +0.000 C 
ENDROOT
BRANCH   2  12
ATOM     12  O   UNL     1       3.309   5.852  20.396  0.00  0.00    +0.000 OA
ATOM     13  H   UNL     1       4.226   5.593  20.609  0.00  0.00    +0.000 HD
ENDBRANCH   2  12
BRANCH   4  14
ATOM     14  O   UNL     1       6.471   4.086  18.497  0.00  0.00    +0.000 OA
ATOM     15  H   UNL     1       6.126   3.224  18.800  0.00  0.00    +0.000 HD
ENDBRANCH   4  14
TORSDOF 2
ENDMDL
MODEL 5
REMARK VINA RESULT:      -6.2      2.010      2.617
REMARK  Name = 
REMARK  5 active torsions:
REMARK  status: ('A' for Active; 'I' for Inactive)
REMARK    1  A    between atoms: C_1  and  C_2
REMARK    2  A    between atoms: C_2  and  O_3
REMARK    3  A    between atoms: N_5  and  O_6
REMARK    4  A    between atoms: C_11  and  C_12
REMARK    5  A    between atoms: C_11  and  C_13
REMARK                            x       y       z     vdW  Elec       q    Type
REMARK                         _______ _______ _______ _____ _____    ______ ____
ROOT
ATOM      1  C   UNL     1       0.551   2.150  18.572  0.00  0.00    +0.000 C 
ATOM      2  C   UNL     1       1.996   2.574  18.829  0.00  0.00    +0.000 C 
ATOM      3  C   UNL     1       2.103   3.238  20.221  0.00  0.00    +0.000 C 
ATOM      4  N   UNL     1       2.223   2.474  21.267  0.00  0.00    +0.000 NA
ATOM      5  C   UNL     1       2.123   4.763  20.228  0.00  0.00    +0.000 C 
ATOM      6  C   UNL     1       2.631   5.323  18.886  0.00  0.00    +0.000 C 
ATOM      7  C   UNL     1       1.694   4.874  17.731  0.00  0.00    +0.000 C 
ATOM      8  C   UNL     1       2.516   3.544  17.744  0.00  0.00    +0.000 C 
ATOM      9  C   UNL     1       3.762   4.470  18.168  0.00  0.00    +0.000 C 
ATOM     10  C   UNL     1       4.869   3.895  19.061  0.00  0.00    +0.000 C 
ATOM     11  C   UNL     1       4.464   5.196  17.002  0.00  0.00    +0.000 C 
ENDROOT
BRANCH   2  12
ATOM     12  O   UNL     1       2.808   1.405  18.788  0.00  0.00    +0.000 OA
ATOM     13  H   UNL     1       3.562   1.628  18.207  0.00  0.00    +0.000 HD
ENDBRANCH   2  12
BRANCH   4  14
ATOM     14  O   UNL     1       2.412   3.230  22.426  0.00  0.00    +0.000 OA
ATOM     15  H   UNL     1       3.204   2.819  22.822  0.00  0.00    +0.000 HD
ENDBRANCH   4  14
TORSDOF 2
ENDMDL
MODEL 6
REMARK VINA RESULT:      -6.1      0.996      1.018
REMARK  Name = 
REMARK  5 active torsions:
REMARK  status: ('A' for Active; 'I' for Inactive)
REMARK    1  A    between atoms: C_1  and  C_2
REMARK    2  A    between atoms: C_2  and  O_3
REMARK    3  A    between atoms: N_5  and  O_6
REMARK    4  A    between atoms: C_11  and  C_12
REMARK    5  A    between atoms: C_11  and  C_13
REMARK                            x       y       z     vdW  Elec       q    Type
REMARK                         _______ _______ _______ _____ _____    ______ ____
ROOT
ATOM      1  C   UNL     1       1.562   4.302  19.168  0.00  0.00    +0.000 C 
ATOM      2  C   UNL     1       2.719   4.014  18.213  0.00  0.00    +0.000 C 
ATOM      3  C   UNL     1       3.887   3.369  18.992  0.00  0.00    +0.000 C 
ATOM      4  N   UNL     1       3.855   2.088  19.214  0.00  0.00    +0.000 NA
ATOM      5  C   UNL     1       5.026   4.309  19.378  0.00  0.00    +0.000 C 
ATOM      6  C   UNL     1       5.092   5.525  18.435  0.00  0.00    +0.000 C 
ATOM      7  C   UNL     1       3.769   6.337  18.516  0.00  0.00    +0.000 C 
ATOM      8  C   UNL     1       3.209   5.293  17.495  0.00  0.00    +0.000 C 
ATOM      9  C   UNL     1       4.710   5.243  16.919  0.00  0.00    +0.000 C 
ATOM     10  C   UNL     1       5.246   3.947  16.299  0.00  0.00    +0.000 C 
ATOM     11  C   UNL     1       5.076   6.384  15.948  0.00  0.00    +0.000 C 
ENDROOT
BRANCH   2  12
ATOM     12  O   UNL     1       2.248   3.113  17.215  0.00  0.00    +0.000 OA
ATOM     13  H   UNL     1       1.278   3.234  17.188  0.00  0.00    +0.000 HD
ENDBRANCH   2  12
BRANCH   4  14
ATOM     14  O   UNL     1       5.028   1.653  19.834  0.00  0.00    +0.000 OA
ATOM     15  H   UNL     1       4.911   0.683  19.858  0.00  0.00    +0.000 HD
ENDBRANCH   4  14
TORSDOF 2
ENDMDL
MODEL 7
REMARK VINA RESULT:      -6.1      3.444      4.555
REMARK  Name = 
REMARK  5 active torsions:
REMARK  status: ('A' for Active; 'I' for Inactive)
REMARK    1  A    between atoms: C_1  and  C_2
REMARK    2  A    between atoms: C_2  and  O_3
REMARK    3  A    between atoms: N_5  and  O_6
REMARK    4  A    between atoms: C_11  and  C_12
REMARK    5  A    between atoms: C_11  and  C_13
REMARK                            x       y       z     vdW  Elec       q    Type
REMARK                         _______ _______ _______ _____ _____    ______ ____
ROOT
ATOM      1  C   UNL     1       6.656   4.349  15.434  0.00  0.00    +0.000 C 
ATOM      2  C   UNL     1       5.786   5.426  16.079  0.00  0.00    +0.000 C 
ATOM      3  C   UNL     1       6.571   6.115  17.218  0.00  0.00    +0.000 C 
ATOM      4  N   UNL     1       7.395   7.074  16.913  0.00  0.00    +0.000 NA
ATOM      5  C   UNL     1       6.247   5.637  18.630  0.00  0.00    +0.000 C 
ATOM      6  C   UNL     1       4.833   5.030  18.706  0.00  0.00    +0.000 C 
ATOM      7  C   UNL     1       4.727   3.801  17.761  0.00  0.00    +0.000 C 
ATOM      8  C   UNL     1       4.462   4.847  16.630  0.00  0.00    +0.000 C 
ATOM      9  C   UNL     1       3.740   5.713  17.777  0.00  0.00    +0.000 C 
ATOM     10  C   UNL     1       3.756   7.245  17.700  0.00  0.00    +0.000 C 
ATOM     11  C   UNL     1       2.288   5.300  18.093  0.00  0.00    +0.000 C 
ENDROOT
BRANCH   2  12
ATOM     12  O   UNL     1       5.454   6.379  15.074  0.00  0.00    +0.000 OA
ATOM     13  H   UNL     1       5.639   5.939  14.221  0.00  0.00    +0.000 HD
ENDBRANCH   2  12
BRANCH   4  14
ATOM     14  O   UNL     1       7.940   7.655  18.061  0.00  0.00    +0.000 OA
ATOM     15  H   UNL     1       8.873   7.794  17.807  0.00  0.00    +0.000 HD
ENDBRANCH   4  14
TORSDOF 2
ENDMDL
MODEL 8
REMARK VINA RESULT:      -6.0      3.133      4.489
REMARK  Name = 
REMARK  5 active torsions:
REMARK  status: ('A' for Active; 'I' for Inactive)
REMARK    1  A    between atoms: C_1  and  C_2
REMARK    2  A    between atoms: C_2  and  O_3
REMARK    3  A    between atoms: N_5  and  O_6
REMARK    4  A    between atoms: C_11  and  C_12
REMARK    5  A    between atoms: C_11  and  C_13
REMARK                            x       y       z     vdW  Elec       q    Type
REMARK                         _______ _______ _______ _____ _____    ______ ____
ROOT
ATOM      1  C   UNL     1       7.636   6.373  18.573  0.00  0.00    +0.000 C 
ATOM      2  C   UNL     1       6.684   5.364  17.933  0.00  0.00    +0.000 C 
ATOM      3  C   UNL     1       6.675   5.559  16.400  0.00  0.00    +0.000 C 
ATOM      4  N   UNL     1       7.615   4.999  15.696  0.00  0.00    +0.000 NA
ATOM      5  C   UNL     1       5.498   6.352  15.839  0.00  0.00    +0.000 C 
ATOM      6  C   UNL     1       4.280   6.286  16.778  0.00  0.00    +0.000 C 
ATOM      7  C   UNL     1       4.637   6.896  18.162  0.00  0.00    +0.000 C 
ATOM      8  C   UNL     1       5.247   5.493  18.487  0.00  0.00    +0.000 C 
ATOM      9  C   UNL     1       4.077   4.911  17.548  0.00  0.00    +0.000 C 
ATOM     10  C   UNL     1       4.314   3.625  16.745  0.00  0.00    +0.000 C 
ATOM     11  C   UNL     1       2.703   4.760  18.232  0.00  0.00    +0.000 C 
ENDROOT
BRANCH   2  12
ATOM     12  O   UNL     1       7.154   4.058  18.252  0.00  0.00    +0.000 OA
ATOM     13  H   UNL     1       7.219   4.032  19.227  0.00  0.00    +0.000 HD
ENDBRANCH   2  12
BRANCH   4  14
ATOM     14  O   UNL     1       7.402   5.185  14.328  0.00  0.00    +0.000 OA
ATOM     15  H   UNL     1       7.996   5.931  14.119  0.00  0.00    +0.000 HD
ENDBRANCH   4  14
TORSDOF 2
ENDMDL
MODEL 9
REMARK VINA RESULT:      -6.0      0.955      1.052
REMARK  Name = 
REMARK  5 active torsions:
REMARK  status: ('A' for Active; 'I' for Inactive)
REMARK    1  A    between atoms: C_1  and  C_2
REMARK    2  A    between atoms: C_2  and  O_3
REMARK    3  A    between atoms: N_5  and  O_6
REMARK    4  A    between atoms: C_11  and  C_12
REMARK    5  A    between atoms: C_11  and  C_13
REMARK                            x       y       z     vdW  Elec       q    Type
REMARK                         _______ _______ _______ _____ _____    ______ ____
ROOT
ATOM      1  C   UNL     1       0.848   2.886  19.030  0.00  0.00    +0.000 C 
ATOM      2  C   UNL     1       2.115   3.397  18.347  0.00  0.00    +0.000 C 
ATOM      3  C   UNL     1       3.357   2.928  19.138  0.00  0.00    +0.000 C 
ATOM      4  N   UNL     1       3.817   1.731  18.922  0.00  0.00    +0.000 NA
ATOM      5  C   UNL     1       3.978   3.964  20.071  0.00  0.00    +0.000 C 
ATOM      6  C   UNL     1       3.648   5.398  19.616  0.00  0.00    +0.000 C 
ATOM      7  C   UNL     1       2.111   5.622  19.627  0.00  0.00    +0.000 C 
ATOM      8  C   UNL     1       2.123   4.938  18.221  0.00  0.00    +0.000 C 
ATOM      9  C   UNL     1       3.569   5.620  18.045  0.00  0.00    +0.000 C 
ATOM     10  C   UNL     1       4.640   4.928  17.192  0.00  0.00    +0.000 C 
ATOM     11  C   UNL     1       3.546   7.101  17.612  0.00  0.00    +0.000 C 
ENDROOT
BRANCH   2  12
ATOM     12  O   UNL     1       2.149   2.857  17.029  0.00  0.00    +0.000 OA
ATOM     13  H   UNL     1       2.388   1.915  17.137  0.00  0.00    +0.000 HD
ENDBRANCH   2  12
BRANCH   4  14
ATOM     14  O   UNL     1       4.996   1.506  19.636  0.00  0.00    +0.000 OA
ATOM     15  H   UNL     1       5.670   1.471  18.930  0.00  0.00    +0.000 HD
ENDBRANCH   4  14
TORSDOF 2
ENDMDL
