MODEL 1
REMARK VINA RESULT:      -9.2      0.000      0.000
REMARK  Name = 
REMARK  6 active torsions:
REMARK  status: ('A' for Active; 'I' for Inactive)
REMARK    1  A    between atoms: C_1  and  N_2
REMARK    2  A    between atoms: N_6  and  C_7
REMARK    3  A    between atoms: C_7  and  C_8
REMARK    4  A    between atoms: C_11  and  C_12
REMARK    5  A    between atoms: C_16  and  N_17
REMARK    6  A    between atoms: C_18  and  C_20
REMARK                            x       y       z     vdW  Elec       q    Type
REMARK                         _______ _______ _______ _____ _____    ______ ____
ROOT
ATOM      1  C   UNL     1       2.785   6.116  19.043  0.00  0.00    +0.000 A 
ATOM      2  C   UNL     1       2.780   5.141  20.057  0.00  0.00    +0.000 A 
ATOM      3  C   UNL     1       3.378   3.897  19.867  0.00  0.00    +0.000 A 
ATOM      4  C   UNL     1       3.999   3.601  18.657  0.00  0.00    +0.000 A 
ATOM      5  C   UNL     1       4.022   4.535  17.620  0.00  0.00    +0.000 A 
ATOM      6  C   UNL     1       3.424   5.786  17.827  0.00  0.00    +0.000 A 
ENDROOT
BRANCH   1  10
ATOM      7  C   UNL     1       0.999  10.009  19.661  0.00  0.00    +0.000 A 
ATOM      8  C   UNL     1       1.478   9.635  18.403  0.00  0.00    +0.000 A 
ATOM      9  C   UNL     1       2.047   8.374  18.205  0.00  0.00    +0.000 A 
ATOM     10  C   UNL     1       2.150   7.439  19.251  0.00  0.00    +0.000 A 
ATOM     11  C   UNL     1       1.635   7.821  20.503  0.00  0.00    +0.000 A 
ATOM     12  C   UNL     1       1.073   9.086  20.709  0.00  0.00    +0.000 A 
BRANCH   7  13
ATOM     13  C   UNL     1       0.455  11.401  19.898  0.00  0.00    +0.000 C 
BRANCH  13  19
ATOM     14  C   UNL     1      -3.774  14.702  20.998  0.00  0.00    +0.000 C 
ATOM     15  N   UNL     1      -3.549  13.321  21.422  0.00  0.00    +0.000 NA
ATOM     16  C   UNL     1      -2.626  13.272  22.559  0.00  0.00    +0.000 C 
ATOM     17  C   UNL     1      -1.983  11.912  22.828  0.00  0.00    +0.000 C 
ATOM     18  C   UNL     1      -0.710  11.682  22.005  0.00  0.00    +0.000 C 
ATOM     19  N   UNL     1      -0.869  11.445  20.560  0.00  0.00    +0.000 NA
ATOM     20  C   UNL     1      -1.693  12.465  19.881  0.00  0.00    +0.000 C 
ATOM     21  C   UNL     1      -3.179  12.454  20.296  0.00  0.00    +0.000 C 
ENDBRANCH  13  19
ENDBRANCH   7  13
ENDBRANCH   1  10
BRANCH   5  22
ATOM     22  N   UNL     1       4.633   4.282  16.367  0.00  0.00    +0.000 N 
ATOM     23  C   UNL     1       5.846   4.803  15.964  0.00  0.00    +0.000 C 
ATOM     24  O   UNL     1       6.605   5.479  16.650  0.00  0.00    +0.000 OA
ATOM     25  H   UNL     1       4.208   3.565  15.791  0.00  0.00    +0.000 HD
BRANCH  23  26
ATOM     26  C   UNL     1       6.307   4.481  14.590  0.00  0.00    +0.000 A 
ATOM     27  C   UNL     1       7.385   5.226  14.086  0.00  0.00    +0.000 A 
ATOM     28  C   UNL     1       7.792   5.079  12.762  0.00  0.00    +0.000 A 
ATOM     29  C   UNL     1       7.117   4.187  11.933  0.00  0.00    +0.000 A 
ATOM     30  C   UNL     1       6.051   3.437  12.438  0.00  0.00    +0.000 A 
ATOM     31 CL   UNL     1       5.210   2.359  11.391  0.00  0.00    +0.000 Cl
ATOM     32  C   UNL     1       5.639   3.574  13.766  0.00  0.00    +0.000 A 
ENDBRANCH  23  26
ENDBRANCH   5  22
TORSDOF 5
ENDMDL
MODEL 2
REMARK VINA RESULT:      -9.2      0.993      1.527
REMARK  Name = 
REMARK  6 active torsions:
REMARK  status: ('A' for Active; 'I' for Inactive)
REMARK    1  A    between atoms: C_1  and  N_2
REMARK    2  A    between atoms: N_6  and  C_7
REMARK    3  A    between atoms: C_7  and  C_8
REMARK    4  A    between atoms: C_11  and  C_12
REMARK    5  A    between atoms: C_16  and  N_17
REMARK    6  A    between atoms: C_18  and  C_20
REMARK                            x       y       z     vdW  Elec       q    Type
REMARK                         _______ _______ _______ _____ _____    ______ ____
ROOT
ATOM      1  C   UNL     1       2.895   6.172  18.883  0.00  0.00    +0.000 A 
ATOM      2  C   UNL     1       2.877   5.232  19.928  0.00  0.00    +0.000 A 
ATOM      3  C   UNL     1       3.483   3.985  19.790  0.00  0.00    +0.000 A 
ATOM      4  C   UNL     1       4.126   3.652  18.601  0.00  0.00    +0.000 A 
ATOM      5  C   UNL     1       4.164   4.551  17.534  0.00  0.00    +0.000 A 
ATOM      6  C   UNL     1       3.557   5.805  17.690  0.00  0.00    +0.000 A 
ENDROOT
BRANCH   1  10
ATOM      7  C   UNL     1       0.949  10.013  19.318  0.00  0.00    +0.000 A 
ATOM      8  C   UNL     1       1.102   9.163  20.416  0.00  0.00    +0.000 A 
ATOM      9  C   UNL     1       1.738   7.926  20.273  0.00  0.00    +0.000 A 
ATOM     10  C   UNL     1       2.251   7.499  19.035  0.00  0.00    +0.000 A 
ATOM     11  C   UNL     1       2.116   8.381  17.948  0.00  0.00    +0.000 A 
ATOM     12  C   UNL     1       1.471   9.616  18.083  0.00  0.00    +0.000 A 
BRANCH   7  13
ATOM     13  C   UNL     1       0.191  11.316  19.450  0.00  0.00    +0.000 C 
BRANCH  13  19
ATOM     14  C   UNL     1      -3.394  12.814  23.310  0.00  0.00    +0.000 C 
ATOM     15  N   UNL     1      -1.935  12.891  23.329  0.00  0.00    +0.000 NA
ATOM     16  C   UNL     1      -1.468  14.060  22.579  0.00  0.00    +0.000 C 
ATOM     17  C   UNL     1       0.003  14.034  22.164  0.00  0.00    +0.000 C 
ATOM     18  C   UNL     1       0.233  13.304  20.836  0.00  0.00    +0.000 C 
ATOM     19  N   UNL     1       0.092  11.838  20.832  0.00  0.00    +0.000 NA
ATOM     20  C   UNL     1      -1.180  11.366  21.417  0.00  0.00    +0.000 C 
ATOM     21  C   UNL     1      -1.311  11.621  22.933  0.00  0.00    +0.000 C 
ENDBRANCH  13  19
ENDBRANCH   7  13
ENDBRANCH   1  10
BRANCH   5  22
ATOM     22  N   UNL     1       4.797   4.259  16.302  0.00  0.00    +0.000 N 
ATOM     23  C   UNL     1       5.796   5.022  15.731  0.00  0.00    +0.000 C 
ATOM     24  O   UNL     1       6.338   5.999  16.238  0.00  0.00    +0.000 OA
ATOM     25  H   UNL     1       4.590   3.359  15.886  0.00  0.00    +0.000 HD
BRANCH  23  26
ATOM     26  C   UNL     1       6.305   4.601  14.402  0.00  0.00    +0.000 A 
ATOM     27  C   UNL     1       7.375   5.335  13.864  0.00  0.00    +0.000 A 
ATOM     28  C   UNL     1       7.822   5.090  12.568  0.00  0.00    +0.000 A 
ATOM     29  C   UNL     1       7.197   4.111  11.800  0.00  0.00    +0.000 A 
ATOM     30  C   UNL     1       6.139   3.374  12.339  0.00  0.00    +0.000 A 
ATOM     31 CL   UNL     1       5.360   2.186  11.366  0.00  0.00    +0.000 Cl
ATOM     32  C   UNL     1       5.687   3.608  13.640  0.00  0.00    +0.000 A 
ENDBRANCH  23  26
ENDBRANCH   5  22
TORSDOF 5
ENDMDL
MODEL 3
REMARK VINA RESULT:      -9.1      1.995      2.646
REMARK  Name = 
REMARK  6 active torsions:
REMARK  status: ('A' for Active; 'I' for Inactive)
REMARK    1  A    between atoms: C_1  and  N_2
REMARK    2  A    between atoms: N_6  and  C_7
REMARK    3  A    between atoms: C_7  and  C_8
REMARK    4  A    between atoms: C_11  and  C_12
REMARK    5  A    between atoms: C_16  and  N_17
REMARK    6  A    between atoms: C_18  and  C_20
REMARK                            x       y       z     vdW  Elec       q    Type
REMARK                         _______ _______ _______ _____ _____    ______ ____
ROOT
ATOM      1  C   UNL     1       2.889   6.200  18.895  0.00  0.00    +0.000 A 
ATOM      2  C   UNL     1       2.896   5.279  19.958  0.00  0.00    +0.000 A 
ATOM      3  C   UNL     1       3.531   4.044  19.841  0.00  0.00    +0.000 A 
ATOM      4  C   UNL     1       4.177   3.703  18.656  0.00  0.00    +0.000 A 
ATOM      5  C   UNL     1       4.189   4.582  17.572  0.00  0.00    +0.000 A 
ATOM      6  C   UNL     1       3.554   5.825  17.707  0.00  0.00    +0.000 A 
ENDROOT
BRANCH   1  10
ATOM      7  C   UNL     1       0.987  10.068  19.288  0.00  0.00    +0.000 A 
ATOM      8  C   UNL     1       1.517   9.654  18.063  0.00  0.00    +0.000 A 
ATOM      9  C   UNL     1       2.125   8.401  17.938  0.00  0.00    +0.000 A 
ATOM     10  C   UNL     1       2.215   7.514  19.025  0.00  0.00    +0.000 A 
ATOM     11  C   UNL     1       1.648   7.933  20.243  0.00  0.00    +0.000 A 
ATOM     12  C   UNL     1       1.049   9.191  20.376  0.00  0.00    +0.000 A 
BRANCH   7  13
ATOM     13  C   UNL     1       0.401  11.453  19.448  0.00  0.00    +0.000 C 
BRANCH  13  19
ATOM     14  C   UNL     1       1.009  16.580  21.275  0.00  0.00    +0.000 C 
ATOM     15  N   UNL     1       1.990  15.709  20.631  0.00  0.00    +0.000 NA
ATOM     16  C   UNL     1       1.800  15.701  19.178  0.00  0.00    +0.000 C 
ATOM     17  C   UNL     1       2.458  14.540  18.433  0.00  0.00    +0.000 C 
ATOM     18  C   UNL     1       1.575  13.287  18.384  0.00  0.00    +0.000 C 
ATOM     19  N   UNL     1       1.400  12.530  19.635  0.00  0.00    +0.000 NA
ATOM     20  C   UNL     1       0.973  13.366  20.776  0.00  0.00    +0.000 C 
ATOM     21  C   UNL     1       2.036  14.378  21.249  0.00  0.00    +0.000 C 
ENDBRANCH  13  19
ENDBRANCH   7  13
ENDBRANCH   1  10
BRANCH   5  22
ATOM     22  N   UNL     1       4.824   4.282  16.343  0.00  0.00    +0.000 N 
ATOM     23  C   UNL     1       5.792   5.065  15.745  0.00  0.00    +0.000 C 
ATOM     24  O   UNL     1       6.303   6.072  16.224  0.00  0.00    +0.000 OA
ATOM     25  H   UNL     1       4.646   3.365  15.951  0.00  0.00    +0.000 HD
BRANCH  23  26
ATOM     26  C   UNL     1       6.306   4.628  14.423  0.00  0.00    +0.000 A 
ATOM     27  C   UNL     1       7.397   5.338  13.895  0.00  0.00    +0.000 A 
ATOM     28  C   UNL     1       7.854   5.079  12.605  0.00  0.00    +0.000 A 
ATOM     29  C   UNL     1       7.216   4.110  11.834  0.00  0.00    +0.000 A 
ATOM     30  C   UNL     1       6.138   3.397  12.364  0.00  0.00    +0.000 A 
ATOM     31 CL   UNL     1       5.345   2.222  11.386  0.00  0.00    +0.000 Cl
ATOM     32  C   UNL     1       5.676   3.645  13.658  0.00  0.00    +0.000 A 
ENDBRANCH  23  26
ENDBRANCH   5  22
TORSDOF 5
ENDMDL
MODEL 4
REMARK VINA RESULT:      -9.1      1.761      2.608
REMARK  Name = 
REMARK  6 active torsions:
REMARK  status: ('A' for Active; 'I' for Inactive)
REMARK    1  A    between atoms: C_1  and  N_2
REMARK    2  A    between atoms: N_6  and  C_7
REMARK    3  A    between atoms: C_7  and  C_8
REMARK    4  A    between atoms: C_11  and  C_12
REMARK    5  A    between atoms: C_16  and  N_17
REMARK    6  A    between atoms: C_18  and  C_20
REMARK                            x       y       z     vdW  Elec       q    Type
REMARK                         _______ _______ _______ _____ _____    ______ ____
ROOT
ATOM      1  C   UNL     1       2.889   5.771  19.103  0.00  0.00    +0.000 A 
ATOM      2  C   UNL     1       2.897   4.733  20.052  0.00  0.00    +0.000 A 
ATOM      3  C   UNL     1       3.501   3.507  19.777  0.00  0.00    +0.000 A 
ATOM      4  C   UNL     1       4.113   3.294  18.546  0.00  0.00    +0.000 A 
ATOM      5  C   UNL     1       4.123   4.292  17.571  0.00  0.00    +0.000 A 
ATOM      6  C   UNL     1       3.519   5.524  17.864  0.00  0.00    +0.000 A 
ENDROOT
BRANCH   1  10
ATOM      7  C   UNL     1       0.952   9.546  19.958  0.00  0.00    +0.000 A 
ATOM      8  C   UNL     1       1.097   8.576  20.954  0.00  0.00    +0.000 A 
ATOM      9  C   UNL     1       1.730   7.361  20.676  0.00  0.00    +0.000 A 
ATOM     10  C   UNL     1       2.248   7.075  19.401  0.00  0.00    +0.000 A 
ATOM     11  C   UNL     1       2.121   8.074  18.419  0.00  0.00    +0.000 A 
ATOM     12  C   UNL     1       1.479   9.287  18.689  0.00  0.00    +0.000 A 
BRANCH   7  13
ATOM     13  C   UNL     1       0.198  10.828  20.233  0.00  0.00    +0.000 C 
BRANCH  13  19
ATOM     14  C   UNL     1       2.228  15.836  21.125  0.00  0.00    +0.000 C 
ATOM     15  N   UNL     1       1.940  15.171  19.855  0.00  0.00    +0.000 NA
ATOM     16  C   UNL     1       0.510  15.244  19.545  0.00  0.00    +0.000 C 
ATOM     17  C   UNL     1       0.012  14.252  18.493  0.00  0.00    +0.000 C 
ATOM     18  C   UNL     1      -0.362  12.891  19.090  0.00  0.00    +0.000 C 
ATOM     19  N   UNL     1       0.738  12.024  19.547  0.00  0.00    +0.000 NA
ATOM     20  C   UNL     1       1.680  12.699  20.462  0.00  0.00    +0.000 C 
ATOM     21  C   UNL     1       2.510  13.819  19.800  0.00  0.00    +0.000 C 
ENDBRANCH  13  19
ENDBRANCH   7  13
ENDBRANCH   1  10
BRANCH   5  22
ATOM     22  N   UNL     1       4.725   4.124  16.300  0.00  0.00    +0.000 N 
ATOM     23  C   UNL     1       5.991   4.560  15.966  0.00  0.00    +0.000 C 
ATOM     24  O   UNL     1       6.805   5.068  16.729  0.00  0.00    +0.000 OA
ATOM     25  H   UNL     1       4.238   3.528  15.642  0.00  0.00    +0.000 HD
BRANCH  23  26
ATOM     26  C   UNL     1       6.439   4.353  14.566  0.00  0.00    +0.000 A 
ATOM     27  C   UNL     1       7.429   5.222  14.076  0.00  0.00    +0.000 A 
ATOM     28  C   UNL     1       7.807   5.181  12.736  0.00  0.00    +0.000 A 
ATOM     29  C   UNL     1       7.193   4.273  11.877  0.00  0.00    +0.000 A 
ATOM     30  C   UNL     1       6.217   3.402  12.368  0.00  0.00    +0.000 A 
ATOM     31 CL   UNL     1       5.449   2.304  11.285  0.00  0.00    +0.000 Cl
ATOM     32  C   UNL     1       5.834   3.430  13.711  0.00  0.00    +0.000 A 
ENDBRANCH  23  26
ENDBRANCH   5  22
TORSDOF 5
ENDMDL
MODEL 5
REMARK VINA RESULT:      -9.0      1.960      2.865
REMARK  Name = 
REMARK  6 active torsions:
REMARK  status: ('A' for Active; 'I' for Inactive)
REMARK    1  A    between atoms: C_1  and  N_2
REMARK    2  A    between atoms: N_6  and  C_7
REMARK    3  A    between atoms: C_7  and  C_8
REMARK    4  A    between atoms: C_11  and  C_12
REMARK    5  A    between atoms: C_16  and  N_17
REMARK    6  A    between atoms: C_18  and  C_20
REMARK                            x       y       z     vdW  Elec       q    Type
REMARK                         _______ _______ _______ _____ _____    ______ ____
ROOT
ATOM      1  C   UNL     1       2.920   6.408  18.903  0.00  0.00    +0.000 A 
ATOM      2  C   UNL     1       3.103   5.549  20.001  0.00  0.00    +0.000 A 
ATOM      3  C   UNL     1       3.852   4.379  19.886  0.00  0.00    +0.000 A 
ATOM      4  C   UNL     1       4.438   4.044  18.669  0.00  0.00    +0.000 A 
ATOM      5  C   UNL     1       4.277   4.863  17.551  0.00  0.00    +0.000 A 
ATOM      6  C   UNL     1       3.528   6.041  17.682  0.00  0.00    +0.000 A 
ENDROOT
BRANCH   1  10
ATOM      7  C   UNL     1       0.662  10.081  19.282  0.00  0.00    +0.000 A 
ATOM      8  C   UNL     1       1.153   9.669  18.040  0.00  0.00    +0.000 A 
ATOM      9  C   UNL     1       1.876   8.479  17.920  0.00  0.00    +0.000 A 
ATOM     10  C   UNL     1       2.125   7.653  19.031  0.00  0.00    +0.000 A 
ATOM     11  C   UNL     1       1.597   8.066  20.267  0.00  0.00    +0.000 A 
ATOM     12  C   UNL     1       0.882   9.263  20.394  0.00  0.00    +0.000 A 
BRANCH   7  13
ATOM     13  C   UNL     1      -0.050  11.407  19.430  0.00  0.00    +0.000 C 
BRANCH  13  19
ATOM     14  C   UNL     1       3.822  15.153  20.415  0.00  0.00    +0.000 C 
ATOM     15  N   UNL     1       2.951  15.012  19.249  0.00  0.00    +0.000 NA
ATOM     16  C   UNL     1       1.622  15.563  19.527  0.00  0.00    +0.000 C 
ATOM     17  C   UNL     1       0.510  15.114  18.577  0.00  0.00    +0.000 C 
ATOM     18  C   UNL     1      -0.136  13.790  19.001  0.00  0.00    +0.000 C 
ATOM     19  N   UNL     1       0.657  12.561  18.831  0.00  0.00    +0.000 NA
ATOM     20  C   UNL     1       2.005  12.641  19.427  0.00  0.00    +0.000 C 
ATOM     21  C   UNL     1       2.948  13.640  18.726  0.00  0.00    +0.000 C 
ENDBRANCH  13  19
ENDBRANCH   7  13
ENDBRANCH   1  10
BRANCH   5  22
ATOM     22  N   UNL     1       4.844   4.565  16.288  0.00  0.00    +0.000 N 
ATOM     23  C   UNL     1       6.112   4.937  15.888  0.00  0.00    +0.000 C 
ATOM     24  O   UNL     1       6.956   5.492  16.584  0.00  0.00    +0.000 OA
ATOM     25  H   UNL     1       4.329   3.924  15.698  0.00  0.00    +0.000 HD
BRANCH  23  26
ATOM     26  C   UNL     1       6.522   4.593  14.504  0.00  0.00    +0.000 A 
ATOM     27  C   UNL     1       7.518   5.390  13.914  0.00  0.00    +0.000 A 
ATOM     28  C   UNL     1       7.864   5.218  12.576  0.00  0.00    +0.000 A 
ATOM     29  C   UNL     1       7.210   4.249  11.818  0.00  0.00    +0.000 A 
ATOM     30  C   UNL     1       6.228   3.449  12.408  0.00  0.00    +0.000 A 
ATOM     31 CL   UNL     1       5.412   2.275  11.448  0.00  0.00    +0.000 Cl
ATOM     32  C   UNL     1       5.877   3.610  13.750  0.00  0.00    +0.000 A 
ENDBRANCH  23  26
ENDBRANCH   5  22
TORSDOF 5
ENDMDL
MODEL 6
REMARK VINA RESULT:      -8.9      1.752      2.408
REMARK  Name = 
REMARK  6 active torsions:
REMARK  status: ('A' for Active; 'I' for Inactive)
REMARK    1  A    between atoms: C_1  and  N_2
REMARK    2  A    between atoms: N_6  and  C_7
REMARK    3  A    between atoms: C_7  and  C_8
REMARK    4  A    between atoms: C_11  and  C_12
REMARK    5  A    between atoms: C_16  and  N_17
REMARK    6  A    between atoms: C_18  and  C_20
REMARK                            x       y       z     vdW  Elec       q    Type
REMARK                         _______ _______ _______ _____ _____    ______ ____
ROOT
ATOM      1  C   UNL     1       2.835   6.309  18.926  0.00  0.00    +0.000 A 
ATOM      2  C   UNL     1       2.883   5.369  19.970  0.00  0.00    +0.000 A 
ATOM      3  C   UNL     1       3.519   4.139  19.807  0.00  0.00    +0.000 A 
ATOM      4  C   UNL     1       4.125   3.824  18.594  0.00  0.00    +0.000 A 
ATOM      5  C   UNL     1       4.095   4.724  17.527  0.00  0.00    +0.000 A 
ATOM      6  C   UNL     1       3.460   5.961  17.707  0.00  0.00    +0.000 A 
ENDROOT
BRANCH   1  10
ATOM      7  C   UNL     1       0.799  10.094  19.437  0.00  0.00    +0.000 A 
ATOM      8  C   UNL     1       0.981   9.229  20.519  0.00  0.00    +0.000 A 
ATOM      9  C   UNL     1       1.645   8.011  20.352  0.00  0.00    +0.000 A 
ATOM     10  C   UNL     1       2.160   7.617  19.104  0.00  0.00    +0.000 A 
ATOM     11  C   UNL     1       1.996   8.514  18.033  0.00  0.00    +0.000 A 
ATOM     12  C   UNL     1       1.322   9.730  18.193  0.00  0.00    +0.000 A 
BRANCH   7  13
ATOM     13  C   UNL     1       0.011  11.375  19.596  0.00  0.00    +0.000 C 
BRANCH  13  19
ATOM     14  C   UNL     1      -0.302  16.460  21.607  0.00  0.00    +0.000 C 
ATOM     15  N   UNL     1       0.858  15.753  21.067  0.00  0.00    +0.000 NA
ATOM     16  C   UNL     1       0.843  15.778  19.602  0.00  0.00    +0.000 C 
ATOM     17  C   UNL     1       1.736  14.744  18.915  0.00  0.00    +0.000 C 
ATOM     18  C   UNL     1       1.042  13.390  18.729  0.00  0.00    +0.000 C 
ATOM     19  N   UNL     1       0.825  12.566  19.930  0.00  0.00    +0.000 NA
ATOM     20  C   UNL     1       0.158  13.292  21.030  0.00  0.00    +0.000 C 
ATOM     21  C   UNL     1       1.010  14.416  21.654  0.00  0.00    +0.000 C 
ENDBRANCH  13  19
ENDBRANCH   7  13
ENDBRANCH   1  10
BRANCH   5  22
ATOM     22  N   UNL     1       4.689   4.451  16.271  0.00  0.00    +0.000 N 
ATOM     23  C   UNL     1       6.001   4.727  15.943  0.00  0.00    +0.000 C 
ATOM     24  O   UNL     1       6.859   5.160  16.705  0.00  0.00    +0.000 OA
ATOM     25  H   UNL     1       4.144   3.895  15.622  0.00  0.00    +0.000 HD
BRANCH  23  26
ATOM     26  C   UNL     1       6.439   4.429  14.557  0.00  0.00    +0.000 A 
ATOM     27  C   UNL     1       7.427   5.260  14.005  0.00  0.00    +0.000 A 
ATOM     28  C   UNL     1       7.796   5.132  12.668  0.00  0.00    +0.000 A 
ATOM     29  C   UNL     1       7.173   4.173  11.874  0.00  0.00    +0.000 A 
ATOM     30  C   UNL     1       6.198   3.339  12.426  0.00  0.00    +0.000 A 
ATOM     31 CL   UNL     1       5.419   2.176  11.422  0.00  0.00    +0.000 Cl
ATOM     32  C   UNL     1       5.824   3.455  13.767  0.00  0.00    +0.000 A 
ENDBRANCH  23  26
ENDBRANCH   5  22
TORSDOF 5
ENDMDL
MODEL 7
REMARK VINA RESULT:      -8.7      1.645      2.434
REMARK  Name = 
REMARK  6 active torsions:
REMARK  status: ('A' for Active; 'I' for Inactive)
REMARK    1  A    between atoms: C_1  and  N_2
REMARK    2  A    between atoms: N_6  and  C_7
REMARK    3  A    between atoms: C_7  and  C_8
REMARK    4  A    between atoms: C_11  and  C_12
REMARK    5  A    between atoms: C_16  and  N_17
REMARK    6  A    between atoms: C_18  and  C_20
REMARK                            x       y       z     vdW  Elec       q    Type
REMARK                         _______ _______ _______ _____ _____    ______ ____
ROOT
ATOM      1  C   UNL     1       3.008   6.020  19.012  0.00  0.00    +0.000 A 
ATOM      2  C   UNL     1       3.020   5.091  20.067  0.00  0.00    +0.000 A 
ATOM      3  C   UNL     1       3.675   3.868  19.946  0.00  0.00    +0.000 A 
ATOM      4  C   UNL     1       4.338   3.547  18.764  0.00  0.00    +0.000 A 
ATOM      5  C   UNL     1       4.346   4.435  17.688  0.00  0.00    +0.000 A 
ATOM      6  C   UNL     1       3.690   5.666  17.826  0.00  0.00    +0.000 A 
ENDROOT
BRANCH   1  10
ATOM      7  C   UNL     1       0.910   9.788  19.386  0.00  0.00    +0.000 A 
ATOM      8  C   UNL     1       0.971   8.895  20.459  0.00  0.00    +0.000 A 
ATOM      9  C   UNL     1       1.655   7.682  20.337  0.00  0.00    +0.000 A 
ATOM     10  C   UNL     1       2.311   7.322  19.146  0.00  0.00    +0.000 A 
ATOM     11  C   UNL     1       2.266   8.246  18.087  0.00  0.00    +0.000 A 
ATOM     12  C   UNL     1       1.574   9.457  18.200  0.00  0.00    +0.000 A 
BRANCH   7  13
ATOM     13  C   UNL     1       0.104  11.064  19.487  0.00  0.00    +0.000 C 
BRANCH  13  19
ATOM     14  C   UNL     1      -5.313  10.793  18.729  0.00  0.00    +0.000 C 
ATOM     15  N   UNL     1      -4.255  11.021  17.746  0.00  0.00    +0.000 NA
ATOM     16  C   UNL     1      -3.620   9.756  17.367  0.00  0.00    +0.000 C 
ATOM     17  C   UNL     1      -2.254   9.880  16.690  0.00  0.00    +0.000 C 
ATOM     18  C   UNL     1      -1.099   9.963  17.694  0.00  0.00    +0.000 C 
ATOM     19  N   UNL     1      -0.955  11.211  18.463  0.00  0.00    +0.000 NA
ATOM     20  C   UNL     1      -2.198  11.636  19.137  0.00  0.00    +0.000 C 
ATOM     21  C   UNL     1      -3.322  12.070  18.174  0.00  0.00    +0.000 C 
ENDBRANCH  13  19
ENDBRANCH   7  13
ENDBRANCH   1  10
BRANCH   5  22
ATOM     22  N   UNL     1       4.998   4.156  16.462  0.00  0.00    +0.000 N 
ATOM     23  C   UNL     1       5.612   5.100  15.664  0.00  0.00    +0.000 C 
ATOM     24  O   UNL     1       5.761   6.287  15.935  0.00  0.00    +0.000 OA
ATOM     25  H   UNL     1       5.132   3.179  16.231  0.00  0.00    +0.000 HD
BRANCH  23  26
ATOM     26  C   UNL     1       6.194   4.638  14.379  0.00  0.00    +0.000 A 
ATOM     27  C   UNL     1       7.323   5.325  13.904  0.00  0.00    +0.000 A 
ATOM     28  C   UNL     1       7.848   5.041  12.646  0.00  0.00    +0.000 A 
ATOM     29  C   UNL     1       7.241   4.071  11.853  0.00  0.00    +0.000 A 
ATOM     30  C   UNL     1       6.124   3.380  12.330  0.00  0.00    +0.000 A 
ATOM     31 CL   UNL     1       5.370   2.202  11.324  0.00  0.00    +0.000 Cl
ATOM     32  C   UNL     1       5.593   3.653  13.593  0.00  0.00    +0.000 A 
ENDBRANCH  23  26
ENDBRANCH   5  22
TORSDOF 5
ENDMDL
MODEL 8
REMARK VINA RESULT:      -8.6      4.322     11.086
REMARK  Name = 
REMARK  6 active torsions:
REMARK  status: ('A' for Active; 'I' for Inactive)
REMARK    1  A    between atoms: C_1  and  N_2
REMARK    2  A    between atoms: N_6  and  C_7
REMARK    3  A    between atoms: C_7  and  C_8
REMARK    4  A    between atoms: C_11  and  C_12
REMARK    5  A    between atoms: C_16  and  N_17
REMARK    6  A    between atoms: C_18  and  C_20
REMARK                            x       y       z     vdW  Elec       q    Type
REMARK                         _______ _______ _______ _____ _____    ______ ____
ROOT
ATOM      1  C   UNL     1       0.411   9.637  21.203  0.00  0.00    +0.000 A 
ATOM      2  C   UNL     1      -0.124   9.456  22.490  0.00  0.00    +0.000 A 
ATOM      3  C   UNL     1      -0.799  10.486  23.144  0.00  0.00    +0.000 A 
ATOM      4  C   UNL     1      -0.957  11.720  22.520  0.00  0.00    +0.000 A 
ATOM      5  C   UNL     1      -0.436  11.947  21.246  0.00  0.00    +0.000 A 
ATOM      6  C   UNL     1       0.234  10.900  20.596  0.00  0.00    +0.000 A 
ENDROOT
BRANCH   1  10
ATOM      7  C   UNL     1       2.559   6.446  19.218  0.00  0.00    +0.000 A 
ATOM      8  C   UNL     1       1.959   6.237  20.463  0.00  0.00    +0.000 A 
ATOM      9  C   UNL     1       1.260   7.267  21.098  0.00  0.00    +0.000 A 
ATOM     10  C   UNL     1       1.125   8.538  20.510  0.00  0.00    +0.000 A 
ATOM     11  C   UNL     1       1.708   8.722  19.243  0.00  0.00    +0.000 A 
ATOM     12  C   UNL     1       2.418   7.696  18.608  0.00  0.00    +0.000 A 
BRANCH   7  13
ATOM     13  C   UNL     1       3.383   5.359  18.566  0.00  0.00    +0.000 C 
BRANCH  13  19
ATOM     14  C   UNL     1       7.106   4.752  14.596  0.00  0.00    +0.000 C 
ATOM     15  N   UNL     1       7.213   5.489  15.854  0.00  0.00    +0.000 NA
ATOM     16  C   UNL     1       7.494   4.577  16.965  0.00  0.00    +0.000 C 
ATOM     17  C   UNL     1       7.216   5.134  18.362  0.00  0.00    +0.000 C 
ATOM     18  C   UNL     1       5.759   4.944  18.799  0.00  0.00    +0.000 C 
ATOM     19  N   UNL     1       4.739   5.778  18.142  0.00  0.00    +0.000 NA
ATOM     20  C   UNL     1       4.799   5.734  16.668  0.00  0.00    +0.000 C 
ATOM     21  C   UNL     1       6.066   6.380  16.068  0.00  0.00    +0.000 C 
ENDBRANCH  13  19
ENDBRANCH   7  13
ENDBRANCH   1  10
BRANCH   5  22
ATOM     22  N   UNL     1      -0.561  13.185  20.570  0.00  0.00    +0.000 N 
ATOM     23  C   UNL     1       0.356  14.215  20.638  0.00  0.00    +0.000 C 
ATOM     24  O   UNL     1       1.440  14.180  21.210  0.00  0.00    +0.000 OA
ATOM     25  H   UNL     1      -1.309  13.259  19.891  0.00  0.00    +0.000 HD
BRANCH  23  26
ATOM     26  C   UNL     1       0.033  15.469  19.912  0.00  0.00    +0.000 A 
ATOM     27  C   UNL     1      -1.256  15.998  20.091  0.00  0.00    +0.000 A 
ATOM     28  C   UNL     1      -1.682  17.095  19.345  0.00  0.00    +0.000 A 
ATOM     29  C   UNL     1      -0.821  17.665  18.412  0.00  0.00    +0.000 A 
ATOM     30  C   UNL     1       0.465  17.145  18.242  0.00  0.00    +0.000 A 
ATOM     31 CL   UNL     1       1.507  17.846  17.063  0.00  0.00    +0.000 Cl
ATOM     32  C   UNL     1       0.904  16.050  18.989  0.00  0.00    +0.000 A 
ENDBRANCH  23  26
ENDBRANCH   5  22
TORSDOF 5
ENDMDL
MODEL 9
REMARK VINA RESULT:      -8.5      4.581     11.152
REMARK  Name = 
REMARK  6 active torsions:
REMARK  status: ('A' for Active; 'I' for Inactive)
REMARK    1  A    between atoms: C_1  and  N_2
REMARK    2  A    between atoms: N_6  and  C_7
REMARK    3  A    between atoms: C_7  and  C_8
REMARK    4  A    between atoms: C_11  and  C_12
REMARK    5  A    between atoms: C_16  and  N_17
REMARK    6  A    between atoms: C_18  and  C_20
REMARK                            x       y       z     vdW  Elec       q    Type
REMARK                         _______ _______ _______ _____ _____    ______ ____
ROOT
ATOM      1  C   UNL     1       0.927  10.194  18.839  0.00  0.00    +0.000 A 
ATOM      2  C   UNL     1       1.734  11.325  18.628  0.00  0.00    +0.000 A 
ATOM      3  C   UNL     1       1.181  12.600  18.525  0.00  0.00    +0.000 A 
ATOM      4  C   UNL     1      -0.196  12.771  18.635  0.00  0.00    +0.000 A 
ATOM      5  C   UNL     1      -1.038  11.676  18.837  0.00  0.00    +0.000 A 
ATOM      6  C   UNL     1      -0.467  10.400  18.947  0.00  0.00    +0.000 A 
ENDROOT
BRANCH   1  10
ATOM      7  C   UNL     1       2.595   6.212  19.145  0.00  0.00    +0.000 A 
ATOM      8  C   UNL     1       2.597   6.895  17.926  0.00  0.00    +0.000 A 
ATOM      9  C   UNL     1       2.064   8.184  17.833  0.00  0.00    +0.000 A 
ATOM     10  C   UNL     1       1.520   8.840  18.952  0.00  0.00    +0.000 A 
ATOM     11  C   UNL     1       1.554   8.150  20.177  0.00  0.00    +0.000 A 
ATOM     12  C   UNL     1       2.077   6.855  20.274  0.00  0.00    +0.000 A 
BRANCH   7  13
ATOM     13  C   UNL     1       3.097   4.788  19.233  0.00  0.00    +0.000 C 
BRANCH  13  19
ATOM     14  C   UNL     1       7.609   7.428  17.603  0.00  0.00    +0.000 C 
ATOM     15  N   UNL     1       7.316   5.996  17.568  0.00  0.00    +0.000 NA
ATOM     16  C   UNL     1       6.469   5.669  16.418  0.00  0.00    +0.000 C 
ATOM     17  C   UNL     1       5.751   4.321  16.490  0.00  0.00    +0.000 C 
ATOM     18  C   UNL     1       4.414   4.399  17.237  0.00  0.00    +0.000 C 
ATOM     19  N   UNL     1       4.461   4.577  18.698  0.00  0.00    +0.000 NA
ATOM     20  C   UNL     1       5.309   5.707  19.128  0.00  0.00    +0.000 C 
ATOM     21  C   UNL     1       6.815   5.505  18.857  0.00  0.00    +0.000 C 
ENDBRANCH  13  19
ENDBRANCH   7  13
ENDBRANCH   1  10
BRANCH   5  22
ATOM     22  N   UNL     1      -2.444  11.794  18.948  0.00  0.00    +0.000 N 
ATOM     23  C   UNL     1      -3.336  11.579  17.916  0.00  0.00    +0.000 C 
ATOM     24  O   UNL     1      -3.056  11.173  16.793  0.00  0.00    +0.000 OA
ATOM     25  H   UNL     1      -2.819  11.915  19.881  0.00  0.00    +0.000 HD
BRANCH  23  26
ATOM     26  C   UNL     1      -4.775  11.808  18.195  0.00  0.00    +0.000 A 
ATOM     27  C   UNL     1      -5.572  12.250  17.125  0.00  0.00    +0.000 A 
ATOM     28  C   UNL     1      -6.900  12.615  17.334  0.00  0.00    +0.000 A 
ATOM     29  C   UNL     1      -7.437  12.544  18.617  0.00  0.00    +0.000 A 
ATOM     30  C   UNL     1      -6.647  12.095  19.679  0.00  0.00    +0.000 A 
ATOM     31 CL   UNL     1      -7.319  12.040  21.263  0.00  0.00    +0.000 Cl
ATOM     32  C   UNL     1      -5.316  11.721  19.479  0.00  0.00    +0.000 A 
ENDBRANCH  23  26
ENDBRANCH   5  22
TORSDOF 5
ENDMDL
