MODEL 1
REMARK VINA RESULT:      -8.3      0.000      0.000
REMARK  Name = 
REMARK  5 active torsions:
REMARK  status: ('A' for Active; 'I' for Inactive)
REMARK    1  A    between atoms: C_2  and  O_3
REMARK    2  A    between atoms: C_2  and  C_4
REMARK    3  A    between atoms: C_4  and  N_5
REMARK    4  A    between atoms: C_15  and  C_16
REMARK    5  A    between atoms: N_18  and  C_19
REMARK                            x       y       z     vdW  Elec       q    Type
REMARK                         _______ _______ _______ _____ _____    ______ ____
ROOT
ATOM      1  N   UNL     1       4.271   4.275  18.405  0.00  0.00    +0.000 N 
ATOM      2  C   UNL     1       3.509   5.397  18.624  0.00  0.00    +0.000 A 
ATOM      3  C   UNL     1       3.756   6.277  17.593  0.00  0.00    +0.000 A 
ATOM      4  C   UNL     1       4.678   5.680  16.705  0.00  0.00    +0.000 A 
ATOM      5  C   UNL     1       5.291   6.114  15.513  0.00  0.00    +0.000 A 
ATOM      6  C   UNL     1       6.162   5.257  14.840  0.00  0.00    +0.000 A 
ATOM      7  C   UNL     1       6.428   3.989  15.344  0.00  0.00    +0.000 A 
ATOM      8  C   UNL     1       5.845   3.544  16.537  0.00  0.00    +0.000 A 
ATOM      9  C   UNL     1       4.972   4.412  17.213  0.00  0.00    +0.000 A 
ATOM     10  C   UNL     1       3.164   7.634  17.522  0.00  0.00    +0.000 C 
ATOM     11  C   UNL     1       1.969   7.802  18.491  0.00  0.00    +0.000 C 
ATOM     12  C   UNL     1       2.296   7.182  19.868  0.00  0.00    +0.000 C 
ATOM     13  C   UNL     1       2.565   5.663  19.753  0.00  0.00    +0.000 C 
ENDROOT
BRANCH  11  14
ATOM     14  C   UNL     1       1.646   9.291  18.536  0.00  0.00    +0.000 C 
ATOM     15  O   UNL     1       2.071  10.043  17.657  0.00  0.00    +0.000 OA
ATOM     16  N   UNL     1       0.844   9.698  19.587  0.00  0.00    +0.000 N 
ATOM     17  H   UNL     1       0.739   9.078  20.381  0.00  0.00    +0.000 HD
BRANCH  16  18
ATOM     18  C   UNL     1       0.377  11.023  19.750  0.00  0.00    +0.000 A 
ATOM     19  C   UNL     1      -0.787  11.491  19.128  0.00  0.00    +0.000 A 
ATOM     20  C   UNL     1      -1.156  12.832  19.206  0.00  0.00    +0.000 A 
ATOM     21  C   UNL     1      -0.374  13.719  19.938  0.00  0.00    +0.000 A 
ATOM     22  C   UNL     1       0.749  13.252  20.620  0.00  0.00    +0.000 A 
ATOM     23  C   UNL     1       1.117  11.905  20.540  0.00  0.00    +0.000 A 
ENDBRANCH  16  18
ENDBRANCH  11  14
BRANCH   1  24
ATOM     24  C   UNL     1       4.334   3.105  19.266  0.00  0.00    +0.000 C 
BRANCH  24  26
ATOM     25  O   UNL     1       2.291   1.960  18.787  0.00  0.00    +0.000 OA
ATOM     26  C   UNL     1       3.517   1.922  18.804  0.00  0.00    +0.000 C 
BRANCH  26  27
ATOM     27  O   UNL     1       4.181   0.819  18.397  0.00  0.00    +0.000 OA
ATOM     28  H   UNL     1       3.722   0.254  17.742  0.00  0.00    +0.000 HD
ENDBRANCH  26  27
ENDBRANCH  24  26
ENDBRANCH   1  24
TORSDOF 5
ENDMDL
MODEL 2
REMARK VINA RESULT:      -8.2      2.469      8.890
REMARK  Name = 
REMARK  5 active torsions:
REMARK  status: ('A' for Active; 'I' for Inactive)
REMARK    1  A    between atoms: C_2  and  O_3
REMARK    2  A    between atoms: C_2  and  C_4
REMARK    3  A    between atoms: C_4  and  N_5
REMARK    4  A    between atoms: C_15  and  C_16
REMARK    5  A    between atoms: N_18  and  C_19
REMARK                            x       y       z     vdW  Elec       q    Type
REMARK                         _______ _______ _______ _____ _____    ______ ____
ROOT
ATOM      1  N   UNL     1      -0.096  11.001  19.547  0.00  0.00    +0.000 N 
ATOM      2  C   UNL     1       0.678   9.978  19.053  0.00  0.00    +0.000 A 
ATOM      3  C   UNL     1       0.948   9.120  20.096  0.00  0.00    +0.000 A 
ATOM      4  C   UNL     1       0.312   9.610  21.258  0.00  0.00    +0.000 A 
ATOM      5  C   UNL     1       0.257   9.162  22.592  0.00  0.00    +0.000 A 
ATOM      6  C   UNL     1      -0.496   9.876  23.524  0.00  0.00    +0.000 A 
ATOM      7  C   UNL     1      -1.181  11.023  23.142  0.00  0.00    +0.000 A 
ATOM      8  C   UNL     1      -1.126  11.498  21.825  0.00  0.00    +0.000 A 
ATOM      9  C   UNL     1      -0.362  10.778  20.892  0.00  0.00    +0.000 A 
ATOM     10  C   UNL     1       1.819   7.927  19.964  0.00  0.00    +0.000 C 
ATOM     11  C   UNL     1       2.063   7.543  18.485  0.00  0.00    +0.000 C 
ATOM     12  C   UNL     1       2.357   8.802  17.638  0.00  0.00    +0.000 C 
ATOM     13  C   UNL     1       1.160   9.782  17.651  0.00  0.00    +0.000 C 
ENDROOT
BRANCH  11  14
ATOM     14  C   UNL     1       3.183   6.510  18.479  0.00  0.00    +0.000 C 
ATOM     15  O   UNL     1       3.045   5.444  19.080  0.00  0.00    +0.000 OA
ATOM     16  N   UNL     1       4.306   6.848  17.745  0.00  0.00    +0.000 N 
ATOM     17  H   UNL     1       4.438   7.819  17.486  0.00  0.00    +0.000 HD
BRANCH  16  18
ATOM     18  C   UNL     1       5.412   5.986  17.559  0.00  0.00    +0.000 A 
ATOM     19  C   UNL     1       6.501   5.961  18.439  0.00  0.00    +0.000 A 
ATOM     20  C   UNL     1       7.630   5.191  18.166  0.00  0.00    +0.000 A 
ATOM     21  C   UNL     1       7.668   4.410  17.016  0.00  0.00    +0.000 A 
ATOM     22  C   UNL     1       6.561   4.372  16.168  0.00  0.00    +0.000 A 
ATOM     23  C   UNL     1       5.429   5.146  16.445  0.00  0.00    +0.000 A 
ENDBRANCH  16  18
ENDBRANCH  11  14
BRANCH   1  24
ATOM     24  C   UNL     1      -0.587  12.141  18.789  0.00  0.00    +0.000 C 
BRANCH  24  26
ATOM     25  O   UNL     1      -2.936  11.732  18.613  0.00  0.00    +0.000 OA
ATOM     26  C   UNL     1      -1.871  11.903  18.030  0.00  0.00    +0.000 C 
BRANCH  26  27
ATOM     27  O   UNL     1      -1.812  11.896  16.680  0.00  0.00    +0.000 OA
ATOM     28  H   UNL     1      -2.119  11.079  16.237  0.00  0.00    +0.000 HD
ENDBRANCH  26  27
ENDBRANCH  24  26
ENDBRANCH   1  24
TORSDOF 5
ENDMDL
MODEL 3
REMARK VINA RESULT:      -8.1      1.871      3.345
REMARK  Name = 
REMARK  5 active torsions:
REMARK  status: ('A' for Active; 'I' for Inactive)
REMARK    1  A    between atoms: C_2  and  O_3
REMARK    2  A    between atoms: C_2  and  C_4
REMARK    3  A    between atoms: C_4  and  N_5
REMARK    4  A    between atoms: C_15  and  C_16
REMARK    5  A    between atoms: N_18  and  C_19
REMARK                            x       y       z     vdW  Elec       q    Type
REMARK                         _______ _______ _______ _____ _____    ______ ____
ROOT
ATOM      1  N   UNL     1       4.288   4.336  17.185  0.00  0.00    +0.000 N 
ATOM      2  C   UNL     1       3.916   5.648  17.353  0.00  0.00    +0.000 A 
ATOM      3  C   UNL     1       2.722   5.657  18.041  0.00  0.00    +0.000 A 
ATOM      4  C   UNL     1       2.355   4.322  18.323  0.00  0.00    +0.000 A 
ATOM      5  C   UNL     1       1.249   3.741  18.973  0.00  0.00    +0.000 A 
ATOM      6  C   UNL     1       1.189   2.354  19.114  0.00  0.00    +0.000 A 
ATOM      7  C   UNL     1       2.209   1.553  18.613  0.00  0.00    +0.000 A 
ATOM      8  C   UNL     1       3.309   2.108  17.946  0.00  0.00    +0.000 A 
ATOM      9  C   UNL     1       3.362   3.504  17.803  0.00  0.00    +0.000 A 
ATOM     10  C   UNL     1       1.971   6.897  18.349  0.00  0.00    +0.000 C 
ATOM     11  C   UNL     1       2.838   8.166  18.170  0.00  0.00    +0.000 C 
ATOM     12  C   UNL     1       3.665   8.078  16.867  0.00  0.00    +0.000 C 
ATOM     13  C   UNL     1       4.638   6.875  16.898  0.00  0.00    +0.000 C 
ENDROOT
BRANCH  11  14
ATOM     14  C   UNL     1       1.890   9.358  18.228  0.00  0.00    +0.000 C 
ATOM     15  O   UNL     1       2.132  10.373  17.573  0.00  0.00    +0.000 OA
ATOM     16  N   UNL     1       0.769   9.194  19.022  0.00  0.00    +0.000 N 
ATOM     17  H   UNL     1       0.765   8.442  19.701  0.00  0.00    +0.000 HD
BRANCH  16  18
ATOM     18  C   UNL     1      -0.259  10.159  19.137  0.00  0.00    +0.000 A 
ATOM     19  C   UNL     1      -1.286  10.277  18.193  0.00  0.00    +0.000 A 
ATOM     20  C   UNL     1      -2.214  11.314  18.265  0.00  0.00    +0.000 A 
ATOM     21  C   UNL     1      -2.141  12.232  19.308  0.00  0.00    +0.000 A 
ATOM     22  C   UNL     1      -1.165  12.083  20.294  0.00  0.00    +0.000 A 
ATOM     23  C   UNL     1      -0.235  11.041  20.218  0.00  0.00    +0.000 A 
ENDBRANCH  16  18
ENDBRANCH  11  14
BRANCH   1  24
ATOM     24  C   UNL     1       5.476   3.868  16.487  0.00  0.00    +0.000 C 
BRANCH  24  26
ATOM     25  O   UNL     1       7.709   4.718  16.423  0.00  0.00    +0.000 OA
ATOM     26  C   UNL     1       6.789   4.282  17.107  0.00  0.00    +0.000 C 
BRANCH  26  27
ATOM     27  O   UNL     1       6.917   4.167  18.447  0.00  0.00    +0.000 OA
ATOM     28  H   UNL     1       7.710   3.691  18.768  0.00  0.00    +0.000 HD
ENDBRANCH  26  27
ENDBRANCH  24  26
ENDBRANCH   1  24
TORSDOF 5
ENDMDL
MODEL 4
REMARK VINA RESULT:      -8.0      1.161      1.169
REMARK  Name = 
REMARK  5 active torsions:
REMARK  status: ('A' for Active; 'I' for Inactive)
REMARK    1  A    between atoms: C_2  and  O_3
REMARK    2  A    between atoms: C_2  and  C_4
REMARK    3  A    between atoms: C_4  and  N_5
REMARK    4  A    between atoms: C_15  and  C_16
REMARK    5  A    between atoms: N_18  and  C_19
REMARK                            x       y       z     vdW  Elec       q    Type
REMARK                         _______ _______ _______ _____ _____    ______ ____
ROOT
ATOM      1  N   UNL     1       3.989   4.259  18.595  0.00  0.00    +0.000 N 
ATOM      2  C   UNL     1       3.207   5.304  19.024  0.00  0.00    +0.000 A 
ATOM      3  C   UNL     1       3.412   6.359  18.162  0.00  0.00    +0.000 A 
ATOM      4  C   UNL     1       4.328   5.954  17.165  0.00  0.00    +0.000 A 
ATOM      5  C   UNL     1       4.904   6.608  16.058  0.00  0.00    +0.000 A 
ATOM      6  C   UNL     1       5.779   5.907  15.229  0.00  0.00    +0.000 A 
ATOM      7  C   UNL     1       6.084   4.577  15.494  0.00  0.00    +0.000 A 
ATOM      8  C   UNL     1       5.537   3.912  16.599  0.00  0.00    +0.000 A 
ATOM      9  C   UNL     1       4.661   4.624  17.434  0.00  0.00    +0.000 A 
ATOM     10  C   UNL     1       2.789   7.692  18.344  0.00  0.00    +0.000 C 
ATOM     11  C   UNL     1       1.612   7.654  19.348  0.00  0.00    +0.000 C 
ATOM     12  C   UNL     1       1.983   6.808  20.587  0.00  0.00    +0.000 C 
ATOM     13  C   UNL     1       2.283   5.341  20.198  0.00  0.00    +0.000 C 
ENDROOT
BRANCH  11  14
ATOM     14  C   UNL     1       1.257   9.102  19.663  0.00  0.00    +0.000 C 
ATOM     15  O   UNL     1       1.132   9.468  20.833  0.00  0.00    +0.000 OA
ATOM     16  N   UNL     1       1.125   9.939  18.569  0.00  0.00    +0.000 N 
ATOM     17  H   UNL     1       1.008   9.521  17.654  0.00  0.00    +0.000 HD
BRANCH  16  18
ATOM     18  C   UNL     1       0.877  11.328  18.670  0.00  0.00    +0.000 A 
ATOM     19  C   UNL     1      -0.416  11.854  18.772  0.00  0.00    +0.000 A 
ATOM     20  C   UNL     1      -0.638  13.230  18.746  0.00  0.00    +0.000 A 
ATOM     21  C   UNL     1       0.443  14.099  18.646  0.00  0.00    +0.000 A 
ATOM     22  C   UNL     1       1.741  13.589  18.614  0.00  0.00    +0.000 A 
ATOM     23  C   UNL     1       1.960  12.208  18.641  0.00  0.00    +0.000 A 
ENDBRANCH  16  18
ENDBRANCH  11  14
BRANCH   1  24
ATOM     24  C   UNL     1       4.097   2.957  19.233  0.00  0.00    +0.000 C 
BRANCH  24  26
ATOM     25  O   UNL     1       2.198   1.994  18.146  0.00  0.00    +0.000 OA
ATOM     26  C   UNL     1       3.347   1.841  18.546  0.00  0.00    +0.000 C 
BRANCH  26  27
ATOM     27  O   UNL     1       3.988   0.664  18.374  0.00  0.00    +0.000 OA
ATOM     28  H   UNL     1       4.958   0.712  18.255  0.00  0.00    +0.000 HD
ENDBRANCH  26  27
ENDBRANCH  24  26
ENDBRANCH   1  24
TORSDOF 5
ENDMDL
MODEL 5
REMARK VINA RESULT:      -8.0      2.368      3.846
REMARK  Name = 
REMARK  5 active torsions:
REMARK  status: ('A' for Active; 'I' for Inactive)
REMARK    1  A    between atoms: C_2  and  O_3
REMARK    2  A    between atoms: C_2  and  C_4
REMARK    3  A    between atoms: C_4  and  N_5
REMARK    4  A    between atoms: C_15  and  C_16
REMARK    5  A    between atoms: N_18  and  C_19
REMARK                            x       y       z     vdW  Elec       q    Type
REMARK                         _______ _______ _______ _____ _____    ______ ____
ROOT
ATOM      1  N   UNL     1       3.630   5.350  18.215  0.00  0.00    +0.000 N 
ATOM      2  C   UNL     1       3.019   6.550  18.489  0.00  0.00    +0.000 A 
ATOM      3  C   UNL     1       2.324   6.403  19.670  0.00  0.00    +0.000 A 
ATOM      4  C   UNL     1       2.524   5.089  20.149  0.00  0.00    +0.000 A 
ATOM      5  C   UNL     1       2.054   4.390  21.277  0.00  0.00    +0.000 A 
ATOM      6  C   UNL     1       2.463   3.073  21.486  0.00  0.00    +0.000 A 
ATOM      7  C   UNL     1       3.322   2.454  20.586  0.00  0.00    +0.000 A 
ATOM      8  C   UNL     1       3.788   3.124  19.447  0.00  0.00    +0.000 A 
ATOM      9  C   UNL     1       3.368   4.448  19.239  0.00  0.00    +0.000 A 
ATOM     10  C   UNL     1       1.477   7.471  20.254  0.00  0.00    +0.000 C 
ATOM     11  C   UNL     1       1.764   8.855  19.624  0.00  0.00    +0.000 C 
ATOM     12  C   UNL     1       1.893   8.735  18.088  0.00  0.00    +0.000 C 
ATOM     13  C   UNL     1       3.071   7.813  17.691  0.00  0.00    +0.000 C 
ENDROOT
BRANCH  11  14
ATOM     14  C   UNL     1       0.652   9.788  20.086  0.00  0.00    +0.000 C 
ATOM     15  O   UNL     1      -0.358   9.936  19.396  0.00  0.00    +0.000 OA
ATOM     16  N   UNL     1       0.854  10.401  21.310  0.00  0.00    +0.000 N 
ATOM     17  H   UNL     1       1.792  10.416  21.692  0.00  0.00    +0.000 HD
BRANCH  16  18
ATOM     18  C   UNL     1      -0.100  11.237  21.936  0.00  0.00    +0.000 A 
ATOM     19  C   UNL     1      -1.050  10.745  22.840  0.00  0.00    +0.000 A 
ATOM     20  C   UNL     1      -2.054  11.568  23.347  0.00  0.00    +0.000 A 
ATOM     21  C   UNL     1      -2.100  12.907  22.974  0.00  0.00    +0.000 A 
ATOM     22  C   UNL     1      -1.118  13.425  22.129  0.00  0.00    +0.000 A 
ATOM     23  C   UNL     1      -0.111  12.597  21.622  0.00  0.00    +0.000 A 
ENDBRANCH  16  18
ENDBRANCH  11  14
BRANCH   1  24
ATOM     24  C   UNL     1       4.447   5.056  17.048  0.00  0.00    +0.000 C 
BRANCH  24  26
ATOM     25  O   UNL     1       6.467   6.334  17.104  0.00  0.00    +0.000 OA
ATOM     26  C   UNL     1       5.933   5.238  17.241  0.00  0.00    +0.000 C 
BRANCH  26  27
ATOM     27  O   UNL     1       6.662   4.153  17.584  0.00  0.00    +0.000 OA
ATOM     28  H   UNL     1       6.363   3.663  18.378  0.00  0.00    +0.000 HD
ENDBRANCH  26  27
ENDBRANCH  24  26
ENDBRANCH   1  24
TORSDOF 5
ENDMDL
MODEL 6
REMARK VINA RESULT:      -8.0      1.634      1.922
REMARK  Name = 
REMARK  5 active torsions:
REMARK  status: ('A' for Active; 'I' for Inactive)
REMARK    1  A    between atoms: C_2  and  O_3
REMARK    2  A    between atoms: C_2  and  C_4
REMARK    3  A    between atoms: C_4  and  N_5
REMARK    4  A    between atoms: C_15  and  C_16
REMARK    5  A    between atoms: N_18  and  C_19
REMARK                            x       y       z     vdW  Elec       q    Type
REMARK                         _______ _______ _______ _____ _____    ______ ____
ROOT
ATOM      1  N   UNL     1       3.100   3.973  18.325  0.00  0.00    +0.000 N 
ATOM      2  C   UNL     1       2.484   4.929  19.096  0.00  0.00    +0.000 A 
ATOM      3  C   UNL     1       2.931   6.160  18.668  0.00  0.00    +0.000 A 
ATOM      4  C   UNL     1       3.829   5.964  17.594  0.00  0.00    +0.000 A 
ATOM      5  C   UNL     1       4.587   6.842  16.796  0.00  0.00    +0.000 A 
ATOM      6  C   UNL     1       5.382   6.324  15.773  0.00  0.00    +0.000 A 
ATOM      7  C   UNL     1       5.430   4.953  15.548  0.00  0.00    +0.000 A 
ATOM      8  C   UNL     1       4.699   4.060  16.342  0.00  0.00    +0.000 A 
ATOM      9  C   UNL     1       3.904   4.586  17.373  0.00  0.00    +0.000 A 
ATOM     10  C   UNL     1       2.539   7.437  19.310  0.00  0.00    +0.000 C 
ATOM     11  C   UNL     1       1.306   7.274  20.231  0.00  0.00    +0.000 C 
ATOM     12  C   UNL     1       1.435   5.994  21.089  0.00  0.00    +0.000 C 
ATOM     13  C   UNL     1       1.501   4.726  20.203  0.00  0.00    +0.000 C 
ENDROOT
BRANCH  11  14
ATOM     14  C   UNL     1       1.189   8.559  21.041  0.00  0.00    +0.000 C 
ATOM     15  O   UNL     1       1.766   8.662  22.124  0.00  0.00    +0.000 OA
ATOM     16  N   UNL     1       0.436   9.565  20.462  0.00  0.00    +0.000 N 
ATOM     17  H   UNL     1      -0.189   9.323  19.703  0.00  0.00    +0.000 HD
BRANCH  16  18
ATOM     18  C   UNL     1       0.280  10.853  21.028  0.00  0.00    +0.000 A 
ATOM     19  C   UNL     1      -0.671  11.127  22.018  0.00  0.00    +0.000 A 
ATOM     20  C   UNL     1      -0.886  12.428  22.468  0.00  0.00    +0.000 A 
ATOM     21  C   UNL     1      -0.125  13.471  21.950  0.00  0.00    +0.000 A 
ATOM     22  C   UNL     1       0.874  13.200  21.014  0.00  0.00    +0.000 A 
ATOM     23  C   UNL     1       1.087  11.893  20.564  0.00  0.00    +0.000 A 
ENDBRANCH  16  18
ENDBRANCH  11  14
BRANCH   1  24
ATOM     24  C   UNL     1       2.933   2.534  18.457  0.00  0.00    +0.000 C 
BRANCH  24  26
ATOM     25  O   UNL     1       4.700   2.294  20.051  0.00  0.00    +0.000 OA
ATOM     26  C   UNL     1       4.091   1.810  19.103  0.00  0.00    +0.000 C 
BRANCH  26  27
ATOM     27  O   UNL     1       4.430   0.599  18.608  0.00  0.00    +0.000 OA
ATOM     28  H   UNL     1       5.383   0.451  18.439  0.00  0.00    +0.000 HD
ENDBRANCH  26  27
ENDBRANCH  24  26
ENDBRANCH   1  24
TORSDOF 5
ENDMDL
MODEL 7
REMARK VINA RESULT:      -7.9      2.109      3.811
REMARK  Name = 
REMARK  5 active torsions:
REMARK  status: ('A' for Active; 'I' for Inactive)
REMARK    1  A    between atoms: C_2  and  O_3
REMARK    2  A    between atoms: C_2  and  C_4
REMARK    3  A    between atoms: C_4  and  N_5
REMARK    4  A    between atoms: C_15  and  C_16
REMARK    5  A    between atoms: N_18  and  C_19
REMARK                            x       y       z     vdW  Elec       q    Type
REMARK                         _______ _______ _______ _____ _____    ______ ____
ROOT
ATOM      1  N   UNL     1       4.513   4.650  18.347  0.00  0.00    +0.000 N 
ATOM      2  C   UNL     1       4.028   5.918  18.135  0.00  0.00    +0.000 A 
ATOM      3  C   UNL     1       3.009   6.130  19.037  0.00  0.00    +0.000 A 
ATOM      4  C   UNL     1       2.870   4.975  19.839  0.00  0.00    +0.000 A 
ATOM      5  C   UNL     1       1.999   4.626  20.889  0.00  0.00    +0.000 A 
ATOM      6  C   UNL     1       2.136   3.384  21.508  0.00  0.00    +0.000 A 
ATOM      7  C   UNL     1       3.120   2.495  21.089  0.00  0.00    +0.000 A 
ATOM      8  C   UNL     1       3.985   2.814  20.035  0.00  0.00    +0.000 A 
ATOM      9  C   UNL     1       3.840   4.063  19.411  0.00  0.00    +0.000 A 
ATOM     10  C   UNL     1       2.193   7.368  19.067  0.00  0.00    +0.000 C 
ATOM     11  C   UNL     1       2.846   8.518  18.264  0.00  0.00    +0.000 C 
ATOM     12  C   UNL     1       3.394   7.995  16.916  0.00  0.00    +0.000 C 
ATOM     13  C   UNL     1       4.490   6.924  17.130  0.00  0.00    +0.000 C 
ENDROOT
BRANCH  11  14
ATOM     14  C   UNL     1       1.795   9.612  18.129  0.00  0.00    +0.000 C 
ATOM     15  O   UNL     1       2.062  10.656  17.533  0.00  0.00    +0.000 OA
ATOM     16  N   UNL     1       0.559   9.328  18.684  0.00  0.00    +0.000 N 
ATOM     17  H   UNL     1       0.494   8.568  19.351  0.00  0.00    +0.000 HD
BRANCH  16  18
ATOM     18  C   UNL     1      -0.560  10.188  18.589  0.00  0.00    +0.000 A 
ATOM     19  C   UNL     1      -0.832  11.173  19.545  0.00  0.00    +0.000 A 
ATOM     20  C   UNL     1      -2.006  11.923  19.492  0.00  0.00    +0.000 A 
ATOM     21  C   UNL     1      -2.911  11.711  18.457  0.00  0.00    +0.000 A 
ATOM     22  C   UNL     1      -2.617  10.781  17.459  0.00  0.00    +0.000 A 
ATOM     23  C   UNL     1      -1.438  10.031  17.515  0.00  0.00    +0.000 A 
ENDBRANCH  16  18
ENDBRANCH  11  14
BRANCH   1  24
ATOM     24  C   UNL     1       5.580   4.008  17.595  0.00  0.00    +0.000 C 
BRANCH  24  26
ATOM     25  O   UNL     1       7.857   4.487  17.046  0.00  0.00    +0.000 OA
ATOM     26  C   UNL     1       6.971   4.514  17.894  0.00  0.00    +0.000 C 
BRANCH  26  27
ATOM     27  O   UNL     1       7.209   5.011  19.127  0.00  0.00    +0.000 OA
ATOM     28  H   UNL     1       6.427   5.323  19.627  0.00  0.00    +0.000 HD
ENDBRANCH  26  27
ENDBRANCH  24  26
ENDBRANCH   1  24
TORSDOF 5
ENDMDL
MODEL 8
REMARK VINA RESULT:      -7.9      1.677      2.197
REMARK  Name = 
REMARK  5 active torsions:
REMARK  status: ('A' for Active; 'I' for Inactive)
REMARK    1  A    between atoms: C_2  and  O_3
REMARK    2  A    between atoms: C_2  and  C_4
REMARK    3  A    between atoms: C_4  and  N_5
REMARK    4  A    between atoms: C_15  and  C_16
REMARK    5  A    between atoms: N_18  and  C_19
REMARK                            x       y       z     vdW  Elec       q    Type
REMARK                         _______ _______ _______ _____ _____    ______ ____
ROOT
ATOM      1  N   UNL     1       3.076   4.898  19.134  0.00  0.00    +0.000 N 
ATOM      2  C   UNL     1       2.459   6.087  19.439  0.00  0.00    +0.000 A 
ATOM      3  C   UNL     1       2.878   7.022  18.519  0.00  0.00    +0.000 A 
ATOM      4  C   UNL     1       3.760   6.395  17.611  0.00  0.00    +0.000 A 
ATOM      5  C   UNL     1       4.491   6.855  16.498  0.00  0.00    +0.000 A 
ATOM      6  C   UNL     1       5.276   5.958  15.775  0.00  0.00    +0.000 A 
ATOM      7  C   UNL     1       5.341   4.621  16.152  0.00  0.00    +0.000 A 
ATOM      8  C   UNL     1       4.639   4.145  17.266  0.00  0.00    +0.000 A 
ATOM      9  C   UNL     1       3.854   5.054  17.994  0.00  0.00    +0.000 A 
ATOM     10  C   UNL     1       2.477   8.449  18.567  0.00  0.00    +0.000 C 
ATOM     11  C   UNL     1       1.264   8.684  19.497  0.00  0.00    +0.000 C 
ATOM     12  C   UNL     1       1.428   7.891  20.814  0.00  0.00    +0.000 C 
ATOM     13  C   UNL     1       1.498   6.367  20.550  0.00  0.00    +0.000 C 
ENDROOT
BRANCH  11  14
ATOM     14  C   UNL     1       1.140  10.191  19.687  0.00  0.00    +0.000 C 
ATOM     15  O   UNL     1       1.016  10.663  20.818  0.00  0.00    +0.000 OA
ATOM     16  N   UNL     1       1.209  10.948  18.531  0.00  0.00    +0.000 N 
ATOM     17  H   UNL     1       1.073  10.483  17.642  0.00  0.00    +0.000 HD
BRANCH  16  18
ATOM     18  C   UNL     1       1.192  12.362  18.518  0.00  0.00    +0.000 A 
ATOM     19  C   UNL     1       2.364  13.127  18.465  0.00  0.00    +0.000 A 
ATOM     20  C   UNL     1       2.324  14.515  18.577  0.00  0.00    +0.000 A 
ATOM     21  C   UNL     1       1.098  15.159  18.714  0.00  0.00    +0.000 A 
ATOM     22  C   UNL     1      -0.081  14.414  18.697  0.00  0.00    +0.000 A 
ATOM     23  C   UNL     1      -0.037  13.020  18.585  0.00  0.00    +0.000 A 
ENDBRANCH  16  18
ENDBRANCH  11  14
BRANCH   1  24
ATOM     24  C   UNL     1       2.934   3.651  19.869  0.00  0.00    +0.000 C 
BRANCH  24  26
ATOM     25  O   UNL     1       1.560   2.182  18.575  0.00  0.00    +0.000 OA
ATOM     26  C   UNL     1       1.670   2.876  19.581  0.00  0.00    +0.000 C 
BRANCH  26  27
ATOM     27  O   UNL     1       0.662   2.960  20.476  0.00  0.00    +0.000 OA
ATOM     28  H   UNL     1      -0.236   2.769  20.138  0.00  0.00    +0.000 HD
ENDBRANCH  26  27
ENDBRANCH  24  26
ENDBRANCH   1  24
TORSDOF 5
ENDMDL
MODEL 9
REMARK VINA RESULT:      -7.8      2.065      3.634
REMARK  Name = 
REMARK  5 active torsions:
REMARK  status: ('A' for Active; 'I' for Inactive)
REMARK    1  A    between atoms: C_2  and  O_3
REMARK    2  A    between atoms: C_2  and  C_4
REMARK    3  A    between atoms: C_4  and  N_5
REMARK    4  A    between atoms: C_15  and  C_16
REMARK    5  A    between atoms: N_18  and  C_19
REMARK                            x       y       z     vdW  Elec       q    Type
REMARK                         _______ _______ _______ _____ _____    ______ ____
ROOT
ATOM      1  N   UNL     1       4.447   4.611  18.433  0.00  0.00    +0.000 N 
ATOM      2  C   UNL     1       3.935   5.875  18.266  0.00  0.00    +0.000 A 
ATOM      3  C   UNL     1       2.930   6.043  19.194  0.00  0.00    +0.000 A 
ATOM      4  C   UNL     1       2.829   4.864  19.965  0.00  0.00    +0.000 A 
ATOM      5  C   UNL     1       1.986   4.470  21.022  0.00  0.00    +0.000 A 
ATOM      6  C   UNL     1       2.158   3.214  21.604  0.00  0.00    +0.000 A 
ATOM      7  C   UNL     1       3.150   2.356  21.141  0.00  0.00    +0.000 A 
ATOM      8  C   UNL     1       3.988   2.720  20.079  0.00  0.00    +0.000 A 
ATOM      9  C   UNL     1       3.806   3.983  19.494  0.00  0.00    +0.000 A 
ATOM     10  C   UNL     1       2.093   7.263  19.274  0.00  0.00    +0.000 C 
ATOM     11  C   UNL     1       2.708   8.447  18.491  0.00  0.00    +0.000 C 
ATOM     12  C   UNL     1       3.238   7.973  17.118  0.00  0.00    +0.000 C 
ATOM     13  C   UNL     1       4.358   6.917  17.281  0.00  0.00    +0.000 C 
ENDROOT
BRANCH  11  14
ATOM     14  C   UNL     1       1.634   9.525  18.407  0.00  0.00    +0.000 C 
ATOM     15  O   UNL     1       1.704  10.403  17.546  0.00  0.00    +0.000 OA
ATOM     16  N   UNL     1       0.602   9.415  19.323  0.00  0.00    +0.000 N 
ATOM     17  H   UNL     1       0.738   8.822  20.132  0.00  0.00    +0.000 HD
BRANCH  16  18
ATOM     18  C   UNL     1      -0.521  10.275  19.346  0.00  0.00    +0.000 A 
ATOM     19  C   UNL     1      -1.507  10.249  18.352  0.00  0.00    +0.000 A 
ATOM     20  C   UNL     1      -2.535  11.189  18.335  0.00  0.00    +0.000 A 
ATOM     21  C   UNL     1      -2.605  12.152  19.336  0.00  0.00    +0.000 A 
ATOM     22  C   UNL     1      -1.669  12.144  20.370  0.00  0.00    +0.000 A 
ATOM     23  C   UNL     1      -0.637  11.200  20.385  0.00  0.00    +0.000 A 
ENDBRANCH  16  18
ENDBRANCH  11  14
BRANCH   1  24
ATOM     24  C   UNL     1       5.511   4.010  17.643  0.00  0.00    +0.000 C 
BRANCH  24  26
ATOM     25  O   UNL     1       7.741   4.623  17.038  0.00  0.00    +0.000 OA
ATOM     26  C   UNL     1       6.897   4.539  17.924  0.00  0.00    +0.000 C 
BRANCH  26  27
ATOM     27  O   UNL     1       7.178   4.930  19.186  0.00  0.00    +0.000 OA
ATOM     28  H   UNL     1       7.161   5.894  19.355  0.00  0.00    +0.000 HD
ENDBRANCH  26  27
ENDBRANCH  24  26
ENDBRANCH   1  24
TORSDOF 5
ENDMDL
