MODEL 1
REMARK VINA RESULT:      -8.2      0.000      0.000
REMARK  Name = 
REMARK  6 active torsions:
REMARK  status: ('A' for Active; 'I' for Inactive)
REMARK    1  A    between atoms: C_1  and  C_2
REMARK    2  A    between atoms: C_3  and  N_4
REMARK    3  A    between atoms: C_12  and  C_13
REMARK    4  A    between atoms: N_16  and  C_17
REMARK    5  A    between atoms: C_17  and  C_18
REMARK    6  A    between atoms: N_29  and  C_30
REMARK                            x       y       z     vdW  Elec       q    Type
REMARK                         _______ _______ _______ _____ _____    ______ ____
ROOT
ATOM      1  N   UNL     1       2.118   6.711  19.846  0.00  0.00    +0.000 N 
ATOM      2  C   UNL     1       1.535   7.870  20.341  0.00  0.00    +0.000 A 
ATOM      3  N   UNL     1       1.034   7.725  21.575  0.00  0.00    +0.000 NA
ATOM      4  C   UNL     1       0.378   8.776  22.080  0.00  0.00    +0.000 A 
ATOM      5  C   UNL     1       0.160   9.939  21.378  0.00  0.00    +0.000 A 
ATOM      6  C   UNL     1      -0.651  10.957  21.877  0.00  0.00    +0.000 A 
ATOM      7  C   UNL     1      -0.924  12.092  21.109  0.00  0.00    +0.000 A 
ATOM      8 CL   UNL     1      -2.220  13.031  21.754  0.00  0.00    +0.000 Cl
ATOM      9  C   UNL     1      -0.262  12.304  19.889  0.00  0.00    +0.000 A 
ATOM     10  C   UNL     1       0.523  11.212  19.405  0.00  0.00    +0.000 A 
ATOM     11  C   UNL     1       0.734  10.025  20.117  0.00  0.00    +0.000 A 
ATOM     12  N   UNL     1       1.440   8.997  19.609  0.00  0.00    +0.000 NA
ATOM     13  H   UNL     1       1.893   5.963  20.487  0.00  0.00    +0.000 HD
ENDROOT
BRANCH   1  16
ATOM     14  C   UNL     1       3.707   4.098  19.367  0.00  0.00    +0.000 C 
ATOM     15  C   UNL     1       3.731   5.387  18.636  0.00  0.00    +0.000 A 
ATOM     16  C   UNL     1       2.978   6.527  18.836  0.00  0.00    +0.000 A 
ATOM     17  C   UNL     1       3.354   7.423  17.825  0.00  0.00    +0.000 A 
ATOM     18  N   UNL     1       4.308   6.914  17.050  0.00  0.00    +0.000 NA
ATOM     19  N   UNL     1       4.528   5.674  17.553  0.00  0.00    +0.000 N 
BRANCH  19  20
ATOM     20  C   UNL     1       5.594   4.939  16.934  0.00  0.00    +0.000 C 
ATOM     21  C   UNL     1       5.910   5.341  15.507  0.00  0.00    +0.000 C 
ATOM     22  C   UNL     1       7.082   4.416  15.256  0.00  0.00    +0.000 C 
ATOM     23  O   UNL     1       7.833   4.381  16.486  0.00  0.00    +0.000 OA
ATOM     24  C   UNL     1       6.992   4.934  17.527  0.00  0.00    +0.000 C 
ENDBRANCH  19  20
ENDBRANCH   1  16
BRANCH   9  25
ATOM     25  C   UNL     1      -0.309  13.559  18.999  0.00  0.00    +0.000 C 
ATOM     26  C   UNL     1       1.001  13.770  18.199  0.00  0.00    +0.000 C 
ATOM     27  C   UNL     1       2.146  14.239  19.102  0.00  0.00    +0.000 C 
ATOM     28  N   UNL     1       1.851  15.484  19.824  0.00  0.00    +0.000 NA
ATOM     29  C   UNL     1       0.523  15.519  20.447  0.00  0.00    +0.000 C 
ATOM     30  C   UNL     1      -0.620  14.937  19.601  0.00  0.00    +0.000 C 
BRANCH  28  31
ATOM     31  C   UNL     1       2.919  15.801  20.825  0.00  0.00    +0.000 C 
ATOM     32  C   UNL     1       3.871  16.955  20.531  0.00  0.00    +0.000 C 
ATOM     33  C   UNL     1       2.333  15.789  22.257  0.00  0.00    +0.000 C 
ATOM     34  O   UNL     1       3.385  14.881  22.700  0.00  0.00    +0.000 OA
ATOM     35  C   UNL     1       3.618  14.505  21.312  0.00  0.00    +0.000 C 
ENDBRANCH  28  31
ENDBRANCH   9  25
TORSDOF 4
ENDMDL
MODEL 2
REMARK VINA RESULT:      -8.2      1.074      1.369
REMARK  Name = 
REMARK  6 active torsions:
REMARK  status: ('A' for Active; 'I' for Inactive)
REMARK    1  A    between atoms: C_1  and  C_2
REMARK    2  A    between atoms: C_3  and  N_4
REMARK    3  A    between atoms: C_12  and  C_13
REMARK    4  A    between atoms: N_16  and  C_17
REMARK    5  A    between atoms: C_17  and  C_18
REMARK    6  A    between atoms: N_29  and  C_30
REMARK                            x       y       z     vdW  Elec       q    Type
REMARK                         _______ _______ _______ _____ _____    ______ ____
ROOT
ATOM      1  N   UNL     1       2.009   7.106  20.294  0.00  0.00    +0.000 N 
ATOM      2  C   UNL     1       1.412   8.254  20.797  0.00  0.00    +0.000 A 
ATOM      3  N   UNL     1       1.095   8.162  22.096  0.00  0.00    +0.000 NA
ATOM      4  C   UNL     1       0.436   9.199  22.624  0.00  0.00    +0.000 A 
ATOM      5  C   UNL     1       0.037  10.293  21.892  0.00  0.00    +0.000 A 
ATOM      6  C   UNL     1      -0.773  11.287  22.439  0.00  0.00    +0.000 A 
ATOM      7  C   UNL     1      -1.234  12.345  21.651  0.00  0.00    +0.000 A 
ATOM      8 CL   UNL     1      -2.497  13.238  22.414  0.00  0.00    +0.000 Cl
ATOM      9  C   UNL     1      -0.761  12.516  20.339  0.00  0.00    +0.000 A 
ATOM     10  C   UNL     1       0.031  11.448  19.816  0.00  0.00    +0.000 A 
ATOM     11  C   UNL     1       0.427  10.330  20.560  0.00  0.00    +0.000 A 
ATOM     12  N   UNL     1       1.133   9.319  20.020  0.00  0.00    +0.000 NA
ATOM     13  H   UNL     1       1.930   6.391  21.004  0.00  0.00    +0.000 HD
ENDROOT
BRANCH   1  16
ATOM     14  C   UNL     1       3.665   4.553  19.727  0.00  0.00    +0.000 C 
ATOM     15  C   UNL     1       3.518   5.799  18.940  0.00  0.00    +0.000 A 
ATOM     16  C   UNL     1       2.735   6.910  19.186  0.00  0.00    +0.000 A 
ATOM     17  C   UNL     1       2.921   7.767  18.093  0.00  0.00    +0.000 A 
ATOM     18  N   UNL     1       3.791   7.264  17.219  0.00  0.00    +0.000 NA
ATOM     19  N   UNL     1       4.145   6.067  17.746  0.00  0.00    +0.000 N 
BRANCH  19  20
ATOM     20  C   UNL     1       5.159   5.353  17.023  0.00  0.00    +0.000 C 
ATOM     21  C   UNL     1       5.374   5.810  15.594  0.00  0.00    +0.000 C 
ATOM     22  C   UNL     1       6.519   4.892  15.222  0.00  0.00    +0.000 C 
ATOM     23  O   UNL     1       7.357   4.805  16.393  0.00  0.00    +0.000 OA
ATOM     24  C   UNL     1       6.596   5.319  17.512  0.00  0.00    +0.000 C 
ENDBRANCH  19  20
ENDBRANCH   1  16
BRANCH   9  25
ATOM     25  C   UNL     1      -1.024  13.700  19.391  0.00  0.00    +0.000 C 
ATOM     26  C   UNL     1      -0.102  13.681  18.146  0.00  0.00    +0.000 C 
ATOM     27  C   UNL     1       1.339  14.059  18.503  0.00  0.00    +0.000 C 
ATOM     28  N   UNL     1       1.459  15.380  19.135  0.00  0.00    +0.000 NA
ATOM     29  C   UNL     1       0.476  15.632  20.196  0.00  0.00    +0.000 C 
ATOM     30  C   UNL     1      -0.951  15.146  19.904  0.00  0.00    +0.000 C 
BRANCH  28  31
ATOM     31  C   UNL     1       2.852  15.624  19.629  0.00  0.00    +0.000 C 
ATOM     32  C   UNL     1       3.485  14.593  20.558  0.00  0.00    +0.000 C 
ATOM     33  C   UNL     1       3.758  16.097  18.468  0.00  0.00    +0.000 C 
ATOM     34  O   UNL     1       4.197  17.246  19.254  0.00  0.00    +0.000 OA
ATOM     35  C   UNL     1       3.020  17.093  20.098  0.00  0.00    +0.000 C 
ENDBRANCH  28  31
ENDBRANCH   9  25
TORSDOF 4
ENDMDL
MODEL 3
REMARK VINA RESULT:      -7.7      4.776      7.250
REMARK  Name = 
REMARK  6 active torsions:
REMARK  status: ('A' for Active; 'I' for Inactive)
REMARK    1  A    between atoms: C_1  and  C_2
REMARK    2  A    between atoms: C_3  and  N_4
REMARK    3  A    between atoms: C_12  and  C_13
REMARK    4  A    between atoms: N_16  and  C_17
REMARK    5  A    between atoms: C_17  and  C_18
REMARK    6  A    between atoms: N_29  and  C_30
REMARK                            x       y       z     vdW  Elec       q    Type
REMARK                         _______ _______ _______ _____ _____    ______ ____
ROOT
ATOM      1  N   UNL     1      -0.973  11.580  23.019  0.00  0.00    +0.000 N 
ATOM      2  C   UNL     1      -2.058  12.378  22.683  0.00  0.00    +0.000 A 
ATOM      3  N   UNL     1      -2.209  13.436  23.491  0.00  0.00    +0.000 NA
ATOM      4  C   UNL     1      -3.287  14.199  23.280  0.00  0.00    +0.000 A 
ATOM      5  C   UNL     1      -4.241  13.912  22.331  0.00  0.00    +0.000 A 
ATOM      6  C   UNL     1      -5.424  14.645  22.235  0.00  0.00    +0.000 A 
ATOM      7  C   UNL     1      -6.414  14.282  21.319  0.00  0.00    +0.000 A 
ATOM      8 CL   UNL     1      -7.916  15.077  21.618  0.00  0.00    +0.000 Cl
ATOM      9  C   UNL     1      -6.173  13.276  20.369  0.00  0.00    +0.000 A 
ATOM     10  C   UNL     1      -4.966  12.531  20.540  0.00  0.00    +0.000 A 
ATOM     11  C   UNL     1      -4.001  12.817  21.514  0.00  0.00    +0.000 A 
ATOM     12  N   UNL     1      -2.897  12.063  21.676  0.00  0.00    +0.000 NA
ATOM     13  H   UNL     1      -0.625  11.906  23.910  0.00  0.00    +0.000 HD
ENDROOT
BRANCH   1  16
ATOM     14  C   UNL     1       0.966  12.228  20.695  0.00  0.00    +0.000 C 
ATOM     15  C   UNL     1       0.517  10.925  21.239  0.00  0.00    +0.000 A 
ATOM     16  C   UNL     1      -0.313  10.655  22.310  0.00  0.00    +0.000 A 
ATOM     17  C   UNL     1      -0.351   9.260  22.430  0.00  0.00    +0.000 A 
ATOM     18  N   UNL     1       0.371   8.666  21.483  0.00  0.00    +0.000 NA
ATOM     19  N   UNL     1       0.895   9.690  20.765  0.00  0.00    +0.000 N 
BRANCH  19  20
ATOM     20  C   UNL     1       1.657   9.306  19.612  0.00  0.00    +0.000 C 
ATOM     21  C   UNL     1       1.990   7.831  19.521  0.00  0.00    +0.000 C 
ATOM     22  C   UNL     1       2.708   7.832  18.189  0.00  0.00    +0.000 C 
ATOM     23  O   UNL     1       1.991   8.759  17.349  0.00  0.00    +0.000 OA
ATOM     24  C   UNL     1       1.132   9.548  18.207  0.00  0.00    +0.000 C 
ENDBRANCH  19  20
ENDBRANCH   1  16
BRANCH   9  25
ATOM     25  C   UNL     1      -7.071  12.861  19.189  0.00  0.00    +0.000 C 
ATOM     26  C   UNL     1      -7.173  11.323  19.030  0.00  0.00    +0.000 C 
ATOM     27  C   UNL     1      -5.875  10.724  18.482  0.00  0.00    +0.000 C 
ATOM     28  N   UNL     1      -5.472  11.287  17.186  0.00  0.00    +0.000 NA
ATOM     29  C   UNL     1      -5.552  12.750  17.113  0.00  0.00    +0.000 C 
ATOM     30  C   UNL     1      -6.790  13.378  17.771  0.00  0.00    +0.000 C 
BRANCH  28  31
ATOM     31  C   UNL     1      -4.112  10.806  16.781  0.00  0.00    +0.000 C 
ATOM     32  C   UNL     1      -3.818  10.626  15.295  0.00  0.00    +0.000 C 
ATOM     33  C   UNL     1      -3.018  11.559  17.574  0.00  0.00    +0.000 C 
ATOM     34  O   UNL     1      -2.407  10.294  17.967  0.00  0.00    +0.000 OA
ATOM     35  C   UNL     1      -3.661   9.617  17.669  0.00  0.00    +0.000 C 
ENDBRANCH  28  31
ENDBRANCH   9  25
TORSDOF 4
ENDMDL
MODEL 4
REMARK VINA RESULT:      -7.7      1.074      1.326
REMARK  Name = 
REMARK  6 active torsions:
REMARK  status: ('A' for Active; 'I' for Inactive)
REMARK    1  A    between atoms: C_1  and  C_2
REMARK    2  A    between atoms: C_3  and  N_4
REMARK    3  A    between atoms: C_12  and  C_13
REMARK    4  A    between atoms: N_16  and  C_17
REMARK    5  A    between atoms: C_17  and  C_18
REMARK    6  A    between atoms: N_29  and  C_30
REMARK                            x       y       z     vdW  Elec       q    Type
REMARK                         _______ _______ _______ _____ _____    ______ ____
ROOT
ATOM      1  N   UNL     1       2.598   6.274  19.068  0.00  0.00    +0.000 N 
ATOM      2  C   UNL     1       1.988   7.370  19.664  0.00  0.00    +0.000 A 
ATOM      3  N   UNL     1       1.494   7.106  20.880  0.00  0.00    +0.000 NA
ATOM      4  C   UNL     1       0.815   8.093  21.476  0.00  0.00    +0.000 A 
ATOM      5  C   UNL     1       0.568   9.307  20.879  0.00  0.00    +0.000 A 
ATOM      6  C   UNL     1      -0.265  10.258  21.466  0.00  0.00    +0.000 A 
ATOM      7  C   UNL     1      -0.567  11.449  20.801  0.00  0.00    +0.000 A 
ATOM      8 CL   UNL     1      -1.883  12.297  21.527  0.00  0.00    +0.000 Cl
ATOM      9  C   UNL     1       0.086  11.783  19.603  0.00  0.00    +0.000 A 
ATOM     10  C   UNL     1       0.895  10.756  19.025  0.00  0.00    +0.000 A 
ATOM     11  C   UNL     1       1.136   9.517  19.630  0.00  0.00    +0.000 A 
ATOM     12  N   UNL     1       1.865   8.555  19.033  0.00  0.00    +0.000 NA
ATOM     13  H   UNL     1       2.392   5.467  19.641  0.00  0.00    +0.000 HD
ENDROOT
BRANCH   1  16
ATOM     14  C   UNL     1       3.280   3.662  17.554  0.00  0.00    +0.000 C 
ATOM     15  C   UNL     1       3.811   5.035  17.391  0.00  0.00    +0.000 A 
ATOM     16  C   UNL     1       3.459   6.200  18.045  0.00  0.00    +0.000 A 
ATOM     17  C   UNL     1       4.222   7.219  17.460  0.00  0.00    +0.000 A 
ATOM     18  N   UNL     1       5.037   6.745  16.522  0.00  0.00    +0.000 NA
ATOM     19  N   UNL     1       4.777   5.415  16.489  0.00  0.00    +0.000 N 
BRANCH  19  20
ATOM     20  C   UNL     1       5.604   4.648  15.602  0.00  0.00    +0.000 C 
ATOM     21  C   UNL     1       5.057   4.472  14.200  0.00  0.00    +0.000 C 
ATOM     22  C   UNL     1       6.207   3.699  13.592  0.00  0.00    +0.000 C 
ATOM     23  O   UNL     1       7.410   4.274  14.143  0.00  0.00    +0.000 OA
ATOM     24  C   UNL     1       7.025   5.080  15.282  0.00  0.00    +0.000 C 
ENDBRANCH  19  20
ENDBRANCH   1  16
BRANCH   9  25
ATOM     25  C   UNL     1       0.007  13.110  18.827  0.00  0.00    +0.000 C 
ATOM     26  C   UNL     1       1.360  13.504  18.184  0.00  0.00    +0.000 C 
ATOM     27  C   UNL     1       2.370  13.976  19.234  0.00  0.00    +0.000 C 
ATOM     28  N   UNL     1       1.899  15.117  20.029  0.00  0.00    +0.000 NA
ATOM     29  C   UNL     1       0.521  14.983  20.518  0.00  0.00    +0.000 C 
ATOM     30  C   UNL     1      -0.482  14.393  19.514  0.00  0.00    +0.000 C 
BRANCH  28  31
ATOM     31  C   UNL     1       2.837  15.422  21.156  0.00  0.00    +0.000 C 
ATOM     32  C   UNL     1       2.276  16.088  22.408  0.00  0.00    +0.000 C 
ATOM     33  C   UNL     1       3.767  14.215  21.422  0.00  0.00    +0.000 C 
ATOM     34  O   UNL     1       4.940  15.080  21.347  0.00  0.00    +0.000 OA
ATOM     35  C   UNL     1       4.145  16.063  20.625  0.00  0.00    +0.000 C 
ENDBRANCH  28  31
ENDBRANCH   9  25
TORSDOF 4
ENDMDL
MODEL 5
REMARK VINA RESULT:      -7.6      1.085      1.180
REMARK  Name = 
REMARK  6 active torsions:
REMARK  status: ('A' for Active; 'I' for Inactive)
REMARK    1  A    between atoms: C_1  and  C_2
REMARK    2  A    between atoms: C_3  and  N_4
REMARK    3  A    between atoms: C_12  and  C_13
REMARK    4  A    between atoms: N_16  and  C_17
REMARK    5  A    between atoms: C_17  and  C_18
REMARK    6  A    between atoms: N_29  and  C_30
REMARK                            x       y       z     vdW  Elec       q    Type
REMARK                         _______ _______ _______ _____ _____    ______ ____
ROOT
ATOM      1  N   UNL     1       1.738   7.292  20.450  0.00  0.00    +0.000 N 
ATOM      2  C   UNL     1       1.185   8.450  20.979  0.00  0.00    +0.000 A 
ATOM      3  N   UNL     1       0.846   8.335  22.270  0.00  0.00    +0.000 NA
ATOM      4  C   UNL     1       0.226   9.385  22.820  0.00  0.00    +0.000 A 
ATOM      5  C   UNL     1      -0.113  10.516  22.115  0.00  0.00    +0.000 A 
ATOM      6  C   UNL     1      -0.887  11.529  22.681  0.00  0.00    +0.000 A 
ATOM      7  C   UNL     1      -1.289  12.628  21.919  0.00  0.00    +0.000 A 
ATOM      8 CL   UNL     1      -2.523  13.554  22.692  0.00  0.00    +0.000 Cl
ATOM      9  C   UNL     1      -0.791  12.816  20.619  0.00  0.00    +0.000 A 
ATOM     10  C   UNL     1      -0.039  11.730  20.075  0.00  0.00    +0.000 A 
ATOM     11  C   UNL     1       0.296  10.574  20.791  0.00  0.00    +0.000 A 
ATOM     12  N   UNL     1       0.965   9.549  20.229  0.00  0.00    +0.000 NA
ATOM     13  H   UNL     1       1.618   6.561  21.137  0.00  0.00    +0.000 HD
ENDROOT
BRANCH   1  16
ATOM     14  C   UNL     1       3.406   4.743  19.896  0.00  0.00    +0.000 C 
ATOM     15  C   UNL     1       3.259   5.988  19.106  0.00  0.00    +0.000 A 
ATOM     16  C   UNL     1       2.471   7.096  19.346  0.00  0.00    +0.000 A 
ATOM     17  C   UNL     1       2.660   7.952  18.252  0.00  0.00    +0.000 A 
ATOM     18  N   UNL     1       3.536   7.451  17.384  0.00  0.00    +0.000 NA
ATOM     19  N   UNL     1       3.892   6.255  17.914  0.00  0.00    +0.000 N 
BRANCH  19  20
ATOM     20  C   UNL     1       4.911   5.544  17.198  0.00  0.00    +0.000 C 
ATOM     21  C   UNL     1       4.473   4.226  16.591  0.00  0.00    +0.000 C 
ATOM     22  C   UNL     1       5.763   3.843  15.899  0.00  0.00    +0.000 C 
ATOM     23  O   UNL     1       6.310   5.068  15.369  0.00  0.00    +0.000 OA
ATOM     24  C   UNL     1       5.614   6.167  16.005  0.00  0.00    +0.000 C 
ENDBRANCH  19  20
ENDBRANCH   1  16
BRANCH   9  25
ATOM     25  C   UNL     1      -0.987  14.038  19.704  0.00  0.00    +0.000 C 
ATOM     26  C   UNL     1       0.233  14.295  18.785  0.00  0.00    +0.000 C 
ATOM     27  C   UNL     1       1.425  14.853  19.569  0.00  0.00    +0.000 C 
ATOM     28  N   UNL     1       1.124  16.103  20.281  0.00  0.00    +0.000 NA
ATOM     29  C   UNL     1      -0.145  16.085  21.019  0.00  0.00    +0.000 C 
ATOM     30  C   UNL     1      -1.322  15.415  20.295  0.00  0.00    +0.000 C 
BRANCH  28  31
ATOM     31  C   UNL     1       2.256  16.509  21.174  0.00  0.00    +0.000 C 
ATOM     32  C   UNL     1       3.198  17.609  20.698  0.00  0.00    +0.000 C 
ATOM     33  C   UNL     1       1.761  16.661  22.632  0.00  0.00    +0.000 C 
ATOM     34  O   UNL     1       2.831  15.789  23.105  0.00  0.00    +0.000 OA
ATOM     35  C   UNL     1       2.973  15.262  21.755  0.00  0.00    +0.000 C 
ENDBRANCH  28  31
ENDBRANCH   9  25
TORSDOF 4
ENDMDL
MODEL 6
REMARK VINA RESULT:      -7.6      1.540      1.983
REMARK  Name = 
REMARK  6 active torsions:
REMARK  status: ('A' for Active; 'I' for Inactive)
REMARK    1  A    between atoms: C_1  and  C_2
REMARK    2  A    between atoms: C_3  and  N_4
REMARK    3  A    between atoms: C_12  and  C_13
REMARK    4  A    between atoms: N_16  and  C_17
REMARK    5  A    between atoms: C_17  and  C_18
REMARK    6  A    between atoms: N_29  and  C_30
REMARK                            x       y       z     vdW  Elec       q    Type
REMARK                         _______ _______ _______ _____ _____    ______ ____
ROOT
ATOM      1  N   UNL     1       1.204   7.767  20.864  0.00  0.00    +0.000 N 
ATOM      2  C   UNL     1       0.702   8.966  21.352  0.00  0.00    +0.000 A 
ATOM      3  N   UNL     1       0.336   8.903  22.639  0.00  0.00    +0.000 NA
ATOM      4  C   UNL     1      -0.239   9.998  23.150  0.00  0.00    +0.000 A 
ATOM      5  C   UNL     1      -0.508  11.126  22.409  0.00  0.00    +0.000 A 
ATOM      6  C   UNL     1      -1.239  12.191  22.934  0.00  0.00    +0.000 A 
ATOM      7  C   UNL     1      -1.571  13.289  22.136  0.00  0.00    +0.000 A 
ATOM      8 CL   UNL     1      -2.769  14.297  22.861  0.00  0.00    +0.000 Cl
ATOM      9  C   UNL     1      -1.041  13.416  20.841  0.00  0.00    +0.000 A 
ATOM     10  C   UNL     1      -0.337  12.278  20.339  0.00  0.00    +0.000 A 
ATOM     11  C   UNL     1      -0.073  11.126  21.091  0.00  0.00    +0.000 A 
ATOM     12  N   UNL     1       0.552  10.054  20.570  0.00  0.00    +0.000 NA
ATOM     13  H   UNL     1       1.035   7.062  21.568  0.00  0.00    +0.000 HD
ENDROOT
BRANCH   1  16
ATOM     14  C   UNL     1       2.686   5.094  20.374  0.00  0.00    +0.000 C 
ATOM     15  C   UNL     1       2.652   6.337  19.568  0.00  0.00    +0.000 A 
ATOM     16  C   UNL     1       1.945   7.505  19.780  0.00  0.00    +0.000 A 
ATOM     17  C   UNL     1       2.223   8.331  18.682  0.00  0.00    +0.000 A 
ATOM     18  N   UNL     1       3.077   7.756  17.840  0.00  0.00    +0.000 NA
ATOM     19  N   UNL     1       3.330   6.543  18.390  0.00  0.00    +0.000 N 
BRANCH  19  20
ATOM     20  C   UNL     1       4.309   5.749  17.705  0.00  0.00    +0.000 C 
ATOM     21  C   UNL     1       3.779   4.478  17.071  0.00  0.00    +0.000 C 
ATOM     22  C   UNL     1       5.055   3.987  16.422  0.00  0.00    +0.000 C 
ATOM     23  O   UNL     1       5.726   5.162  15.923  0.00  0.00    +0.000 OA
ATOM     24  C   UNL     1       5.106   6.314  16.542  0.00  0.00    +0.000 C 
ENDBRANCH  19  20
ENDBRANCH   1  16
BRANCH   9  25
ATOM     25  C   UNL     1      -1.159  14.621  19.890  0.00  0.00    +0.000 C 
ATOM     26  C   UNL     1      -0.251  14.485  18.642  0.00  0.00    +0.000 C 
ATOM     27  C   UNL     1       1.227  14.682  18.993  0.00  0.00    +0.000 C 
ATOM     28  N   UNL     1       1.511  15.980  19.621  0.00  0.00    +0.000 NA
ATOM     29  C   UNL     1       0.571  16.355  20.684  0.00  0.00    +0.000 C 
ATOM     30  C   UNL     1      -0.907  16.048  20.398  0.00  0.00    +0.000 C 
BRANCH  28  31
ATOM     31  C   UNL     1       2.925  16.053  20.109  0.00  0.00    +0.000 C 
ATOM     32  C   UNL     1       3.489  14.864  20.881  0.00  0.00    +0.000 C 
ATOM     33  C   UNL     1       3.849  16.605  18.998  0.00  0.00    +0.000 C 
ATOM     34  O   UNL     1       4.387  17.604  19.916  0.00  0.00    +0.000 OA
ATOM     35  C   UNL     1       3.213  17.430  20.761  0.00  0.00    +0.000 C 
ENDBRANCH  28  31
ENDBRANCH   9  25
TORSDOF 4
ENDMDL
MODEL 7
REMARK VINA RESULT:      -7.6      1.194      1.322
REMARK  Name = 
REMARK  6 active torsions:
REMARK  status: ('A' for Active; 'I' for Inactive)
REMARK    1  A    between atoms: C_1  and  C_2
REMARK    2  A    between atoms: C_3  and  N_4
REMARK    3  A    between atoms: C_12  and  C_13
REMARK    4  A    between atoms: N_16  and  C_17
REMARK    5  A    between atoms: C_17  and  C_18
REMARK    6  A    between atoms: N_29  and  C_30
REMARK                            x       y       z     vdW  Elec       q    Type
REMARK                         _______ _______ _______ _____ _____    ______ ____
ROOT
ATOM      1  N   UNL     1       1.299   7.326  20.381  0.00  0.00    +0.000 N 
ATOM      2  C   UNL     1       0.921   8.576  20.852  0.00  0.00    +0.000 A 
ATOM      3  N   UNL     1       0.236   8.525  22.002  0.00  0.00    +0.000 NA
ATOM      4  C   UNL     1      -0.237   9.686  22.468  0.00  0.00    +0.000 A 
ATOM      5  C   UNL     1      -0.097  10.881  21.801  0.00  0.00    +0.000 A 
ATOM      6  C   UNL     1      -0.726  12.045  22.240  0.00  0.00    +0.000 A 
ATOM      7  C   UNL     1      -0.637  13.226  21.499  0.00  0.00    +0.000 A 
ATOM      8 CL   UNL     1      -1.771  14.420  22.015  0.00  0.00    +0.000 Cl
ATOM      9  C   UNL     1       0.217  13.308  20.386  0.00  0.00    +0.000 A 
ATOM     10  C   UNL     1       0.802  12.077  19.956  0.00  0.00    +0.000 A 
ATOM     11  C   UNL     1       0.649  10.860  20.631  0.00  0.00    +0.000 A 
ATOM     12  N   UNL     1       1.176   9.710  20.169  0.00  0.00    +0.000 NA
ATOM     13  H   UNL     1       0.830   6.636  20.951  0.00  0.00    +0.000 HD
ENDROOT
BRANCH   1  16
ATOM     14  C   UNL     1       2.915   4.689  20.494  0.00  0.00    +0.000 C 
ATOM     15  C   UNL     1       2.992   5.825  19.546  0.00  0.00    +0.000 A 
ATOM     16  C   UNL     1       2.227   6.974  19.483  0.00  0.00    +0.000 A 
ATOM     17  C   UNL     1       2.675   7.677  18.356  0.00  0.00    +0.000 A 
ATOM     18  N   UNL     1       3.681   7.048  17.753  0.00  0.00    +0.000 NA
ATOM     19  N   UNL     1       3.864   5.922  18.486  0.00  0.00    +0.000 N 
BRANCH  19  20
ATOM     20  C   UNL     1       4.970   5.101  18.086  0.00  0.00    +0.000 C 
ATOM     21  C   UNL     1       5.496   5.363  16.690  0.00  0.00    +0.000 C 
ATOM     22  C   UNL     1       6.648   4.382  16.683  0.00  0.00    +0.000 C 
ATOM     23  O   UNL     1       7.222   4.432  18.005  0.00  0.00    +0.000 OA
ATOM     24  C   UNL     1       6.272   5.102  18.867  0.00  0.00    +0.000 C 
ENDBRANCH  19  20
ENDBRANCH   1  16
BRANCH   9  25
ATOM     25  C   UNL     1       0.568  14.558  19.559  0.00  0.00    +0.000 C 
ATOM     26  C   UNL     1       1.882  14.389  18.755  0.00  0.00    +0.000 C 
ATOM     27  C   UNL     1       3.112  14.431  19.667  0.00  0.00    +0.000 C 
ATOM     28  N   UNL     1       3.218  15.668  20.452  0.00  0.00    +0.000 NA
ATOM     29  C   UNL     1       1.964  16.085  21.092  0.00  0.00    +0.000 C 
ATOM     30  C   UNL     1       0.701  15.931  20.232  0.00  0.00    +0.000 C 
BRANCH  28  31
ATOM     31  C   UNL     1       4.327  15.585  21.455  0.00  0.00    +0.000 C 
ATOM     32  C   UNL     1       5.620  16.343  21.173  0.00  0.00    +0.000 C 
ATOM     33  C   UNL     1       3.769  15.759  22.887  0.00  0.00    +0.000 C 
ATOM     34  O   UNL     1       4.443  14.538  23.318  0.00  0.00    +0.000 OA
ATOM     35  C   UNL     1       4.535  14.122  21.925  0.00  0.00    +0.000 C 
ENDBRANCH  28  31
ENDBRANCH   9  25
TORSDOF 4
ENDMDL
MODEL 8
REMARK VINA RESULT:      -7.5      1.256      1.517
REMARK  Name = 
REMARK  6 active torsions:
REMARK  status: ('A' for Active; 'I' for Inactive)
REMARK    1  A    between atoms: C_1  and  C_2
REMARK    2  A    between atoms: C_3  and  N_4
REMARK    3  A    between atoms: C_12  and  C_13
REMARK    4  A    between atoms: N_16  and  C_17
REMARK    5  A    between atoms: C_17  and  C_18
REMARK    6  A    between atoms: N_29  and  C_30
REMARK                            x       y       z     vdW  Elec       q    Type
REMARK                         _______ _______ _______ _____ _____    ______ ____
ROOT
ATOM      1  N   UNL     1       1.103   7.663  20.857  0.00  0.00    +0.000 N 
ATOM      2  C   UNL     1       0.612   8.869  21.341  0.00  0.00    +0.000 A 
ATOM      3  N   UNL     1       0.187   8.798  22.609  0.00  0.00    +0.000 NA
ATOM      4  C   UNL     1      -0.380   9.901  23.111  0.00  0.00    +0.000 A 
ATOM      5  C   UNL     1      -0.586  11.045  22.376  0.00  0.00    +0.000 A 
ATOM      6  C   UNL     1      -1.310  12.123  22.885  0.00  0.00    +0.000 A 
ATOM      7  C   UNL     1      -1.578  13.240  22.089  0.00  0.00    +0.000 A 
ATOM      8 CL   UNL     1      -2.779  14.271  22.776  0.00  0.00    +0.000 Cl
ATOM      9  C   UNL     1      -0.989  13.370  20.821  0.00  0.00    +0.000 A 
ATOM     10  C   UNL     1      -0.293  12.221  20.333  0.00  0.00    +0.000 A 
ATOM     11  C   UNL     1      -0.094  11.053  21.079  0.00  0.00    +0.000 A 
ATOM     12  N   UNL     1       0.525   9.971  20.569  0.00  0.00    +0.000 NA
ATOM     13  H   UNL     1       0.884   6.954  21.542  0.00  0.00    +0.000 HD
ENDROOT
BRANCH   1  16
ATOM     14  C   UNL     1       2.578   4.977  20.420  0.00  0.00    +0.000 C 
ATOM     15  C   UNL     1       2.587   6.222  19.616  0.00  0.00    +0.000 A 
ATOM     16  C   UNL     1       1.883   7.396  19.802  0.00  0.00    +0.000 A 
ATOM     17  C   UNL     1       2.212   8.222  18.718  0.00  0.00    +0.000 A 
ATOM     18  N   UNL     1       3.094   7.640  17.909  0.00  0.00    +0.000 NA
ATOM     19  N   UNL     1       3.313   6.423  18.466  0.00  0.00    +0.000 N 
BRANCH  19  20
ATOM     20  C   UNL     1       4.310   5.621  17.818  0.00  0.00    +0.000 C 
ATOM     21  C   UNL     1       4.857   6.192  16.525  0.00  0.00    +0.000 C 
ATOM     22  C   UNL     1       5.883   5.125  16.211  0.00  0.00    +0.000 C 
ATOM     23  O   UNL     1       6.466   4.747  17.475  0.00  0.00    +0.000 OA
ATOM     24  C   UNL     1       5.608   5.262  18.521  0.00  0.00    +0.000 C 
ENDBRANCH  19  20
ENDBRANCH   1  16
BRANCH   9  25
ATOM     25  C   UNL     1      -1.032  14.591  19.884  0.00  0.00    +0.000 C 
ATOM     26  C   UNL     1      -0.067  14.452  18.680  0.00  0.00    +0.000 C 
ATOM     27  C   UNL     1       1.395  14.610  19.105  0.00  0.00    +0.000 C 
ATOM     28  N   UNL     1       1.678  15.892  19.765  0.00  0.00    +0.000 NA
ATOM     29  C   UNL     1       0.696  16.273  20.787  0.00  0.00    +0.000 C 
ATOM     30  C   UNL     1      -0.773  16.005  20.425  0.00  0.00    +0.000 C 
BRANCH  28  31
ATOM     31  C   UNL     1       3.068  15.924  20.322  0.00  0.00    +0.000 C 
ATOM     32  C   UNL     1       3.921  17.164  20.075  0.00  0.00    +0.000 C 
ATOM     33  C   UNL     1       3.072  15.411  21.782  0.00  0.00    +0.000 C 
ATOM     34  O   UNL     1       4.142  14.470  21.467  0.00  0.00    +0.000 OA
ATOM     35  C   UNL     1       3.799  14.582  20.056  0.00  0.00    +0.000 C 
ENDBRANCH  28  31
ENDBRANCH   9  25
TORSDOF 4
ENDMDL
MODEL 9
REMARK VINA RESULT:      -7.4      5.288      8.424
REMARK  Name = 
REMARK  6 active torsions:
REMARK  status: ('A' for Active; 'I' for Inactive)
REMARK    1  A    between atoms: C_1  and  C_2
REMARK    2  A    between atoms: C_3  and  N_4
REMARK    3  A    between atoms: C_12  and  C_13
REMARK    4  A    between atoms: N_16  and  C_17
REMARK    5  A    between atoms: C_17  and  C_18
REMARK    6  A    between atoms: N_29  and  C_30
REMARK                            x       y       z     vdW  Elec       q    Type
REMARK                         _______ _______ _______ _____ _____    ______ ____
ROOT
ATOM      1  N   UNL     1       1.147  13.712  21.304  0.00  0.00    +0.000 N 
ATOM      2  C   UNL     1       2.428  14.246  21.306  0.00  0.00    +0.000 A 
ATOM      3  N   UNL     1       2.742  14.867  22.451  0.00  0.00    +0.000 NA
ATOM      4  C   UNL     1       3.929  15.483  22.491  0.00  0.00    +0.000 A 
ATOM      5  C   UNL     1       4.783  15.546  21.414  0.00  0.00    +0.000 A 
ATOM      6  C   UNL     1       5.944  16.317  21.443  0.00  0.00    +0.000 A 
ATOM      7  C   UNL     1       6.751  16.432  20.308  0.00  0.00    +0.000 A 
ATOM      8 CL   UNL     1       7.909  17.704  20.444  0.00  0.00    +0.000 Cl
ATOM      9  C   UNL     1       6.499  15.647  19.171  0.00  0.00    +0.000 A 
ATOM     10  C   UNL     1       5.275  14.908  19.180  0.00  0.00    +0.000 A 
ATOM     11  C   UNL     1       4.402  14.855  20.273  0.00  0.00    +0.000 A 
ATOM     12  N   UNL     1       3.234  14.187  20.227  0.00  0.00    +0.000 NA
ATOM     13  H   UNL     1       0.678  14.051  22.133  0.00  0.00    +0.000 HD
ENDROOT
BRANCH   1  16
ATOM     14  C   UNL     1      -0.499  14.340  18.759  0.00  0.00    +0.000 C 
ATOM     15  C   UNL     1      -0.190  13.045  19.410  0.00  0.00    +0.000 A 
ATOM     16  C   UNL     1       0.588  12.781  20.520  0.00  0.00    +0.000 A 
ATOM     17  C   UNL     1       0.600  11.387  20.663  0.00  0.00    +0.000 A 
ATOM     18  N   UNL     1      -0.147  10.793  19.735  0.00  0.00    +0.000 NA
ATOM     19  N   UNL     1      -0.621  11.813  18.978  0.00  0.00    +0.000 N 
BRANCH  19  20
ATOM     20  C   UNL     1      -1.540  11.435  17.944  0.00  0.00    +0.000 C 
ATOM     21  C   UNL     1      -1.445   9.992  17.491  0.00  0.00    +0.000 C 
ATOM     22  C   UNL     1      -2.576   9.984  16.486  0.00  0.00    +0.000 C 
ATOM     23  O   UNL     1      -3.622  10.798  17.055  0.00  0.00    +0.000 OA
ATOM     24  C   UNL     1      -3.041  11.554  18.145  0.00  0.00    +0.000 C 
ENDBRANCH  19  20
ENDBRANCH   1  16
BRANCH   9  25
ATOM     25  C   UNL     1       7.368  15.516  17.907  0.00  0.00    +0.000 C 
ATOM     26  C   UNL     1       7.372  14.076  17.335  0.00  0.00    +0.000 C 
ATOM     27  C   UNL     1       8.190  13.122  18.209  0.00  0.00    +0.000 C 
ATOM     28  N   UNL     1       9.587  13.542  18.386  0.00  0.00    +0.000 NA
ATOM     29  C   UNL     1       9.752  14.965  18.707  0.00  0.00    +0.000 C 
ATOM     30  C   UNL     1       8.847  15.928  17.925  0.00  0.00    +0.000 C 
BRANCH  28  31
ATOM     31  C   UNL     1      10.292  12.683  19.390  0.00  0.00    +0.000 C 
ATOM     32  C   UNL     1      11.330  11.684  18.890  0.00  0.00    +0.000 C 
ATOM     33  C   UNL     1      10.739  13.533  20.604  0.00  0.00    +0.000 C 
ATOM     34  O   UNL     1      10.104  12.591  21.519  0.00  0.00    +0.000 OA
ATOM     35  C   UNL     1       9.288  12.099  20.417  0.00  0.00    +0.000 C 
ENDBRANCH  28  31
ENDBRANCH   9  25
TORSDOF 4
ENDMDL
