MODEL 1
REMARK VINA RESULT:      -7.4      0.000      0.000
REMARK  Name = 
REMARK  2 active torsions:
REMARK  status: ('A' for Active; 'I' for Inactive)
REMARK    1  A    between atoms: C_2  and  C_4
REMARK    2  A    between atoms: C_12  and  C_13
REMARK                            x       y       z     vdW  Elec       q    Type
REMARK                         _______ _______ _______ _____ _____    ______ ____
ROOT
ATOM      1  C   UNL     1       3.084   4.699  17.815  0.00  0.00    +0.000 A 
ATOM      2  N   UNL     1       4.172   3.932  17.443  0.00  0.00    +0.000 N 
ATOM      3  C   UNL     1       5.271   4.706  17.201  0.00  0.00    +0.000 A 
ATOM      4  C   UNL     1       6.529   4.358  16.724  0.00  0.00    +0.000 A 
ATOM      5  N   UNL     1       7.467   5.318  16.575  0.00  0.00    +0.000 NA
ATOM      6  C   UNL     1       7.164   6.583  16.923  0.00  0.00    +0.000 A 
ATOM      7  C   UNL     1       5.936   6.992  17.426  0.00  0.00    +0.000 A 
ATOM      8  C   UNL     1       4.933   6.013  17.544  0.00  0.00    +0.000 A 
ATOM      9  C   UNL     1       3.552   6.008  17.967  0.00  0.00    +0.000 A 
ATOM     10  H   UNL     1       4.119   2.928  17.314  0.00  0.00    +0.000 HD
ENDROOT
BRANCH   9  11
ATOM     11  C   UNL     1       2.759   7.136  18.463  0.00  0.00    +0.000 A 
ATOM     12  C   UNL     1       2.295   7.152  19.785  0.00  0.00    +0.000 A 
ATOM     13  C   UNL     1       1.525   8.217  20.263  0.00  0.00    +0.000 A 
ATOM     14  C   UNL     1       1.241   9.299  19.436  0.00  0.00    +0.000 A 
ATOM     15  C   UNL     1       1.700   9.304  18.122  0.00  0.00    +0.000 A 
ATOM     16  C   UNL     1       2.427   8.216  17.630  0.00  0.00    +0.000 A 
ENDBRANCH   9  11
BRANCH   1  18
ATOM     17  N   UNL     1       1.598   3.389  19.150  0.00  0.00    +0.000 N 
ATOM     18  C   UNL     1       1.804   4.057  17.979  0.00  0.00    +0.000 C 
ATOM     19  O   UNL     1       0.899   4.139  17.154  0.00  0.00    +0.000 OA
ATOM     20  H   UNL     1       0.707   2.930  19.288  0.00  0.00    +0.000 HD
ATOM     21  H   UNL     1       2.284   3.366  19.887  0.00  0.00    +0.000 HD
ENDBRANCH   1  18
TORSDOF 2
ENDMDL
MODEL 2
REMARK VINA RESULT:      -7.4      0.156      1.145
REMARK  Name = 
REMARK  2 active torsions:
REMARK  status: ('A' for Active; 'I' for Inactive)
REMARK    1  A    between atoms: C_2  and  C_4
REMARK    2  A    between atoms: C_12  and  C_13
REMARK                            x       y       z     vdW  Elec       q    Type
REMARK                         _______ _______ _______ _____ _____    ______ ____
ROOT
ATOM      1  C   UNL     1       3.084   4.770  17.918  0.00  0.00    +0.000 A 
ATOM      2  N   UNL     1       4.177   3.991  17.585  0.00  0.00    +0.000 N 
ATOM      3  C   UNL     1       5.277   4.757  17.327  0.00  0.00    +0.000 A 
ATOM      4  C   UNL     1       6.541   4.394  16.877  0.00  0.00    +0.000 A 
ATOM      5  N   UNL     1       7.479   5.349  16.704  0.00  0.00    +0.000 NA
ATOM      6  C   UNL     1       7.171   6.626  17.002  0.00  0.00    +0.000 A 
ATOM      7  C   UNL     1       5.937   7.051  17.477  0.00  0.00    +0.000 A 
ATOM      8  C   UNL     1       4.934   6.076  17.619  0.00  0.00    +0.000 A 
ATOM      9  C   UNL     1       3.549   6.084  18.026  0.00  0.00    +0.000 A 
ATOM     10  H   UNL     1       4.126   2.983  17.492  0.00  0.00    +0.000 HD
ENDROOT
BRANCH   9  11
ATOM     11  C   UNL     1       2.749   7.228  18.472  0.00  0.00    +0.000 A 
ATOM     12  C   UNL     1       2.462   8.280  17.592  0.00  0.00    +0.000 A 
ATOM     13  C   UNL     1       1.711   9.383  18.013  0.00  0.00    +0.000 A 
ATOM     14  C   UNL     1       1.205   9.430  19.308  0.00  0.00    +0.000 A 
ATOM     15  C   UNL     1       1.474   8.390  20.193  0.00  0.00    +0.000 A 
ATOM     16  C   UNL     1       2.266   7.312  19.787  0.00  0.00    +0.000 A 
ENDBRANCH   9  11
BRANCH   1  18
ATOM     17  N   UNL     1       1.504   3.686  19.344  0.00  0.00    +0.000 N 
ATOM     18  C   UNL     1       1.803   4.131  18.090  0.00  0.00    +0.000 C 
ATOM     19  O   UNL     1       0.972   4.034  17.192  0.00  0.00    +0.000 OA
ATOM     20  H   UNL     1       0.610   3.235  19.490  0.00  0.00    +0.000 HD
ATOM     21  H   UNL     1       2.123   3.819  20.127  0.00  0.00    +0.000 HD
ENDBRANCH   1  18
TORSDOF 2
ENDMDL
MODEL 3
REMARK VINA RESULT:      -7.4      3.207      4.816
REMARK  Name = 
REMARK  2 active torsions:
REMARK  status: ('A' for Active; 'I' for Inactive)
REMARK    1  A    between atoms: C_2  and  C_4
REMARK    2  A    between atoms: C_12  and  C_13
REMARK                            x       y       z     vdW  Elec       q    Type
REMARK                         _______ _______ _______ _____ _____    ______ ____
ROOT
ATOM      1  C   UNL     1       6.804   5.428  16.466  0.00  0.00    +0.000 A 
ATOM      2  N   UNL     1       7.614   5.585  15.356  0.00  0.00    +0.000 N 
ATOM      3  C   UNL     1       7.109   4.926  14.272  0.00  0.00    +0.000 A 
ATOM      4  C   UNL     1       7.641   4.748  13.000  0.00  0.00    +0.000 A 
ATOM      5  N   UNL     1       6.937   4.053  12.082  0.00  0.00    +0.000 NA
ATOM      6  C   UNL     1       5.722   3.576  12.417  0.00  0.00    +0.000 A 
ATOM      7  C   UNL     1       5.126   3.739  13.660  0.00  0.00    +0.000 A 
ATOM      8  C   UNL     1       5.865   4.421  14.643  0.00  0.00    +0.000 A 
ATOM      9  C   UNL     1       5.652   4.767  16.029  0.00  0.00    +0.000 A 
ATOM     10  H   UNL     1       8.497   6.082  15.386  0.00  0.00    +0.000 HD
ENDROOT
BRANCH   9  11
ATOM     11  C   UNL     1       4.472   4.492  16.853  0.00  0.00    +0.000 A 
ATOM     12  C   UNL     1       4.106   3.173  17.153  0.00  0.00    +0.000 A 
ATOM     13  C   UNL     1       2.973   2.901  17.927  0.00  0.00    +0.000 A 
ATOM     14  C   UNL     1       2.213   3.946  18.444  0.00  0.00    +0.000 A 
ATOM     15  C   UNL     1       2.567   5.263  18.163  0.00  0.00    +0.000 A 
ATOM     16  C   UNL     1       3.670   5.532  17.348  0.00  0.00    +0.000 A 
ENDBRANCH   9  11
BRANCH   1  18
ATOM     17  N   UNL     1       7.443   5.040  18.734  0.00  0.00    +0.000 N 
ATOM     18  C   UNL     1       7.254   5.947  17.733  0.00  0.00    +0.000 C 
ATOM     19  O   UNL     1       7.525   7.129  17.919  0.00  0.00    +0.000 OA
ATOM     20  H   UNL     1       7.759   5.380  19.633  0.00  0.00    +0.000 HD
ATOM     21  H   UNL     1       7.311   4.050  18.600  0.00  0.00    +0.000 HD
ENDBRANCH   1  18
TORSDOF 2
ENDMDL
MODEL 4
REMARK VINA RESULT:      -7.4      2.604      5.290
REMARK  Name = 
REMARK  2 active torsions:
REMARK  status: ('A' for Active; 'I' for Inactive)
REMARK    1  A    between atoms: C_2  and  C_4
REMARK    2  A    between atoms: C_12  and  C_13
REMARK                            x       y       z     vdW  Elec       q    Type
REMARK                         _______ _______ _______ _____ _____    ______ ____
ROOT
ATOM      1  C   UNL     1       3.910   3.216  19.522  0.00  0.00    +0.000 A 
ATOM      2  N   UNL     1       2.857   3.561  20.350  0.00  0.00    +0.000 N 
ATOM      3  C   UNL     1       2.533   4.881  20.222  0.00  0.00    +0.000 A 
ATOM      4  C   UNL     1       1.611   5.653  20.921  0.00  0.00    +0.000 A 
ATOM      5  N   UNL     1       1.463   6.956  20.598  0.00  0.00    +0.000 NA
ATOM      6  C   UNL     1       2.192   7.463  19.586  0.00  0.00    +0.000 A 
ATOM      7  C   UNL     1       3.110   6.742  18.835  0.00  0.00    +0.000 A 
ATOM      8  C   UNL     1       3.311   5.395  19.187  0.00  0.00    +0.000 A 
ATOM      9  C   UNL     1       4.166   4.330  18.717  0.00  0.00    +0.000 A 
ATOM     10  H   UNL     1       2.438   2.912  21.005  0.00  0.00    +0.000 HD
ENDROOT
BRANCH   9  11
ATOM     11  C   UNL     1       5.130   4.371  17.614  0.00  0.00    +0.000 A 
ATOM     12  C   UNL     1       4.711   4.147  16.295  0.00  0.00    +0.000 A 
ATOM     13  C   UNL     1       5.626   4.170  15.238  0.00  0.00    +0.000 A 
ATOM     14  C   UNL     1       6.966   4.454  15.481  0.00  0.00    +0.000 A 
ATOM     15  C   UNL     1       7.399   4.686  16.783  0.00  0.00    +0.000 A 
ATOM     16  C   UNL     1       6.493   4.614  17.845  0.00  0.00    +0.000 A 
ENDBRANCH   9  11
BRANCH   1  18
ATOM     17  N   UNL     1       4.194   1.027  18.611  0.00  0.00    +0.000 N 
ATOM     18  C   UNL     1       4.471   1.893  19.627  0.00  0.00    +0.000 C 
ATOM     19  O   UNL     1       5.218   1.548  20.538  0.00  0.00    +0.000 OA
ATOM     20  H   UNL     1       4.577   0.092  18.662  0.00  0.00    +0.000 HD
ATOM     21  H   UNL     1       3.653   1.294  17.804  0.00  0.00    +0.000 HD
ENDBRANCH   1  18
TORSDOF 2
ENDMDL
MODEL 5
REMARK VINA RESULT:      -7.4      3.171      4.802
REMARK  Name = 
REMARK  2 active torsions:
REMARK  status: ('A' for Active; 'I' for Inactive)
REMARK    1  A    between atoms: C_2  and  C_4
REMARK    2  A    between atoms: C_12  and  C_13
REMARK                            x       y       z     vdW  Elec       q    Type
REMARK                         _______ _______ _______ _____ _____    ______ ____
ROOT
ATOM      1  C   UNL     1       6.746   5.409  16.577  0.00  0.00    +0.000 A 
ATOM      2  N   UNL     1       7.581   5.585  15.489  0.00  0.00    +0.000 N 
ATOM      3  C   UNL     1       7.104   4.941  14.384  0.00  0.00    +0.000 A 
ATOM      4  C   UNL     1       7.666   4.785  13.122  0.00  0.00    +0.000 A 
ATOM      5  N   UNL     1       6.985   4.102  12.177  0.00  0.00    +0.000 NA
ATOM      6  C   UNL     1       5.765   3.617  12.476  0.00  0.00    +0.000 A 
ATOM      7  C   UNL     1       5.139   3.759  13.708  0.00  0.00    +0.000 A 
ATOM      8  C   UNL     1       5.854   4.427  14.718  0.00  0.00    +0.000 A 
ATOM      9  C   UNL     1       5.607   4.751  16.104  0.00  0.00    +0.000 A 
ATOM     10  H   UNL     1       8.462   6.084  15.547  0.00  0.00    +0.000 HD
ENDROOT
BRANCH   9  11
ATOM     11  C   UNL     1       4.409   4.460  16.896  0.00  0.00    +0.000 A 
ATOM     12  C   UNL     1       3.605   5.503  17.376  0.00  0.00    +0.000 A 
ATOM     13  C   UNL     1       2.468   5.236  18.145  0.00  0.00    +0.000 A 
ATOM     14  C   UNL     1       2.098   3.921  18.413  0.00  0.00    +0.000 A 
ATOM     15  C   UNL     1       2.881   2.873  17.937  0.00  0.00    +0.000 A 
ATOM     16  C   UNL     1       4.045   3.142  17.211  0.00  0.00    +0.000 A 
ENDBRANCH   9  11
BRANCH   1  18
ATOM     17  N   UNL     1       7.139   5.027  18.902  0.00  0.00    +0.000 N 
ATOM     18  C   UNL     1       7.165   5.909  17.863  0.00  0.00    +0.000 C 
ATOM     19  O   UNL     1       7.592   7.047  18.037  0.00  0.00    +0.000 OA
ATOM     20  H   UNL     1       7.429   5.354  19.814  0.00  0.00    +0.000 HD
ATOM     21  H   UNL     1       6.874   4.061  18.786  0.00  0.00    +0.000 HD
ENDBRANCH   1  18
TORSDOF 2
ENDMDL
MODEL 6
REMARK VINA RESULT:      -7.3      2.534      5.185
REMARK  Name = 
REMARK  2 active torsions:
REMARK  status: ('A' for Active; 'I' for Inactive)
REMARK    1  A    between atoms: C_2  and  C_4
REMARK    2  A    between atoms: C_12  and  C_13
REMARK                            x       y       z     vdW  Elec       q    Type
REMARK                         _______ _______ _______ _____ _____    ______ ____
ROOT
ATOM      1  C   UNL     1       3.850   3.383  19.485  0.00  0.00    +0.000 A 
ATOM      2  N   UNL     1       2.810   3.768  20.311  0.00  0.00    +0.000 N 
ATOM      3  C   UNL     1       2.506   5.089  20.150  0.00  0.00    +0.000 A 
ATOM      4  C   UNL     1       1.604   5.894  20.836  0.00  0.00    +0.000 A 
ATOM      5  N   UNL     1       1.474   7.190  20.480  0.00  0.00    +0.000 NA
ATOM      6  C   UNL     1       2.203   7.659  19.449  0.00  0.00    +0.000 A 
ATOM      7  C   UNL     1       3.103   6.902  18.710  0.00  0.00    +0.000 A 
ATOM      8  C   UNL     1       3.285   5.563  19.097  0.00  0.00    +0.000 A 
ATOM      9  C   UNL     1       4.118   4.471  18.649  0.00  0.00    +0.000 A 
ATOM     10  H   UNL     1       2.385   3.143  20.987  0.00  0.00    +0.000 HD
ENDROOT
BRANCH   9  11
ATOM     11  C   UNL     1       5.074   4.467  17.538  0.00  0.00    +0.000 A 
ATOM     12  C   UNL     1       6.440   4.667  17.775  0.00  0.00    +0.000 A 
ATOM     13  C   UNL     1       7.358   4.678  16.720  0.00  0.00    +0.000 A 
ATOM     14  C   UNL     1       6.926   4.452  15.416  0.00  0.00    +0.000 A 
ATOM     15  C   UNL     1       5.573   4.243  15.163  0.00  0.00    +0.000 A 
ATOM     16  C   UNL     1       4.651   4.281  16.212  0.00  0.00    +0.000 A 
ENDBRANCH   9  11
BRANCH   1  18
ATOM     17  N   UNL     1       4.105   1.171  18.622  0.00  0.00    +0.000 N 
ATOM     18  C   UNL     1       4.390   2.054  19.621  0.00  0.00    +0.000 C 
ATOM     19  O   UNL     1       5.128   1.717  20.543  0.00  0.00    +0.000 OA
ATOM     20  H   UNL     1       4.473   0.231  18.695  0.00  0.00    +0.000 HD
ATOM     21  H   UNL     1       3.571   1.430  17.807  0.00  0.00    +0.000 HD
ENDBRANCH   1  18
TORSDOF 2
ENDMDL
MODEL 7
REMARK VINA RESULT:      -7.3      0.912      1.515
REMARK  Name = 
REMARK  2 active torsions:
REMARK  status: ('A' for Active; 'I' for Inactive)
REMARK    1  A    between atoms: C_2  and  C_4
REMARK    2  A    between atoms: C_12  and  C_13
REMARK                            x       y       z     vdW  Elec       q    Type
REMARK                         _______ _______ _______ _____ _____    ______ ____
ROOT
ATOM      1  C   UNL     1       3.408   3.984  17.524  0.00  0.00    +0.000 A 
ATOM      2  N   UNL     1       4.501   3.394  16.916  0.00  0.00    +0.000 N 
ATOM      3  C   UNL     1       5.521   4.285  16.747  0.00  0.00    +0.000 A 
ATOM      4  C   UNL     1       6.747   4.138  16.107  0.00  0.00    +0.000 A 
ATOM      5  N   UNL     1       7.605   5.180  16.079  0.00  0.00    +0.000 NA
ATOM      6  C   UNL     1       7.260   6.325  16.700  0.00  0.00    +0.000 A 
ATOM      7  C   UNL     1       6.064   6.528  17.374  0.00  0.00    +0.000 A 
ATOM      8  C   UNL     1       5.139   5.469  17.373  0.00  0.00    +0.000 A 
ATOM      9  C   UNL     1       3.808   5.271  17.898  0.00  0.00    +0.000 A 
ATOM     10  H   UNL     1       4.497   2.434  16.592  0.00  0.00    +0.000 HD
ENDROOT
BRANCH   9  11
ATOM     11  C   UNL     1       2.998   6.213  18.676  0.00  0.00    +0.000 A 
ATOM     12  C   UNL     1       2.678   7.474  18.154  0.00  0.00    +0.000 A 
ATOM     13  C   UNL     1       1.918   8.385  18.894  0.00  0.00    +0.000 A 
ATOM     14  C   UNL     1       1.436   8.034  20.151  0.00  0.00    +0.000 A 
ATOM     15  C   UNL     1       1.738   6.783  20.682  0.00  0.00    +0.000 A 
ATOM     16  C   UNL     1       2.539   5.892  19.963  0.00  0.00    +0.000 A 
ENDBRANCH   9  11
BRANCH   1  18
ATOM     17  N   UNL     1       2.327   1.898  17.952  0.00  0.00    +0.000 N 
ATOM     18  C   UNL     1       2.192   3.223  17.659  0.00  0.00    +0.000 C 
ATOM     19  O   UNL     1       1.073   3.722  17.584  0.00  0.00    +0.000 OA
ATOM     20  H   UNL     1       1.487   1.343  18.052  0.00  0.00    +0.000 HD
ATOM     21  H   UNL     1       3.225   1.466  18.103  0.00  0.00    +0.000 HD
ENDBRANCH   1  18
TORSDOF 2
ENDMDL
MODEL 8
REMARK VINA RESULT:      -7.2      1.889      3.969
REMARK  Name = 
REMARK  2 active torsions:
REMARK  status: ('A' for Active; 'I' for Inactive)
REMARK    1  A    between atoms: C_2  and  C_4
REMARK    2  A    between atoms: C_12  and  C_13
REMARK                            x       y       z     vdW  Elec       q    Type
REMARK                         _______ _______ _______ _____ _____    ______ ____
ROOT
ATOM      1  C   UNL     1       4.178   5.627  17.341  0.00  0.00    +0.000 A 
ATOM      2  N   UNL     1       4.284   4.272  17.086  0.00  0.00    +0.000 N 
ATOM      3  C   UNL     1       3.331   3.560  17.758  0.00  0.00    +0.000 A 
ATOM      4  C   UNL     1       3.136   2.188  17.855  0.00  0.00    +0.000 A 
ATOM      5  N   UNL     1       2.101   1.719  18.584  0.00  0.00    +0.000 NA
ATOM      6  C   UNL     1       1.268   2.598  19.173  0.00  0.00    +0.000 A 
ATOM      7  C   UNL     1       1.394   3.979  19.095  0.00  0.00    +0.000 A 
ATOM      8  C   UNL     1       2.493   4.484  18.378  0.00  0.00    +0.000 A 
ATOM      9  C   UNL     1       3.009   5.801  18.088  0.00  0.00    +0.000 A 
ATOM     10  H   UNL     1       5.022   3.876  16.516  0.00  0.00    +0.000 HD
ENDROOT
BRANCH   9  11
ATOM     11  C   UNL     1       2.446   7.095  18.485  0.00  0.00    +0.000 A 
ATOM     12  C   UNL     1       2.250   8.107  17.535  0.00  0.00    +0.000 A 
ATOM     13  C   UNL     1       1.728   9.349  17.907  0.00  0.00    +0.000 A 
ATOM     14  C   UNL     1       1.358   9.584  19.228  0.00  0.00    +0.000 A 
ATOM     15  C   UNL     1       1.538   8.588  20.184  0.00  0.00    +0.000 A 
ATOM     16  C   UNL     1       2.107   7.364  19.821  0.00  0.00    +0.000 A 
ENDBRANCH   9  11
BRANCH   1  18
ATOM     17  N   UNL     1       5.133   6.787  15.485  0.00  0.00    +0.000 N 
ATOM     18  C   UNL     1       5.187   6.513  16.819  0.00  0.00    +0.000 C 
ATOM     19  O   UNL     1       6.030   7.063  17.523  0.00  0.00    +0.000 OA
ATOM     20  H   UNL     1       5.831   7.407  15.095  0.00  0.00    +0.000 HD
ATOM     21  H   UNL     1       4.408   6.422  14.887  0.00  0.00    +0.000 HD
ENDBRANCH   1  18
TORSDOF 2
ENDMDL
MODEL 9
REMARK VINA RESULT:      -7.2      1.881      3.803
REMARK  Name = 
REMARK  2 active torsions:
REMARK  status: ('A' for Active; 'I' for Inactive)
REMARK    1  A    between atoms: C_2  and  C_4
REMARK    2  A    between atoms: C_12  and  C_13
REMARK                            x       y       z     vdW  Elec       q    Type
REMARK                         _______ _______ _______ _____ _____    ______ ____
ROOT
ATOM      1  C   UNL     1       4.196   5.621  17.334  0.00  0.00    +0.000 A 
ATOM      2  N   UNL     1       4.301   4.266  17.079  0.00  0.00    +0.000 N 
ATOM      3  C   UNL     1       3.346   3.556  17.747  0.00  0.00    +0.000 A 
ATOM      4  C   UNL     1       3.149   2.183  17.844  0.00  0.00    +0.000 A 
ATOM      5  N   UNL     1       2.111   1.715  18.569  0.00  0.00    +0.000 NA
ATOM      6  C   UNL     1       1.276   2.596  19.154  0.00  0.00    +0.000 A 
ATOM      7  C   UNL     1       1.403   3.976  19.077  0.00  0.00    +0.000 A 
ATOM      8  C   UNL     1       2.506   4.480  18.364  0.00  0.00    +0.000 A 
ATOM      9  C   UNL     1       3.024   5.797  18.076  0.00  0.00    +0.000 A 
ATOM     10  H   UNL     1       5.042   3.869  16.511  0.00  0.00    +0.000 HD
ENDROOT
BRANCH   9  11
ATOM     11  C   UNL     1       2.461   7.091  18.471  0.00  0.00    +0.000 A 
ATOM     12  C   UNL     1       2.102   7.333  19.804  0.00  0.00    +0.000 A 
ATOM     13  C   UNL     1       1.551   8.560  20.187  0.00  0.00    +0.000 A 
ATOM     14  C   UNL     1       1.387   9.575  19.249  0.00  0.00    +0.000 A 
ATOM     15  C   UNL     1       1.745   9.355  17.923  0.00  0.00    +0.000 A 
ATOM     16  C   UNL     1       2.250   8.112  17.531  0.00  0.00    +0.000 A 
ENDBRANCH   9  11
BRANCH   1  18
ATOM     17  N   UNL     1       5.184   6.747  15.474  0.00  0.00    +0.000 N 
ATOM     18  C   UNL     1       5.208   6.506  16.816  0.00  0.00    +0.000 C 
ATOM     19  O   UNL     1       6.027   7.083  17.526  0.00  0.00    +0.000 OA
ATOM     20  H   UNL     1       5.885   7.366  15.087  0.00  0.00    +0.000 HD
ATOM     21  H   UNL     1       4.479   6.359  14.867  0.00  0.00    +0.000 HD
ENDBRANCH   1  18
TORSDOF 2
ENDMDL
