MODEL 1
REMARK VINA RESULT:      -9.0      0.000      0.000
REMARK  Name = 
REMARK  4 active torsions:
REMARK  status: ('A' for Active; 'I' for Inactive)
REMARK    1  A    between atoms: C_2  and  C_19
REMARK    2  A    between atoms: N_3  and  N_4
REMARK    3  A    between atoms: N_4  and  C_5
REMARK    4  A    between atoms: C_23  and  O_24
REMARK                            x       y       z     vdW  Elec       q    Type
REMARK                         _______ _______ _______ _____ _____    ______ ____
ROOT
ATOM      1  N   UNL     1       2.677   7.118  18.290  0.00  0.00    +0.000 N 
ATOM      2  H   UNL     1       3.332   7.768  17.833  0.00  0.00    +0.000 HD
ENDROOT
BRANCH   1   3
ATOM      3  C   UNL     1       3.383   5.906  18.617  0.00  0.00    +0.000 A 
ATOM      4  C   UNL     1       4.755   5.865  18.214  0.00  0.00    +0.000 A 
ATOM      5  C   UNL     1       5.384   6.865  17.429  0.00  0.00    +0.000 A 
ATOM      6  C   UNL     1       6.717   6.750  17.031  0.00  0.00    +0.000 A 
ATOM      7  C   UNL     1       7.453   5.641  17.420  0.00  0.00    +0.000 A 
ATOM      8  C   UNL     1       6.847   4.658  18.203  0.00  0.00    +0.000 A 
ATOM      9  C   UNL     1       5.518   4.752  18.602  0.00  0.00    +0.000 A 
ATOM     10  N   UNL     1       5.023   3.755  19.339  0.00  0.00    +0.000 NA
ATOM     11  C   UNL     1       3.745   3.787  19.727  0.00  0.00    +0.000 A 
ATOM     12  C   UNL     1       3.314   2.707  20.486  0.00  0.00    +0.000 A 
ATOM     13  C   UNL     1       2.002   2.592  20.937  0.00  0.00    +0.000 A 
ATOM     14  C   UNL     1       1.100   3.596  20.643  0.00  0.00    +0.000 A 
ATOM     15  C   UNL     1       1.525   4.709  19.916  0.00  0.00    +0.000 A 
ATOM     16  C   UNL     1       2.851   4.833  19.410  0.00  0.00    +0.000 A 
ENDBRANCH   1   3
BRANCH   1  19
ATOM     17  O   UNL     1       1.334   9.416  17.892  0.00  0.00    +0.000 OA
ATOM     18  C   UNL     1       1.348   8.948  19.029  0.00  0.00    +0.000 C 
ATOM     19  N   UNL     1       2.018   7.771  19.335  0.00  0.00    +0.000 N 
ATOM     20  H   UNL     1       1.900   7.245  20.196  0.00  0.00    +0.000 HD
BRANCH  18  21
ATOM     21  C   UNL     1       0.663   9.659  20.150  0.00  0.00    +0.000 A 
ATOM     22  C   UNL     1      -0.115  10.788  19.844  0.00  0.00    +0.000 A 
ATOM     23  C   UNL     1      -0.737  11.520  20.859  0.00  0.00    +0.000 A 
ATOM     24  C   UNL     1      -0.582  11.137  22.191  0.00  0.00    +0.000 A 
ATOM     25  C   UNL     1       0.197  10.026  22.491  0.00  0.00    +0.000 A 
ATOM     26  C   UNL     1       0.820   9.285  21.490  0.00  0.00    +0.000 A 
BRANCH  25  27
ATOM     27  O   UNL     1       0.393   9.625  23.780  0.00  0.00    +0.000 OA
ATOM     28  H   UNL     1       1.121   8.980  23.803  0.00  0.00    +0.000 HD
ENDBRANCH  25  27
ENDBRANCH  18  21
ENDBRANCH   1  19
TORSDOF 4
ENDMDL
MODEL 2
REMARK VINA RESULT:      -8.9      0.891      1.316
REMARK  Name = 
REMARK  4 active torsions:
REMARK  status: ('A' for Active; 'I' for Inactive)
REMARK    1  A    between atoms: C_2  and  C_19
REMARK    2  A    between atoms: N_3  and  N_4
REMARK    3  A    between atoms: N_4  and  C_5
REMARK    4  A    between atoms: C_23  and  O_24
REMARK                            x       y       z     vdW  Elec       q    Type
REMARK                         _______ _______ _______ _____ _____    ______ ____
ROOT
ATOM      1  N   UNL     1       2.690   7.199  18.568  0.00  0.00    +0.000 N 
ATOM      2  H   UNL     1       3.353   7.878  18.165  0.00  0.00    +0.000 HD
ENDROOT
BRANCH   1   3
ATOM      3  C   UNL     1       3.377   5.951  18.778  0.00  0.00    +0.000 A 
ATOM      4  C   UNL     1       4.717   5.895  18.282  0.00  0.00    +0.000 A 
ATOM      5  C   UNL     1       5.325   6.921  17.513  0.00  0.00    +0.000 A 
ATOM      6  C   UNL     1       6.624   6.792  17.020  0.00  0.00    +0.000 A 
ATOM      7  C   UNL     1       7.348   5.642  17.295  0.00  0.00    +0.000 A 
ATOM      8  C   UNL     1       6.764   4.633  18.061  0.00  0.00    +0.000 A 
ATOM      9  C   UNL     1       5.468   4.740  18.554  0.00  0.00    +0.000 A 
ATOM     10  N   UNL     1       4.992   3.717  19.265  0.00  0.00    +0.000 NA
ATOM     11  C   UNL     1       3.743   3.762  19.739  0.00  0.00    +0.000 A 
ATOM     12  C   UNL     1       3.329   2.653  20.464  0.00  0.00    +0.000 A 
ATOM     13  C   UNL     1       2.046   2.548  20.996  0.00  0.00    +0.000 A 
ATOM     14  C   UNL     1       1.159   3.593  20.820  0.00  0.00    +0.000 A 
ATOM     15  C   UNL     1       1.571   4.733  20.129  0.00  0.00    +0.000 A 
ATOM     16  C   UNL     1       2.864   4.850  19.543  0.00  0.00    +0.000 A 
ENDBRANCH   1   3
BRANCH   1  19
ATOM     17  O   UNL     1       1.189   9.423  18.341  0.00  0.00    +0.000 OA
ATOM     18  C   UNL     1       1.293   8.910  19.454  0.00  0.00    +0.000 C 
ATOM     19  N   UNL     1       2.050   7.766  19.673  0.00  0.00    +0.000 N 
ATOM     20  H   UNL     1       2.011   7.199  20.514  0.00  0.00    +0.000 HD
BRANCH  18  21
ATOM     21  C   UNL     1       0.628   9.529  20.639  0.00  0.00    +0.000 A 
ATOM     22  C   UNL     1       0.796   8.916  21.892  0.00  0.00    +0.000 A 
ATOM     23  C   UNL     1       0.155   9.424  23.025  0.00  0.00    +0.000 A 
ATOM     24  C   UNL     1      -0.666  10.546  22.919  0.00  0.00    +0.000 A 
ATOM     25  C   UNL     1      -0.838  11.145  21.676  0.00  0.00    +0.000 A 
ATOM     26  C   UNL     1      -0.204  10.651  20.540  0.00  0.00    +0.000 A 
BRANCH  25  27
ATOM     27  O   UNL     1      -1.646  12.233  21.519  0.00  0.00    +0.000 OA
ATOM     28  H   UNL     1      -1.338  12.942  22.109  0.00  0.00    +0.000 HD
ENDBRANCH  25  27
ENDBRANCH  18  21
ENDBRANCH   1  19
TORSDOF 4
ENDMDL
MODEL 3
REMARK VINA RESULT:      -8.8      1.346      1.346
REMARK  Name = 
REMARK  4 active torsions:
REMARK  status: ('A' for Active; 'I' for Inactive)
REMARK    1  A    between atoms: C_2  and  C_19
REMARK    2  A    between atoms: N_3  and  N_4
REMARK    3  A    between atoms: N_4  and  C_5
REMARK    4  A    between atoms: C_23  and  O_24
REMARK                            x       y       z     vdW  Elec       q    Type
REMARK                         _______ _______ _______ _____ _____    ______ ____
ROOT
ATOM      1  N   UNL     1       3.251   7.237  17.948  0.00  0.00    +0.000 N 
ATOM      2  H   UNL     1       4.196   7.645  18.002  0.00  0.00    +0.000 HD
ENDROOT
BRANCH   1   3
ATOM      3  C   UNL     1       3.370   5.802  17.907  0.00  0.00    +0.000 A 
ATOM      4  C   UNL     1       4.327   5.290  16.976  0.00  0.00    +0.000 A 
ATOM      5  C   UNL     1       5.037   6.089  16.043  0.00  0.00    +0.000 A 
ATOM      6  C   UNL     1       5.929   5.526  15.130  0.00  0.00    +0.000 A 
ATOM      7  C   UNL     1       6.142   4.157  15.137  0.00  0.00    +0.000 A 
ATOM      8  C   UNL     1       5.458   3.363  16.059  0.00  0.00    +0.000 A 
ATOM      9  C   UNL     1       4.560   3.905  16.971  0.00  0.00    +0.000 A 
ATOM     10  N   UNL     1       3.944   3.064  17.805  0.00  0.00    +0.000 NA
ATOM     11  C   UNL     1       3.053   3.533  18.684  0.00  0.00    +0.000 A 
ATOM     12  C   UNL     1       2.459   2.588  19.508  0.00  0.00    +0.000 A 
ATOM     13  C   UNL     1       1.493   2.926  20.452  0.00  0.00    +0.000 A 
ATOM     14  C   UNL     1       1.129   4.252  20.595  0.00  0.00    +0.000 A 
ATOM     15  C   UNL     1       1.746   5.221  19.803  0.00  0.00    +0.000 A 
ATOM     16  C   UNL     1       2.708   4.897  18.804  0.00  0.00    +0.000 A 
ENDBRANCH   1   3
BRANCH   1  19
ATOM     17  O   UNL     1       1.825   9.485  17.552  0.00  0.00    +0.000 OA
ATOM     18  C   UNL     1       1.745   8.939  18.651  0.00  0.00    +0.000 C 
ATOM     19  N   UNL     1       2.446   7.780  18.953  0.00  0.00    +0.000 N 
ATOM     20  H   UNL     1       2.268   7.189  19.759  0.00  0.00    +0.000 HD
BRANCH  18  21
ATOM     21  C   UNL     1       0.902   9.533  19.732  0.00  0.00    +0.000 A 
ATOM     22  C   UNL     1      -0.109  10.437  19.366  0.00  0.00    +0.000 A 
ATOM     23  C   UNL     1      -0.893  11.060  20.341  0.00  0.00    +0.000 A 
ATOM     24  C   UNL     1      -0.672  10.793  21.691  0.00  0.00    +0.000 A 
ATOM     25  C   UNL     1       0.337   9.906  22.051  0.00  0.00    +0.000 A 
ATOM     26  C   UNL     1       1.124   9.276  21.091  0.00  0.00    +0.000 A 
BRANCH  25  27
ATOM     27  O   UNL     1       0.603   9.628  23.359  0.00  0.00    +0.000 OA
ATOM     28  H   UNL     1       1.557   9.730  23.515  0.00  0.00    +0.000 HD
ENDBRANCH  25  27
ENDBRANCH  18  21
ENDBRANCH   1  19
TORSDOF 4
ENDMDL
MODEL 4
REMARK VINA RESULT:      -8.8      1.415      1.649
REMARK  Name = 
REMARK  4 active torsions:
REMARK  status: ('A' for Active; 'I' for Inactive)
REMARK    1  A    between atoms: C_2  and  C_19
REMARK    2  A    between atoms: N_3  and  N_4
REMARK    3  A    between atoms: N_4  and  C_5
REMARK    4  A    between atoms: C_23  and  O_24
REMARK                            x       y       z     vdW  Elec       q    Type
REMARK                         _______ _______ _______ _____ _____    ______ ____
ROOT
ATOM      1  N   UNL     1       2.890   7.276  18.225  0.00  0.00    +0.000 N 
ATOM      2  H   UNL     1       3.777   7.789  18.117  0.00  0.00    +0.000 HD
ENDROOT
BRANCH   1   3
ATOM      3  C   UNL     1       3.158   5.865  18.124  0.00  0.00    +0.000 A 
ATOM      4  C   UNL     1       4.160   5.495  17.173  0.00  0.00    +0.000 A 
ATOM      5  C   UNL     1       4.778   6.403  16.274  0.00  0.00    +0.000 A 
ATOM      6  C   UNL     1       5.721   5.975  15.338  0.00  0.00    +0.000 A 
ATOM      7  C   UNL     1       6.076   4.636  15.288  0.00  0.00    +0.000 A 
ATOM      8  C   UNL     1       5.483   3.738  16.176  0.00  0.00    +0.000 A 
ATOM      9  C   UNL     1       4.536   4.144  17.110  0.00  0.00    +0.000 A 
ATOM     10  N   UNL     1       4.016   3.209  17.908  0.00  0.00    +0.000 NA
ATOM     11  C   UNL     1       3.084   3.544  18.805  0.00  0.00    +0.000 A 
ATOM     12  C   UNL     1       2.596   2.508  19.589  0.00  0.00    +0.000 A 
ATOM     13  C   UNL     1       1.604   2.704  20.546  0.00  0.00    +0.000 A 
ATOM     14  C   UNL     1       1.103   3.977  20.744  0.00  0.00    +0.000 A 
ATOM     15  C   UNL     1       1.612   5.038  19.994  0.00  0.00    +0.000 A 
ATOM     16  C   UNL     1       2.599   4.859  18.982  0.00  0.00    +0.000 A 
ENDBRANCH   1   3
BRANCH   1  19
ATOM     17  O   UNL     1       1.461   9.557  18.242  0.00  0.00    +0.000 OA
ATOM     18  C   UNL     1       1.512   8.903  19.282  0.00  0.00    +0.000 C 
ATOM     19  N   UNL     1       2.228   7.716  19.375  0.00  0.00    +0.000 N 
ATOM     20  H   UNL     1       2.145   7.048  20.134  0.00  0.00    +0.000 HD
BRANCH  18  21
ATOM     21  C   UNL     1       0.824   9.386  20.516  0.00  0.00    +0.000 A 
ATOM     22  C   UNL     1       0.248   8.433  21.373  0.00  0.00    +0.000 A 
ATOM     23  C   UNL     1      -0.451   8.832  22.515  0.00  0.00    +0.000 A 
ATOM     24  C   UNL     1      -0.590  10.188  22.810  0.00  0.00    +0.000 A 
ATOM     25  C   UNL     1      -0.028  11.129  21.956  0.00  0.00    +0.000 A 
ATOM     26  C   UNL     1       0.674  10.746  20.816  0.00  0.00    +0.000 A 
BRANCH  25  27
ATOM     27  O   UNL     1      -0.154  12.467  22.193  0.00  0.00    +0.000 OA
ATOM     28  H   UNL     1      -0.950  12.618  22.728  0.00  0.00    +0.000 HD
ENDBRANCH  25  27
ENDBRANCH  18  21
ENDBRANCH   1  19
TORSDOF 4
ENDMDL
MODEL 5
REMARK VINA RESULT:      -8.8      1.705      4.415
REMARK  Name = 
REMARK  4 active torsions:
REMARK  status: ('A' for Active; 'I' for Inactive)
REMARK    1  A    between atoms: C_2  and  C_19
REMARK    2  A    between atoms: N_3  and  N_4
REMARK    3  A    between atoms: N_4  and  C_5
REMARK    4  A    between atoms: C_23  and  O_24
REMARK                            x       y       z     vdW  Elec       q    Type
REMARK                         _______ _______ _______ _____ _____    ______ ____
ROOT
ATOM      1  N   UNL     1       2.928   6.890  19.783  0.00  0.00    +0.000 N 
ATOM      2  H   UNL     1       2.603   6.536  20.694  0.00  0.00    +0.000 HD
ENDROOT
BRANCH   1   3
ATOM      3  C   UNL     1       3.174   5.768  18.913  0.00  0.00    +0.000 A 
ATOM      4  C   UNL     1       2.343   4.625  19.134  0.00  0.00    +0.000 A 
ATOM      5  C   UNL     1       1.422   4.505  20.207  0.00  0.00    +0.000 A 
ATOM      6  C   UNL     1       0.668   3.346  20.395  0.00  0.00    +0.000 A 
ATOM      7  C   UNL     1       0.807   2.288  19.511  0.00  0.00    +0.000 A 
ATOM      8  C   UNL     1       1.701   2.401  18.445  0.00  0.00    +0.000 A 
ATOM      9  C   UNL     1       2.467   3.544  18.246  0.00  0.00    +0.000 A 
ATOM     10  N   UNL     1       3.304   3.553  17.206  0.00  0.00    +0.000 NA
ATOM     11  C   UNL     1       4.079   4.619  16.986  0.00  0.00    +0.000 A 
ATOM     12  C   UNL     1       4.921   4.540  15.886  0.00  0.00    +0.000 A 
ATOM     13  C   UNL     1       5.804   5.563  15.550  0.00  0.00    +0.000 A 
ATOM     14  C   UNL     1       5.828   6.710  16.321  0.00  0.00    +0.000 A 
ATOM     15  C   UNL     1       4.958   6.824  17.407  0.00  0.00    +0.000 A 
ATOM     16  C   UNL     1       4.073   5.777  17.794  0.00  0.00    +0.000 A 
ENDBRANCH   1   3
BRANCH   1  19
ATOM     17  O   UNL     1       1.496   8.412  21.479  0.00  0.00    +0.000 OA
ATOM     18  C   UNL     1       1.360   8.610  20.272  0.00  0.00    +0.000 C 
ATOM     19  N   UNL     1       2.050   7.873  19.319  0.00  0.00    +0.000 N 
ATOM     20  H   UNL     1       2.124   8.121  18.338  0.00  0.00    +0.000 HD
BRANCH  18  21
ATOM     21  C   UNL     1       0.404   9.645  19.778  0.00  0.00    +0.000 A 
ATOM     22  C   UNL     1      -0.038  10.629  20.680  0.00  0.00    +0.000 A 
ATOM     23  C   UNL     1      -0.971  11.591  20.284  0.00  0.00    +0.000 A 
ATOM     24  C   UNL     1      -1.479  11.578  18.985  0.00  0.00    +0.000 A 
ATOM     25  C   UNL     1      -1.048  10.598  18.098  0.00  0.00    +0.000 A 
ATOM     26  C   UNL     1      -0.117   9.635  18.478  0.00  0.00    +0.000 A 
BRANCH  25  27
ATOM     27  O   UNL     1      -1.531  10.534  16.824  0.00  0.00    +0.000 OA
ATOM     28  H   UNL     1      -1.381  11.389  16.386  0.00  0.00    +0.000 HD
ENDBRANCH  25  27
ENDBRANCH  18  21
ENDBRANCH   1  19
TORSDOF 4
ENDMDL
MODEL 6
REMARK VINA RESULT:      -8.7      3.636      8.074
REMARK  Name = 
REMARK  4 active torsions:
REMARK  status: ('A' for Active; 'I' for Inactive)
REMARK    1  A    between atoms: C_2  and  C_19
REMARK    2  A    between atoms: N_3  and  N_4
REMARK    3  A    between atoms: N_4  and  C_5
REMARK    4  A    between atoms: C_23  and  O_24
REMARK                            x       y       z     vdW  Elec       q    Type
REMARK                         _______ _______ _______ _____ _____    ______ ____
ROOT
ATOM      1  N   UNL     1       5.541   4.054  18.176  0.00  0.00    +0.000 N 
ATOM      2  H   UNL     1       6.346   4.591  18.530  0.00  0.00    +0.000 HD
ENDROOT
BRANCH   1   3
ATOM      3  C   UNL     1       4.331   4.645  18.686  0.00  0.00    +0.000 A 
ATOM      4  C   UNL     1       3.672   3.906  19.717  0.00  0.00    +0.000 A 
ATOM      5  C   UNL     1       4.069   2.613  20.149  0.00  0.00    +0.000 A 
ATOM      6  C   UNL     1       3.361   1.922  21.133  0.00  0.00    +0.000 A 
ATOM      7  C   UNL     1       2.250   2.511  21.717  0.00  0.00    +0.000 A 
ATOM      8  C   UNL     1       1.859   3.788  21.309  0.00  0.00    +0.000 A 
ATOM      9  C   UNL     1       2.547   4.488  20.324  0.00  0.00    +0.000 A 
ATOM     10  N   UNL     1       2.089   5.697  19.993  0.00  0.00    +0.000 NA
ATOM     11  C   UNL     1       2.701   6.399  19.035  0.00  0.00    +0.000 A 
ATOM     12  C   UNL     1       2.155   7.643  18.751  0.00  0.00    +0.000 A 
ATOM     13  C   UNL     1       2.671   8.474  17.760  0.00  0.00    +0.000 A 
ATOM     14  C   UNL     1       3.781   8.060  17.048  0.00  0.00    +0.000 A 
ATOM     15  C   UNL     1       4.368   6.830  17.347  0.00  0.00    +0.000 A 
ATOM     16  C   UNL     1       3.838   5.946  18.329  0.00  0.00    +0.000 A 
ENDBRANCH   1   3
BRANCH   1  19
ATOM     17  O   UNL     1       7.509   5.247  16.780  0.00  0.00    +0.000 OA
ATOM     18  C   UNL     1       6.698   4.562  16.160  0.00  0.00    +0.000 C 
ATOM     19  N   UNL     1       5.644   3.913  16.789  0.00  0.00    +0.000 N 
ATOM     20  H   UNL     1       5.072   3.190  16.363  0.00  0.00    +0.000 HD
BRANCH  18  21
ATOM     21  C   UNL     1       6.795   4.431  14.675  0.00  0.00    +0.000 A 
ATOM     22  C   UNL     1       7.728   5.233  13.996  0.00  0.00    +0.000 A 
ATOM     23  C   UNL     1       7.826   5.187  12.603  0.00  0.00    +0.000 A 
ATOM     24  C   UNL     1       6.989   4.347  11.872  0.00  0.00    +0.000 A 
ATOM     25  C   UNL     1       6.059   3.562  12.544  0.00  0.00    +0.000 A 
ATOM     26  C   UNL     1       5.952   3.595  13.932  0.00  0.00    +0.000 A 
BRANCH  25  27
ATOM     27  O   UNL     1       5.206   2.738  11.871  0.00  0.00    +0.000 OA
ATOM     28  H   UNL     1       5.536   1.826  11.930  0.00  0.00    +0.000 HD
ENDBRANCH  25  27
ENDBRANCH  18  21
ENDBRANCH   1  19
TORSDOF 4
ENDMDL
MODEL 7
REMARK VINA RESULT:      -8.7      1.734      2.497
REMARK  Name = 
REMARK  4 active torsions:
REMARK  status: ('A' for Active; 'I' for Inactive)
REMARK    1  A    between atoms: C_2  and  C_19
REMARK    2  A    between atoms: N_3  and  N_4
REMARK    3  A    between atoms: N_4  and  C_5
REMARK    4  A    between atoms: C_23  and  O_24
REMARK                            x       y       z     vdW  Elec       q    Type
REMARK                         _______ _______ _______ _____ _____    ______ ____
ROOT
ATOM      1  N   UNL     1       3.049   6.985  19.534  0.00  0.00    +0.000 N 
ATOM      2  H   UNL     1       2.926   6.751  20.530  0.00  0.00    +0.000 HD
ENDROOT
BRANCH   1   3
ATOM      3  C   UNL     1       3.045   5.764  18.770  0.00  0.00    +0.000 A 
ATOM      4  C   UNL     1       3.983   5.711  17.691  0.00  0.00    +0.000 A 
ATOM      5  C   UNL     1       4.786   6.806  17.280  0.00  0.00    +0.000 A 
ATOM      6  C   UNL     1       5.654   6.706  16.191  0.00  0.00    +0.000 A 
ATOM      7  C   UNL     1       5.748   5.508  15.499  0.00  0.00    +0.000 A 
ATOM      8  C   UNL     1       4.971   4.421  15.904  0.00  0.00    +0.000 A 
ATOM      9  C   UNL     1       4.096   4.505  16.981  0.00  0.00    +0.000 A 
ATOM     10  N   UNL     1       3.385   3.416  17.284  0.00  0.00    +0.000 NA
ATOM     11  C   UNL     1       2.512   3.453  18.294  0.00  0.00    +0.000 A 
ATOM     12  C   UNL     1       1.814   2.278  18.536  0.00  0.00    +0.000 A 
ATOM     13  C   UNL     1       0.853   2.177  19.539  0.00  0.00    +0.000 A 
ATOM     14  C   UNL     1       0.599   3.274  20.340  0.00  0.00    +0.000 A 
ATOM     15  C   UNL     1       1.321   4.451  20.138  0.00  0.00    +0.000 A 
ATOM     16  C   UNL     1       2.282   4.593  19.096  0.00  0.00    +0.000 A 
ENDBRANCH   1   3
BRANCH   1  19
ATOM     17  O   UNL     1       1.567   8.287  21.365  0.00  0.00    +0.000 OA
ATOM     18  C   UNL     1       1.415   8.588  20.182  0.00  0.00    +0.000 C 
ATOM     19  N   UNL     1       2.128   7.969  19.164  0.00  0.00    +0.000 N 
ATOM     20  H   UNL     1       2.186   8.308  18.209  0.00  0.00    +0.000 HD
BRANCH  18  21
ATOM     21  C   UNL     1       0.414   9.624  19.786  0.00  0.00    +0.000 A 
ATOM     22  C   UNL     1      -0.094  10.473  20.784  0.00  0.00    +0.000 A 
ATOM     23  C   UNL     1      -1.070  11.426  20.478  0.00  0.00    +0.000 A 
ATOM     24  C   UNL     1      -1.554  11.536  19.175  0.00  0.00    +0.000 A 
ATOM     25  C   UNL     1      -1.057  10.688  18.192  0.00  0.00    +0.000 A 
ATOM     26  C   UNL     1      -0.083   9.736  18.482  0.00  0.00    +0.000 A 
BRANCH  25  27
ATOM     27  O   UNL     1      -1.513  10.746  16.908  0.00  0.00    +0.000 OA
ATOM     28  H   UNL     1      -1.772  11.661  16.707  0.00  0.00    +0.000 HD
ENDBRANCH  25  27
ENDBRANCH  18  21
ENDBRANCH   1  19
TORSDOF 4
ENDMDL
MODEL 8
REMARK VINA RESULT:      -8.7      0.120      3.630
REMARK  Name = 
REMARK  4 active torsions:
REMARK  status: ('A' for Active; 'I' for Inactive)
REMARK    1  A    between atoms: C_2  and  C_19
REMARK    2  A    between atoms: N_3  and  N_4
REMARK    3  A    between atoms: N_4  and  C_5
REMARK    4  A    between atoms: C_23  and  O_24
REMARK                            x       y       z     vdW  Elec       q    Type
REMARK                         _______ _______ _______ _____ _____    ______ ____
ROOT
ATOM      1  N   UNL     1       2.539   6.975  18.269  0.00  0.00    +0.000 N 
ATOM      2  H   UNL     1       3.008   7.641  17.638  0.00  0.00    +0.000 HD
ENDROOT
BRANCH   1   3
ATOM      3  C   UNL     1       3.482   5.952  18.643  0.00  0.00    +0.000 A 
ATOM      4  C   UNL     1       2.940   4.858  19.388  0.00  0.00    +0.000 A 
ATOM      5  C   UNL     1       1.605   4.804  19.865  0.00  0.00    +0.000 A 
ATOM      6  C   UNL     1       1.144   3.727  20.624  0.00  0.00    +0.000 A 
ATOM      7  C   UNL     1       2.001   2.677  20.912  0.00  0.00    +0.000 A 
ATOM      8  C   UNL     1       3.313   2.715  20.436  0.00  0.00    +0.000 A 
ATOM      9  C   UNL     1       3.792   3.782  19.686  0.00  0.00    +0.000 A 
ATOM     10  N   UNL     1       5.065   3.734  19.287  0.00  0.00    +0.000 NA
ATOM     11  C   UNL     1       5.579   4.748  18.584  0.00  0.00    +0.000 A 
ATOM     12  C   UNL     1       6.911   4.616  18.215  0.00  0.00    +0.000 A 
ATOM     13  C   UNL     1       7.587   5.604  17.504  0.00  0.00    +0.000 A 
ATOM     14  C   UNL     1       6.906   6.746  17.128  0.00  0.00    +0.000 A 
ATOM     15  C   UNL     1       5.556   6.878  17.454  0.00  0.00    +0.000 A 
ATOM     16  C   UNL     1       4.851   5.900  18.214  0.00  0.00    +0.000 A 
ENDBRANCH   1   3
BRANCH   1  19
ATOM     17  O   UNL     1       1.409   9.384  17.868  0.00  0.00    +0.000 OA
ATOM     18  C   UNL     1       1.354   8.904  18.999  0.00  0.00    +0.000 C 
ATOM     19  N   UNL     1       1.913   7.671  19.307  0.00  0.00    +0.000 N 
ATOM     20  H   UNL     1       1.729   7.148  20.157  0.00  0.00    +0.000 HD
BRANCH  18  21
ATOM     21  C   UNL     1       0.705   9.660  20.112  0.00  0.00    +0.000 A 
ATOM     22  C   UNL     1       0.006  10.838  19.798  0.00  0.00    +0.000 A 
ATOM     23  C   UNL     1      -0.577  11.610  20.806  0.00  0.00    +0.000 A 
ATOM     24  C   UNL     1      -0.464  11.218  22.139  0.00  0.00    +0.000 A 
ATOM     25  C   UNL     1       0.237  10.058  22.449  0.00  0.00    +0.000 A 
ATOM     26  C   UNL     1       0.820   9.277  21.454  0.00  0.00    +0.000 A 
BRANCH  25  27
ATOM     27  O   UNL     1       0.390   9.645  23.739  0.00  0.00    +0.000 OA
ATOM     28  H   UNL     1       1.290   9.293  23.853  0.00  0.00    +0.000 HD
ENDBRANCH  25  27
ENDBRANCH  18  21
ENDBRANCH   1  19
TORSDOF 4
ENDMDL
MODEL 9
REMARK VINA RESULT:      -8.6      1.308      1.611
REMARK  Name = 
REMARK  4 active torsions:
REMARK  status: ('A' for Active; 'I' for Inactive)
REMARK    1  A    between atoms: C_2  and  C_19
REMARK    2  A    between atoms: N_3  and  N_4
REMARK    3  A    between atoms: N_4  and  C_5
REMARK    4  A    between atoms: C_23  and  O_24
REMARK                            x       y       z     vdW  Elec       q    Type
REMARK                         _______ _______ _______ _____ _____    ______ ____
ROOT
ATOM      1  N   UNL     1       2.823   6.980  17.648  0.00  0.00    +0.000 N 
ATOM      2  H   UNL     1       3.453   7.665  17.204  0.00  0.00    +0.000 HD
ENDROOT
BRANCH   1   3
ATOM      3  C   UNL     1       3.568   5.779  17.925  0.00  0.00    +0.000 A 
ATOM      4  C   UNL     1       4.991   5.925  17.928  0.00  0.00    +0.000 A 
ATOM      5  C   UNL     1       5.670   7.115  17.560  0.00  0.00    +0.000 A 
ATOM      6  C   UNL     1       7.064   7.185  17.542  0.00  0.00    +0.000 A 
ATOM      7  C   UNL     1       7.809   6.073  17.905  0.00  0.00    +0.000 A 
ATOM      8  C   UNL     1       7.150   4.902  18.282  0.00  0.00    +0.000 A 
ATOM      9  C   UNL     1       5.763   4.812  18.298  0.00  0.00    +0.000 A 
ATOM     10  N   UNL     1       5.224   3.645  18.660  0.00  0.00    +0.000 NA
ATOM     11  C   UNL     1       3.896   3.500  18.667  0.00  0.00    +0.000 A 
ATOM     12  C   UNL     1       3.424   2.253  19.052  0.00  0.00    +0.000 A 
ATOM     13  C   UNL     1       2.065   1.949  19.081  0.00  0.00    +0.000 A 
ATOM     14  C   UNL     1       1.150   2.926  18.740  0.00  0.00    +0.000 A 
ATOM     15  C   UNL     1       1.605   4.199  18.390  0.00  0.00    +0.000 A 
ATOM     16  C   UNL     1       2.990   4.525  18.315  0.00  0.00    +0.000 A 
ENDBRANCH   1   3
BRANCH   1  19
ATOM     17  O   UNL     1       1.901   9.505  17.506  0.00  0.00    +0.000 OA
ATOM     18  C   UNL     1       1.717   8.883  18.551  0.00  0.00    +0.000 C 
ATOM     19  N   UNL     1       2.161   7.579  18.724  0.00  0.00    +0.000 N 
ATOM     20  H   UNL     1       1.870   6.963  19.476  0.00  0.00    +0.000 HD
BRANCH  18  21
ATOM     21  C   UNL     1       1.030   9.532  19.708  0.00  0.00    +0.000 A 
ATOM     22  C   UNL     1       0.918   8.807  20.907  0.00  0.00    +0.000 A 
ATOM     23  C   UNL     1       0.241   9.346  22.004  0.00  0.00    +0.000 A 
ATOM     24  C   UNL     1      -0.339  10.611  21.914  0.00  0.00    +0.000 A 
ATOM     25  C   UNL     1      -0.236  11.321  20.724  0.00  0.00    +0.000 A 
ATOM     26  C   UNL     1       0.438  10.798  19.624  0.00  0.00    +0.000 A 
BRANCH  25  27
ATOM     27  O   UNL     1      -0.803  12.554  20.582  0.00  0.00    +0.000 OA
ATOM     28  H   UNL     1      -1.763  12.448  20.471  0.00  0.00    +0.000 HD
ENDBRANCH  25  27
ENDBRANCH  18  21
ENDBRANCH   1  19
TORSDOF 4
ENDMDL
