MODEL 1
REMARK VINA RESULT:      -7.2      0.000      0.000
REMARK  Name = 
REMARK  6 active torsions:
REMARK  status: ('A' for Active; 'I' for Inactive)
REMARK    1  A    between atoms: C_2  and  C_16
REMARK    2  A    between atoms: N_3  and  C_4
REMARK    3  A    between atoms: C_4  and  C_5
REMARK    4  A    between atoms: C_5  and  C_6
REMARK    5  A    between atoms: C_6  and  N_7
REMARK    6  A    between atoms: C_8  and  C_10
REMARK                            x       y       z     vdW  Elec       q    Type
REMARK                         _______ _______ _______ _____ _____    ______ ____
ROOT
ATOM      1  C   UNL     1       1.994   3.147  19.333  0.00  0.00    +0.000 C 
ENDROOT
BRANCH   1   4
ATOM      2  O   UNL     1       3.658   5.286  20.092  0.00  0.00    +0.000 OA
ATOM      3  C   UNL     1       2.559   5.533  19.607  0.00  0.00    +0.000 C 
ATOM      4  N   UNL     1       1.670   4.560  19.203  0.00  0.00    +0.000 N 
ATOM      5  H   UNL     1       0.854   4.811  18.661  0.00  0.00    +0.000 HD
BRANCH   3   6
ATOM      6  C   UNL     1       2.152   6.951  19.412  0.00  0.00    +0.000 A 
ATOM      7  C   UNL     1       2.540   7.588  18.224  0.00  0.00    +0.000 A 
ATOM      8  C   UNL     1       2.220   8.929  18.003  0.00  0.00    +0.000 A 
ATOM      9  C   UNL     1       1.522   9.650  18.975  0.00  0.00    +0.000 A 
ATOM     10 CL   UNL     1       1.164  11.307  18.640  0.00  0.00    +0.000 Cl
ATOM     11  C   UNL     1       1.151   9.024  20.172  0.00  0.00    +0.000 A 
ATOM     12 CL   UNL     1       0.322   9.870  21.433  0.00  0.00    +0.000 Cl
ATOM     13  C   UNL     1       1.461   7.675  20.391  0.00  0.00    +0.000 A 
ENDBRANCH   3   6
ENDBRANCH   1   4
BRANCH   1  14
ATOM     14  C   UNL     1       2.318   2.500  17.987  0.00  0.00    +0.000 C 
BRANCH  14  15
ATOM     15  C   UNL     1       3.754   1.979  17.951  0.00  0.00    +0.000 C 
BRANCH  15  16
ATOM     16  N   UNL     1       4.719   3.039  18.175  0.00  0.00    +0.000 N 
ATOM     17  C   UNL     1       5.017   3.976  17.205  0.00  0.00    +0.000 C 
ATOM     18  O   UNL     1       4.499   3.982  16.095  0.00  0.00    +0.000 OA
ATOM     19  H   UNL     1       5.159   3.153  19.085  0.00  0.00    +0.000 HD
BRANCH  17  20
ATOM     20  C   UNL     1       6.030   5.007  17.575  0.00  0.00    +0.000 A 
ATOM     21  C   UNL     1       6.171   6.137  16.778  0.00  0.00    +0.000 A 
ATOM     22  N   UNL     1       7.058   7.126  17.065  0.00  0.00    +0.000 NA
ATOM     23  C   UNL     1       7.797   6.930  18.180  0.00  0.00    +0.000 A 
ATOM     24  C   UNL     1       7.664   5.797  18.971  0.00  0.00    +0.000 A 
ATOM     25  N   UNL     1       6.780   4.805  18.697  0.00  0.00    +0.000 NA
ENDBRANCH  17  20
ENDBRANCH  15  16
ENDBRANCH  14  15
ENDBRANCH   1  14
TORSDOF 6
ENDMDL
MODEL 2
REMARK VINA RESULT:      -7.1      2.637      3.230
REMARK  Name = 
REMARK  6 active torsions:
REMARK  status: ('A' for Active; 'I' for Inactive)
REMARK    1  A    between atoms: C_2  and  C_16
REMARK    2  A    between atoms: N_3  and  C_4
REMARK    3  A    between atoms: C_4  and  C_5
REMARK    4  A    between atoms: C_5  and  C_6
REMARK    5  A    between atoms: C_6  and  N_7
REMARK    6  A    between atoms: C_8  and  C_10
REMARK                            x       y       z     vdW  Elec       q    Type
REMARK                         _______ _______ _______ _____ _____    ______ ____
ROOT
ATOM      1  C   UNL     1       3.371   4.415  17.599  0.00  0.00    +0.000 C 
ENDROOT
BRANCH   1   4
ATOM      2  O   UNL     1       4.095   7.130  17.461  0.00  0.00    +0.000 OA
ATOM      3  C   UNL     1       3.057   6.823  18.036  0.00  0.00    +0.000 C 
ATOM      4  N   UNL     1       2.613   5.523  18.160  0.00  0.00    +0.000 N 
ATOM      5  H   UNL     1       1.677   5.337  18.494  0.00  0.00    +0.000 HD
BRANCH   3   6
ATOM      6  C   UNL     1       2.204   7.893  18.619  0.00  0.00    +0.000 A 
ATOM      7  C   UNL     1       1.815   8.950  17.783  0.00  0.00    +0.000 A 
ATOM      8  C   UNL     1       1.045  10.002  18.284  0.00  0.00    +0.000 A 
ATOM      9  C   UNL     1       0.671  10.015  19.630  0.00  0.00    +0.000 A 
ATOM     10 CL   UNL     1      -0.275  11.349  20.186  0.00  0.00    +0.000 Cl
ATOM     11  C   UNL     1       1.075   8.971  20.474  0.00  0.00    +0.000 A 
ATOM     12 CL   UNL     1       0.680   8.946  22.158  0.00  0.00    +0.000 Cl
ATOM     13  C   UNL     1       1.837   7.909  19.969  0.00  0.00    +0.000 A 
ENDBRANCH   3   6
ENDBRANCH   1   4
BRANCH   1  14
ATOM     14  C   UNL     1       4.353   3.815  18.605  0.00  0.00    +0.000 C 
BRANCH  14  15
ATOM     15  C   UNL     1       5.798   4.149  18.241  0.00  0.00    +0.000 C 
BRANCH  15  16
ATOM     16  N   UNL     1       6.028   4.065  16.811  0.00  0.00    +0.000 N 
ATOM     17  C   UNL     1       6.836   4.966  16.144  0.00  0.00    +0.000 C 
ATOM     18  O   UNL     1       7.409   5.894  16.701  0.00  0.00    +0.000 OA
ATOM     19  H   UNL     1       5.643   3.294  16.270  0.00  0.00    +0.000 HD
BRANCH  17  20
ATOM     20  C   UNL     1       6.980   4.758  14.674  0.00  0.00    +0.000 A 
ATOM     21  C   UNL     1       6.187   3.807  14.042  0.00  0.00    +0.000 A 
ATOM     22  N   UNL     1       6.249   3.577  12.704  0.00  0.00    +0.000 NA
ATOM     23  C   UNL     1       7.143   4.337  12.032  0.00  0.00    +0.000 A 
ATOM     24  C   UNL     1       7.942   5.280  12.663  0.00  0.00    +0.000 A 
ATOM     25  N   UNL     1       7.886   5.521  13.997  0.00  0.00    +0.000 NA
ENDBRANCH  17  20
ENDBRANCH  15  16
ENDBRANCH  14  15
ENDBRANCH   1  14
TORSDOF 6
ENDMDL
MODEL 3
REMARK VINA RESULT:      -7.0      1.691      3.945
REMARK  Name = 
REMARK  6 active torsions:
REMARK  status: ('A' for Active; 'I' for Inactive)
REMARK    1  A    between atoms: C_2  and  C_16
REMARK    2  A    between atoms: N_3  and  C_4
REMARK    3  A    between atoms: C_4  and  C_5
REMARK    4  A    between atoms: C_5  and  C_6
REMARK    5  A    between atoms: C_6  and  N_7
REMARK    6  A    between atoms: C_8  and  C_10
REMARK                            x       y       z     vdW  Elec       q    Type
REMARK                         _______ _______ _______ _____ _____    ______ ____
ROOT
ATOM      1  C   UNL     1       5.344   6.085  16.661  0.00  0.00    +0.000 C 
ENDROOT
BRANCH   1   4
ATOM      2  O   UNL     1       4.061   5.985  19.163  0.00  0.00    +0.000 OA
ATOM      3  C   UNL     1       3.688   6.813  18.340  0.00  0.00    +0.000 C 
ATOM      4  N   UNL     1       4.250   6.945  17.087  0.00  0.00    +0.000 N 
ATOM      5  H   UNL     1       4.023   7.744  16.511  0.00  0.00    +0.000 HD
BRANCH   3   6
ATOM      6  C   UNL     1       2.592   7.753  18.697  0.00  0.00    +0.000 A 
ATOM      7  C   UNL     1       2.176   8.676  17.727  0.00  0.00    +0.000 A 
ATOM      8  C   UNL     1       1.177   9.608  18.018  0.00  0.00    +0.000 A 
ATOM      9  C   UNL     1       0.597   9.635  19.289  0.00  0.00    +0.000 A 
ATOM     10 CL   UNL     1      -0.628  10.818  19.584  0.00  0.00    +0.000 Cl
ATOM     11  C   UNL     1       1.023   8.728  20.268  0.00  0.00    +0.000 A 
ATOM     12 CL   UNL     1       0.375   8.735  21.871  0.00  0.00    +0.000 Cl
ATOM     13  C   UNL     1       2.017   7.785  19.973  0.00  0.00    +0.000 A 
ENDBRANCH   3   6
ENDBRANCH   1   4
BRANCH   1  14
ATOM     14  C   UNL     1       4.865   4.921  15.795  0.00  0.00    +0.000 C 
BRANCH  14  15
ATOM     15  C   UNL     1       5.199   3.575  16.435  0.00  0.00    +0.000 C 
BRANCH  15  16
ATOM     16  N   UNL     1       4.540   3.407  17.716  0.00  0.00    +0.000 N 
ATOM     17  C   UNL     1       3.189   3.134  17.815  0.00  0.00    +0.000 C 
ATOM     18  O   UNL     1       2.454   3.018  16.842  0.00  0.00    +0.000 OA
ATOM     19  H   UNL     1       5.077   3.426  18.580  0.00  0.00    +0.000 HD
BRANCH  17  20
ATOM     20  C   UNL     1       2.648   2.987  19.197  0.00  0.00    +0.000 A 
ATOM     21  C   UNL     1       3.504   2.607  20.224  0.00  0.00    +0.000 A 
ATOM     22  N   UNL     1       3.086   2.472  21.511  0.00  0.00    +0.000 NA
ATOM     23  C   UNL     1       1.775   2.731  21.719  0.00  0.00    +0.000 A 
ATOM     24  C   UNL     1       0.918   3.102  20.693  0.00  0.00    +0.000 A 
ATOM     25  N   UNL     1       1.324   3.242  19.405  0.00  0.00    +0.000 NA
ENDBRANCH  17  20
ENDBRANCH  15  16
ENDBRANCH  14  15
ENDBRANCH   1  14
TORSDOF 6
ENDMDL
MODEL 4
REMARK VINA RESULT:      -6.8      1.760      2.404
REMARK  Name = 
REMARK  6 active torsions:
REMARK  status: ('A' for Active; 'I' for Inactive)
REMARK    1  A    between atoms: C_2  and  C_16
REMARK    2  A    between atoms: N_3  and  C_4
REMARK    3  A    between atoms: C_4  and  C_5
REMARK    4  A    between atoms: C_5  and  C_6
REMARK    5  A    between atoms: C_6  and  N_7
REMARK    6  A    between atoms: C_8  and  C_10
REMARK                            x       y       z     vdW  Elec       q    Type
REMARK                         _______ _______ _______ _____ _____    ______ ____
ROOT
ATOM      1  C   UNL     1       2.100   4.555  20.782  0.00  0.00    +0.000 C 
ENDROOT
BRANCH   1   4
ATOM      2  O   UNL     1       2.826   6.812  19.268  0.00  0.00    +0.000 OA
ATOM      3  C   UNL     1       1.970   6.933  20.137  0.00  0.00    +0.000 C 
ATOM      4  N   UNL     1       1.544   5.891  20.934  0.00  0.00    +0.000 N 
ATOM      5  H   UNL     1       0.725   6.000  21.517  0.00  0.00    +0.000 HD
BRANCH   3   6
ATOM      6  C   UNL     1       1.326   8.258  20.346  0.00  0.00    +0.000 A 
ATOM      7  C   UNL     1       1.419   9.203  19.314  0.00  0.00    +0.000 A 
ATOM      8  C   UNL     1       0.867  10.476  19.468  0.00  0.00    +0.000 A 
ATOM      9  C   UNL     1       0.231  10.821  20.664  0.00  0.00    +0.000 A 
ATOM     10 CL   UNL     1      -0.424  12.415  20.791  0.00  0.00    +0.000 Cl
ATOM     11  C   UNL     1       0.154   9.887  21.705  0.00  0.00    +0.000 A 
ATOM     12 CL   UNL     1      -0.583  10.264  23.224  0.00  0.00    +0.000 Cl
ATOM     13  C   UNL     1       0.697   8.605  21.547  0.00  0.00    +0.000 A 
ENDBRANCH   3   6
ENDBRANCH   1   4
BRANCH   1  14
ATOM     14  C   UNL     1       1.124   3.592  20.107  0.00  0.00    +0.000 C 
BRANCH  14  15
ATOM     15  C   UNL     1       1.320   3.571  18.592  0.00  0.00    +0.000 C 
BRANCH  15  16
ATOM     16  N   UNL     1       2.647   4.016  18.212  0.00  0.00    +0.000 N 
ATOM     17  C   UNL     1       3.642   3.129  17.852  0.00  0.00    +0.000 C 
ATOM     18  O   UNL     1       3.484   1.915  17.828  0.00  0.00    +0.000 OA
ATOM     19  H   UNL     1       2.858   5.009  18.143  0.00  0.00    +0.000 HD
BRANCH  17  20
ATOM     20  C   UNL     1       4.958   3.730  17.485  0.00  0.00    +0.000 A 
ATOM     21  C   UNL     1       5.777   4.233  18.489  0.00  0.00    +0.000 A 
ATOM     22  N   UNL     1       6.996   4.776  18.232  0.00  0.00    +0.000 NA
ATOM     23  C   UNL     1       7.354   4.796  16.928  0.00  0.00    +0.000 A 
ATOM     24  C   UNL     1       6.532   4.303  15.924  0.00  0.00    +0.000 A 
ATOM     25  N   UNL     1       5.315   3.755  16.169  0.00  0.00    +0.000 NA
ENDBRANCH  17  20
ENDBRANCH  15  16
ENDBRANCH  14  15
ENDBRANCH   1  14
TORSDOF 6
ENDMDL
MODEL 5
REMARK VINA RESULT:      -6.7      2.136      3.162
REMARK  Name = 
REMARK  6 active torsions:
REMARK  status: ('A' for Active; 'I' for Inactive)
REMARK    1  A    between atoms: C_2  and  C_16
REMARK    2  A    between atoms: N_3  and  C_4
REMARK    3  A    between atoms: C_4  and  C_5
REMARK    4  A    between atoms: C_5  and  C_6
REMARK    5  A    between atoms: C_6  and  N_7
REMARK    6  A    between atoms: C_8  and  C_10
REMARK                            x       y       z     vdW  Elec       q    Type
REMARK                         _______ _______ _______ _____ _____    ______ ____
ROOT
ATOM      1  C   UNL     1       2.638   5.353  20.452  0.00  0.00    +0.000 C 
ENDROOT
BRANCH   1   4
ATOM      2  O   UNL     1       2.364   7.856  19.195  0.00  0.00    +0.000 OA
ATOM      3  C   UNL     1       1.803   7.668  20.270  0.00  0.00    +0.000 C 
ATOM      4  N   UNL     1       1.874   6.480  20.966  0.00  0.00    +0.000 N 
ATOM      5  H   UNL     1       1.265   6.318  21.757  0.00  0.00    +0.000 HD
BRANCH   3   6
ATOM      6  C   UNL     1       0.978   8.755  20.860  0.00  0.00    +0.000 A 
ATOM      7  C   UNL     1       0.827   8.782  22.254  0.00  0.00    +0.000 A 
ATOM      8  C   UNL     1       0.033   9.757  22.862  0.00  0.00    +0.000 A 
ATOM      9  C   UNL     1      -0.632  10.704  22.079  0.00  0.00    +0.000 A 
ATOM     10 CL   UNL     1      -1.604  11.877  22.894  0.00  0.00    +0.000 Cl
ATOM     11  C   UNL     1      -0.502  10.668  20.685  0.00  0.00    +0.000 A 
ATOM     12 CL   UNL     1      -1.330  11.785  19.656  0.00  0.00    +0.000 Cl
ATOM     13  C   UNL     1       0.305   9.698  20.074  0.00  0.00    +0.000 A 
ENDBRANCH   3   6
ENDBRANCH   1   4
BRANCH   1  14
ATOM     14  C   UNL     1       1.897   4.606  19.344  0.00  0.00    +0.000 C 
BRANCH  14  15
ATOM     15  C   UNL     1       2.698   3.403  18.850  0.00  0.00    +0.000 C 
BRANCH  15  16
ATOM     16  N   UNL     1       3.578   3.754  17.751  0.00  0.00    +0.000 N 
ATOM     17  C   UNL     1       4.931   3.966  17.933  0.00  0.00    +0.000 C 
ATOM     18  O   UNL     1       5.483   3.878  19.023  0.00  0.00    +0.000 OA
ATOM     19  H   UNL     1       3.224   3.792  16.798  0.00  0.00    +0.000 HD
BRANCH  17  20
ATOM     20  C   UNL     1       5.712   4.320  16.713  0.00  0.00    +0.000 A 
ATOM     21  C   UNL     1       6.606   5.383  16.765  0.00  0.00    +0.000 A 
ATOM     22  N   UNL     1       7.365   5.750  15.699  0.00  0.00    +0.000 NA
ATOM     23  C   UNL     1       7.185   5.009  14.582  0.00  0.00    +0.000 A 
ATOM     24  C   UNL     1       6.285   3.954  14.526  0.00  0.00    +0.000 A 
ATOM     25  N   UNL     1       5.524   3.576  15.585  0.00  0.00    +0.000 NA
ENDBRANCH  17  20
ENDBRANCH  15  16
ENDBRANCH  14  15
ENDBRANCH   1  14
TORSDOF 6
ENDMDL
MODEL 6
REMARK VINA RESULT:      -6.7      2.947      5.283
REMARK  Name = 
REMARK  6 active torsions:
REMARK  status: ('A' for Active; 'I' for Inactive)
REMARK    1  A    between atoms: C_2  and  C_16
REMARK    2  A    between atoms: N_3  and  C_4
REMARK    3  A    between atoms: C_4  and  C_5
REMARK    4  A    between atoms: C_5  and  C_6
REMARK    5  A    between atoms: C_6  and  N_7
REMARK    6  A    between atoms: C_8  and  C_10
REMARK                            x       y       z     vdW  Elec       q    Type
REMARK                         _______ _______ _______ _____ _____    ______ ____
ROOT
ATOM      1  C   UNL     1       2.698   1.776  18.857  0.00  0.00    +0.000 C 
ENDROOT
BRANCH   1   4
ATOM      2  O   UNL     1       2.968   3.615  16.745  0.00  0.00    +0.000 OA
ATOM      3  C   UNL     1       3.730   3.696  17.702  0.00  0.00    +0.000 C 
ATOM      4  N   UNL     1       3.682   2.846  18.786  0.00  0.00    +0.000 N 
ATOM      5  H   UNL     1       4.216   3.054  19.619  0.00  0.00    +0.000 HD
BRANCH   3   6
ATOM      6  C   UNL     1       4.753   4.776  17.729  0.00  0.00    +0.000 A 
ATOM      7  C   UNL     1       4.655   5.797  16.772  0.00  0.00    +0.000 A 
ATOM      8  C   UNL     1       5.608   6.817  16.724  0.00  0.00    +0.000 A 
ATOM      9  C   UNL     1       6.678   6.815  17.623  0.00  0.00    +0.000 A 
ATOM     10 CL   UNL     1       7.825   8.102  17.505  0.00  0.00    +0.000 Cl
ATOM     11  C   UNL     1       6.791   5.786  18.567  0.00  0.00    +0.000 A 
ATOM     12 CL   UNL     1       8.112   5.703  19.681  0.00  0.00    +0.000 Cl
ATOM     13  C   UNL     1       5.829   4.769  18.624  0.00  0.00    +0.000 A 
ENDBRANCH   3   6
ENDBRANCH   1   4
BRANCH   1  14
ATOM     14  C   UNL     1       1.267   2.307  18.937  0.00  0.00    +0.000 C 
BRANCH  14  15
ATOM     15  C   UNL     1       1.019   3.046  20.250  0.00  0.00    +0.000 C 
BRANCH  15  16
ATOM     16  N   UNL     1       0.939   4.482  20.057  0.00  0.00    +0.000 N 
ATOM     17  C   UNL     1       1.958   5.331  20.442  0.00  0.00    +0.000 C 
ATOM     18  O   UNL     1       2.992   4.942  20.972  0.00  0.00    +0.000 OA
ATOM     19  H   UNL     1       0.146   4.894  19.570  0.00  0.00    +0.000 HD
BRANCH  17  20
ATOM     20  C   UNL     1       1.738   6.783  20.181  0.00  0.00    +0.000 A 
ATOM     21  C   UNL     1       2.157   7.327  18.973  0.00  0.00    +0.000 A 
ATOM     22  N   UNL     1       1.972   8.636  18.658  0.00  0.00    +0.000 NA
ATOM     23  C   UNL     1       1.354   9.373  19.608  0.00  0.00    +0.000 A 
ATOM     24  C   UNL     1       0.944   8.834  20.819  0.00  0.00    +0.000 A 
ATOM     25  N   UNL     1       1.120   7.528  21.143  0.00  0.00    +0.000 NA
ENDBRANCH  17  20
ENDBRANCH  15  16
ENDBRANCH  14  15
ENDBRANCH   1  14
TORSDOF 6
ENDMDL
MODEL 7
REMARK VINA RESULT:      -6.7      4.901      7.158
REMARK  Name = 
REMARK  6 active torsions:
REMARK  status: ('A' for Active; 'I' for Inactive)
REMARK    1  A    between atoms: C_2  and  C_16
REMARK    2  A    between atoms: N_3  and  C_4
REMARK    3  A    between atoms: C_4  and  C_5
REMARK    4  A    between atoms: C_5  and  C_6
REMARK    5  A    between atoms: C_6  and  N_7
REMARK    6  A    between atoms: C_8  and  C_10
REMARK                            x       y       z     vdW  Elec       q    Type
REMARK                         _______ _______ _______ _____ _____    ______ ____
ROOT
ATOM      1  C   UNL     1       7.508   6.912  17.352  0.00  0.00    +0.000 C 
ENDROOT
BRANCH   1   4
ATOM      2  O   UNL     1       7.187   4.344  18.456  0.00  0.00    +0.000 OA
ATOM      3  C   UNL     1       6.189   4.977  18.132  0.00  0.00    +0.000 C 
ATOM      4  N   UNL     1       6.237   6.242  17.583  0.00  0.00    +0.000 N 
ATOM      5  H   UNL     1       5.391   6.786  17.487  0.00  0.00    +0.000 HD
BRANCH   3   6
ATOM      6  C   UNL     1       4.844   4.382  18.354  0.00  0.00    +0.000 A 
ATOM      7  C   UNL     1       4.301   3.587  17.335  0.00  0.00    +0.000 A 
ATOM      8  C   UNL     1       3.027   3.033  17.472  0.00  0.00    +0.000 A 
ATOM      9  C   UNL     1       2.277   3.283  18.624  0.00  0.00    +0.000 A 
ATOM     10 CL   UNL     1       0.705   2.573  18.726  0.00  0.00    +0.000 Cl
ATOM     11  C   UNL     1       2.807   4.094  19.636  0.00  0.00    +0.000 A 
ATOM     12 CL   UNL     1       1.915   4.476  21.068  0.00  0.00    +0.000 Cl
ATOM     13  C   UNL     1       4.091   4.641  19.505  0.00  0.00    +0.000 A 
ENDBRANCH   3   6
ENDBRANCH   1   4
BRANCH   1  14
ATOM     14  C   UNL     1       7.419   8.420  17.580  0.00  0.00    +0.000 C 
BRANCH  14  15
ATOM     15  C   UNL     1       8.547   8.916  18.482  0.00  0.00    +0.000 C 
BRANCH  15  16
ATOM     16  N   UNL     1       9.005  10.238  18.099  0.00  0.00    +0.000 N 
ATOM     17  C   UNL     1       9.421  11.168  19.032  0.00  0.00    +0.000 C 
ATOM     18  O   UNL     1       9.431  10.953  20.237  0.00  0.00    +0.000 OA
ATOM     19  H   UNL     1       9.090  10.491  17.117  0.00  0.00    +0.000 HD
BRANCH  17  20
ATOM     20  C   UNL     1       9.865  12.487  18.493  0.00  0.00    +0.000 A 
ATOM     21  C   UNL     1       9.342  13.654  19.038  0.00  0.00    +0.000 A 
ATOM     22  N   UNL     1       9.716  14.889  18.611  0.00  0.00    +0.000 NA
ATOM     23  C   UNL     1      10.629  14.901  17.615  0.00  0.00    +0.000 A 
ATOM     24  C   UNL     1      11.144  13.737  17.063  0.00  0.00    +0.000 A 
ATOM     25  N   UNL     1      10.782  12.498  17.483  0.00  0.00    +0.000 NA
ENDBRANCH  17  20
ENDBRANCH  15  16
ENDBRANCH  14  15
ENDBRANCH   1  14
TORSDOF 6
ENDMDL
MODEL 8
REMARK VINA RESULT:      -6.6      1.782      2.808
REMARK  Name = 
REMARK  6 active torsions:
REMARK  status: ('A' for Active; 'I' for Inactive)
REMARK    1  A    between atoms: C_2  and  C_16
REMARK    2  A    between atoms: N_3  and  C_4
REMARK    3  A    between atoms: C_4  and  C_5
REMARK    4  A    between atoms: C_5  and  C_6
REMARK    5  A    between atoms: C_6  and  N_7
REMARK    6  A    between atoms: C_8  and  C_10
REMARK                            x       y       z     vdW  Elec       q    Type
REMARK                         _______ _______ _______ _____ _____    ______ ____
ROOT
ATOM      1  C   UNL     1       2.201   4.958  20.671  0.00  0.00    +0.000 C 
ENDROOT
BRANCH   1   4
ATOM      2  O   UNL     1       2.371   7.260  19.063  0.00  0.00    +0.000 OA
ATOM      3  C   UNL     1       1.820   7.340  20.155  0.00  0.00    +0.000 C 
ATOM      4  N   UNL     1       1.684   6.273  21.018  0.00  0.00    +0.000 N 
ATOM      5  H   UNL     1       1.081   6.347  21.826  0.00  0.00    +0.000 HD
BRANCH   3   6
ATOM      6  C   UNL     1       1.238   8.640  20.584  0.00  0.00    +0.000 A 
ATOM      7  C   UNL     1       0.855   8.779  21.926  0.00  0.00    +0.000 A 
ATOM      8  C   UNL     1       0.269   9.963  22.377  0.00  0.00    +0.000 A 
ATOM      9  C   UNL     1       0.043  11.014  21.485  0.00  0.00    +0.000 A 
ATOM     10 CL   UNL     1      -0.694  12.448  22.107  0.00  0.00    +0.000 Cl
ATOM     11  C   UNL     1       0.404  10.873  20.139  0.00  0.00    +0.000 A 
ATOM     12 CL   UNL     1       0.115  12.120  18.975  0.00  0.00    +0.000 Cl
ATOM     13  C   UNL     1       1.004   9.690  19.687  0.00  0.00    +0.000 A 
ENDBRANCH   3   6
ENDBRANCH   1   4
BRANCH   1  14
ATOM     14  C   UNL     1       1.114   4.032  20.124  0.00  0.00    +0.000 C 
BRANCH  14  15
ATOM     15  C   UNL     1       1.438   3.571  18.705  0.00  0.00    +0.000 C 
BRANCH  15  16
ATOM     16  N   UNL     1       2.644   4.194  18.195  0.00  0.00    +0.000 N 
ATOM     17  C   UNL     1       3.717   3.452  17.739  0.00  0.00    +0.000 C 
ATOM     18  O   UNL     1       3.732   2.228  17.734  0.00  0.00    +0.000 OA
ATOM     19  H   UNL     1       2.703   5.206  18.103  0.00  0.00    +0.000 HD
BRANCH  17  20
ATOM     20  C   UNL     1       4.890   4.229  17.244  0.00  0.00    +0.000 A 
ATOM     21  C   UNL     1       5.312   5.347  17.953  0.00  0.00    +0.000 A 
ATOM     22  N   UNL     1       6.385   6.090  17.572  0.00  0.00    +0.000 NA
ATOM     23  C   UNL     1       7.011   5.665  16.452  0.00  0.00    +0.000 A 
ATOM     24  C   UNL     1       6.585   4.554  15.738  0.00  0.00    +0.000 A 
ATOM     25  N   UNL     1       5.517   3.802  16.110  0.00  0.00    +0.000 NA
ENDBRANCH  17  20
ENDBRANCH  15  16
ENDBRANCH  14  15
ENDBRANCH   1  14
TORSDOF 6
ENDMDL
MODEL 9
REMARK VINA RESULT:      -6.6      4.915      7.108
REMARK  Name = 
REMARK  6 active torsions:
REMARK  status: ('A' for Active; 'I' for Inactive)
REMARK    1  A    between atoms: C_2  and  C_16
REMARK    2  A    between atoms: N_3  and  C_4
REMARK    3  A    between atoms: C_4  and  C_5
REMARK    4  A    between atoms: C_5  and  C_6
REMARK    5  A    between atoms: C_6  and  N_7
REMARK    6  A    between atoms: C_8  and  C_10
REMARK                            x       y       z     vdW  Elec       q    Type
REMARK                         _______ _______ _______ _____ _____    ______ ____
ROOT
ATOM      1  C   UNL     1       7.399   6.834  17.079  0.00  0.00    +0.000 C 
ENDROOT
BRANCH   1   4
ATOM      2  O   UNL     1       7.119   4.626  18.801  0.00  0.00    +0.000 OA
ATOM      3  C   UNL     1       6.142   5.010  18.167  0.00  0.00    +0.000 C 
ATOM      4  N   UNL     1       6.173   6.081  17.299  0.00  0.00    +0.000 N 
ATOM      5  H   UNL     1       5.311   6.461  16.930  0.00  0.00    +0.000 HD
BRANCH   3   6
ATOM      6  C   UNL     1       4.838   4.317  18.347  0.00  0.00    +0.000 A 
ATOM      7  C   UNL     1       3.975   4.245  17.245  0.00  0.00    +0.000 A 
ATOM      8  C   UNL     1       2.722   3.640  17.364  0.00  0.00    +0.000 A 
ATOM      9  C   UNL     1       2.314   3.116  18.594  0.00  0.00    +0.000 A 
ATOM     10 CL   UNL     1       0.750   2.387  18.674  0.00  0.00    +0.000 Cl
ATOM     11  C   UNL     1       3.165   3.204  19.703  0.00  0.00    +0.000 A 
ATOM     12 CL   UNL     1       2.705   2.612  21.262  0.00  0.00    +0.000 Cl
ATOM     13  C   UNL     1       4.427   3.800  19.582  0.00  0.00    +0.000 A 
ENDBRANCH   3   6
ENDBRANCH   1   4
BRANCH   1  14
ATOM     14  C   UNL     1       7.308   8.262  17.617  0.00  0.00    +0.000 C 
BRANCH  14  15
ATOM     15  C   UNL     1       8.553   8.636  18.418  0.00  0.00    +0.000 C 
BRANCH  15  16
ATOM     16  N   UNL     1       8.969  10.003  18.163  0.00  0.00    +0.000 N 
ATOM     17  C   UNL     1       9.343  10.857  19.182  0.00  0.00    +0.000 C 
ATOM     18  O   UNL     1       9.350  10.531  20.363  0.00  0.00    +0.000 OA
ATOM     19  H   UNL     1       9.053  10.348  17.210  0.00  0.00    +0.000 HD
BRANCH  17  20
ATOM     20  C   UNL     1       9.746  12.233  18.772  0.00  0.00    +0.000 A 
ATOM     21  C   UNL     1      10.461  12.408  17.593  0.00  0.00    +0.000 A 
ATOM     22  N   UNL     1      10.844  13.633  17.146  0.00  0.00    +0.000 NA
ATOM     23  C   UNL     1      10.484  14.671  17.935  0.00  0.00    +0.000 A 
ATOM     24  C   UNL     1       9.779  14.497  19.117  0.00  0.00    +0.000 A 
ATOM     25  N   UNL     1       9.388  13.279  19.571  0.00  0.00    +0.000 NA
ENDBRANCH  17  20
ENDBRANCH  15  16
ENDBRANCH  14  15
ENDBRANCH   1  14
TORSDOF 6
ENDMDL
