MODEL 1
REMARK VINA RESULT:      -8.8      0.000      0.000
REMARK  Name = 
REMARK  3 active torsions:
REMARK  status: ('A' for Active; 'I' for Inactive)
REMARK    1  A    between atoms: N_3  and  C_4
REMARK    2  A    between atoms: N_11  and  C_12
REMARK    3  A    between atoms: N_20  and  C_21
REMARK                            x       y       z     vdW  Elec       q    Type
REMARK                         _______ _______ _______ _____ _____    ______ ____
ROOT
ATOM      1  C   UNL     1       2.107   6.145  20.364  0.00  0.00    +0.000 A 
ATOM      2  C   UNL     1       1.469   5.099  21.024  0.00  0.00    +0.000 A 
ATOM      3  C   UNL     1       1.639   3.776  20.602  0.00  0.00    +0.000 A 
ATOM      4  C   UNL     1       2.452   3.453  19.529  0.00  0.00    +0.000 A 
ATOM      5  N   UNL     1       2.585   2.168  19.196  0.00  0.00    +0.000 NA
ATOM      6  C   UNL     1       3.380   1.902  18.158  0.00  0.00    +0.000 A 
ATOM      7  N   UNL     1       4.053   2.798  17.436  0.00  0.00    +0.000 NA
ATOM      8  C   UNL     1       3.923   4.092  17.788  0.00  0.00    +0.000 A 
ATOM      9  N   UNL     1       4.676   5.075  17.083  0.00  0.00    +0.000 N 
ATOM     10  C   UNL     1       3.098   4.494  18.851  0.00  0.00    +0.000 A 
ATOM     11  C   UNL     1       2.898   5.840  19.257  0.00  0.00    +0.000 A 
ATOM     12  H   UNL     1       5.256   5.570  17.752  0.00  0.00    +0.000 HD
ENDROOT
BRANCH   9  13
ATOM     13  C   UNL     1       5.372   4.815  15.880  0.00  0.00    +0.000 A 
ATOM     14  C   UNL     1       6.732   5.136  15.757  0.00  0.00    +0.000 A 
ATOM     15  C   UNL     1       7.404   4.953  14.549  0.00  0.00    +0.000 A 
ATOM     16  C   UNL     1       6.722   4.428  13.457  0.00  0.00    +0.000 A 
ATOM     17 CL   UNL     1       7.531   4.250  11.950  0.00  0.00    +0.000 Cl
ATOM     18  C   UNL     1       5.383   4.058  13.574  0.00  0.00    +0.000 A 
ATOM     19  C   UNL     1       4.712   4.241  14.787  0.00  0.00    +0.000 A 
ENDBRANCH   9  13
BRANCH   1  23
ATOM     20  O   UNL     1      -0.258   7.662  21.092  0.00  0.00    +0.000 OA
ATOM     21  C   UNL     1       0.852   8.176  21.074  0.00  0.00    +0.000 C 
ATOM     22  N   UNL     1       1.098   9.511  21.364  0.00  0.00    +0.000 N 
ATOM     23  N   UNL     1       2.016   7.502  20.748  0.00  0.00    +0.000 N 
ATOM     24  H   UNL     1       1.984   9.885  21.065  0.00  0.00    +0.000 HD
ATOM     25  H   UNL     1       2.884   7.985  20.923  0.00  0.00    +0.000 HD
BRANCH  22  26
ATOM     26  C   UNL     1       0.108  10.451  21.730  0.00  0.00    +0.000 A 
ATOM     27  C   UNL     1      -0.569  10.414  22.955  0.00  0.00    +0.000 A 
ATOM     28  C   UNL     1      -1.612  11.302  23.226  0.00  0.00    +0.000 A 
ATOM     29  C   UNL     1      -1.967  12.252  22.278  0.00  0.00    +0.000 A 
ATOM     30 BR   UNL     1      -3.415  13.416  22.621  0.00  0.00    +0.000 Br
ATOM     31  C   UNL     1      -1.267  12.344  21.077  0.00  0.00    +0.000 A 
ATOM     32  C   UNL     1      -0.223  11.450  20.808  0.00  0.00    +0.000 A 
ENDBRANCH  22  26
ENDBRANCH   1  23
TORSDOF 3
ENDMDL
MODEL 2
REMARK VINA RESULT:      -8.5      0.199      1.281
REMARK  Name = 
REMARK  3 active torsions:
REMARK  status: ('A' for Active; 'I' for Inactive)
REMARK    1  A    between atoms: N_3  and  C_4
REMARK    2  A    between atoms: N_11  and  C_12
REMARK    3  A    between atoms: N_20  and  C_21
REMARK                            x       y       z     vdW  Elec       q    Type
REMARK                         _______ _______ _______ _____ _____    ______ ____
ROOT
ATOM      1  C   UNL     1       2.187   6.206  20.339  0.00  0.00    +0.000 A 
ATOM      2  C   UNL     1       1.622   5.150  21.048  0.00  0.00    +0.000 A 
ATOM      3  C   UNL     1       1.839   3.825  20.653  0.00  0.00    +0.000 A 
ATOM      4  C   UNL     1       2.628   3.512  19.559  0.00  0.00    +0.000 A 
ATOM      5  N   UNL     1       2.809   2.226  19.254  0.00  0.00    +0.000 NA
ATOM      6  C   UNL     1       3.578   1.969  18.194  0.00  0.00    +0.000 A 
ATOM      7  N   UNL     1       4.183   2.876  17.426  0.00  0.00    +0.000 NA
ATOM      8  C   UNL     1       4.005   4.171  17.751  0.00  0.00    +0.000 A 
ATOM      9  N   UNL     1       4.686   5.168  16.995  0.00  0.00    +0.000 N 
ATOM     10  C   UNL     1       3.200   4.563  18.832  0.00  0.00    +0.000 A 
ATOM     11  C   UNL     1       2.952   5.909  19.212  0.00  0.00    +0.000 A 
ATOM     12  H   UNL     1       5.266   5.708  17.630  0.00  0.00    +0.000 HD
ENDROOT
BRANCH   9  13
ATOM     13  C   UNL     1       5.351   4.909  15.774  0.00  0.00    +0.000 A 
ATOM     14  C   UNL     1       4.656   4.375  14.680  0.00  0.00    +0.000 A 
ATOM     15  C   UNL     1       5.322   4.047  13.499  0.00  0.00    +0.000 A 
ATOM     16  C   UNL     1       6.690   4.269  13.400  0.00  0.00    +0.000 A 
ATOM     17 CL   UNL     1       7.527   3.816  11.966  0.00  0.00    +0.000 Cl
ATOM     18  C   UNL     1       7.391   4.844  14.459  0.00  0.00    +0.000 A 
ATOM     19  C   UNL     1       6.719   5.173  15.641  0.00  0.00    +0.000 A 
ENDBRANCH   9  13
BRANCH   1  23
ATOM     20  O   UNL     1      -0.232   7.652  21.034  0.00  0.00    +0.000 OA
ATOM     21  C   UNL     1       0.860   8.206  21.004  0.00  0.00    +0.000 C 
ATOM     22  N   UNL     1       1.057   9.555  21.264  0.00  0.00    +0.000 N 
ATOM     23  N   UNL     1       2.047   7.567  20.693  0.00  0.00    +0.000 N 
ATOM     24  H   UNL     1       1.929   9.955  20.956  0.00  0.00    +0.000 HD
ATOM     25  H   UNL     1       2.896   8.086  20.856  0.00  0.00    +0.000 HD
BRANCH  22  26
ATOM     26  C   UNL     1       0.033  10.466  21.609  0.00  0.00    +0.000 A 
ATOM     27  C   UNL     1      -0.399  11.494  20.761  0.00  0.00    +0.000 A 
ATOM     28  C   UNL     1      -1.340  12.431  21.189  0.00  0.00    +0.000 A 
ATOM     29  C   UNL     1      -1.877  12.330  22.466  0.00  0.00    +0.000 A 
ATOM     30 BR   UNL     1      -3.107  13.631  23.067  0.00  0.00    +0.000 Br
ATOM     31  C   UNL     1      -1.505  11.280  23.305  0.00  0.00    +0.000 A 
ATOM     32  C   UNL     1      -0.558  10.344  22.872  0.00  0.00    +0.000 A 
ENDBRANCH  22  26
ENDBRANCH   1  23
TORSDOF 3
ENDMDL
MODEL 3
REMARK VINA RESULT:      -8.0      1.129      1.164
REMARK  Name = 
REMARK  3 active torsions:
REMARK  status: ('A' for Active; 'I' for Inactive)
REMARK    1  A    between atoms: N_3  and  C_4
REMARK    2  A    between atoms: N_11  and  C_12
REMARK    3  A    between atoms: N_20  and  C_21
REMARK                            x       y       z     vdW  Elec       q    Type
REMARK                         _______ _______ _______ _____ _____    ______ ____
ROOT
ATOM      1  C   UNL     1       2.004   7.025  19.849  0.00  0.00    +0.000 A 
ATOM      2  C   UNL     1       1.671   6.145  20.874  0.00  0.00    +0.000 A 
ATOM      3  C   UNL     1       2.149   4.830  20.871  0.00  0.00    +0.000 A 
ATOM      4  C   UNL     1       2.977   4.358  19.867  0.00  0.00    +0.000 A 
ATOM      5  N   UNL     1       3.412   3.099  19.942  0.00  0.00    +0.000 NA
ATOM      6  C   UNL     1       4.210   2.686  18.955  0.00  0.00    +0.000 A 
ATOM      7  N   UNL     1       4.612   3.417  17.915  0.00  0.00    +0.000 NA
ATOM      8  C   UNL     1       4.178   4.691  17.856  0.00  0.00    +0.000 A 
ATOM      9  N   UNL     1       4.637   5.524  16.795  0.00  0.00    +0.000 N 
ATOM     10  C   UNL     1       3.319   5.229  18.826  0.00  0.00    +0.000 A 
ATOM     11  C   UNL     1       2.806   6.553  18.809  0.00  0.00    +0.000 A 
ATOM     12  H   UNL     1       5.101   6.330  17.203  0.00  0.00    +0.000 HD
ENDROOT
BRANCH   9  13
ATOM     13  C   UNL     1       5.332   5.041  15.663  0.00  0.00    +0.000 A 
ATOM     14  C   UNL     1       6.697   5.311  15.491  0.00  0.00    +0.000 A 
ATOM     15  C   UNL     1       7.370   4.901  14.340  0.00  0.00    +0.000 A 
ATOM     16  C   UNL     1       6.680   4.202  13.356  0.00  0.00    +0.000 A 
ATOM     17 CL   UNL     1       7.490   3.742  11.910  0.00  0.00    +0.000 Cl
ATOM     18  C   UNL     1       5.334   3.882  13.529  0.00  0.00    +0.000 A 
ATOM     19  C   UNL     1       4.664   4.292  14.686  0.00  0.00    +0.000 A 
ENDBRANCH   9  13
BRANCH   1  23
ATOM     20  O   UNL     1       0.978   8.687  21.995  0.00  0.00    +0.000 OA
ATOM     21  C   UNL     1       1.099   9.116  20.855  0.00  0.00    +0.000 C 
ATOM     22  N   UNL     1       0.744  10.399  20.462  0.00  0.00    +0.000 N 
ATOM     23  N   UNL     1       1.594   8.376  19.795  0.00  0.00    +0.000 N 
ATOM     24  H   UNL     1       0.635  10.558  19.474  0.00  0.00    +0.000 HD
ATOM     25  H   UNL     1       1.796   8.881  18.946  0.00  0.00    +0.000 HD
BRANCH  22  26
ATOM     26  C   UNL     1       0.210  11.385  21.323  0.00  0.00    +0.000 A 
ATOM     27  C   UNL     1      -0.744  11.108  22.309  0.00  0.00    +0.000 A 
ATOM     28  C   UNL     1      -1.318  12.133  23.063  0.00  0.00    +0.000 A 
ATOM     29  C   UNL     1      -0.919  13.446  22.850  0.00  0.00    +0.000 A 
ATOM     30 BR   UNL     1      -1.736  14.840  23.829  0.00  0.00    +0.000 Br
ATOM     31  C   UNL     1       0.072  13.737  21.914  0.00  0.00    +0.000 A 
ATOM     32  C   UNL     1       0.643  12.706  21.159  0.00  0.00    +0.000 A 
ENDBRANCH  22  26
ENDBRANCH   1  23
TORSDOF 3
ENDMDL
MODEL 4
REMARK VINA RESULT:      -7.7      1.578      2.052
REMARK  Name = 
REMARK  3 active torsions:
REMARK  status: ('A' for Active; 'I' for Inactive)
REMARK    1  A    between atoms: N_3  and  C_4
REMARK    2  A    between atoms: N_11  and  C_12
REMARK    3  A    between atoms: N_20  and  C_21
REMARK                            x       y       z     vdW  Elec       q    Type
REMARK                         _______ _______ _______ _____ _____    ______ ____
ROOT
ATOM      1  C   UNL     1       1.926   6.444  20.259  0.00  0.00    +0.000 A 
ATOM      2  C   UNL     1       1.208   5.424  20.877  0.00  0.00    +0.000 A 
ATOM      3  C   UNL     1       1.337   4.098  20.449  0.00  0.00    +0.000 A 
ATOM      4  C   UNL     1       2.186   3.746  19.414  0.00  0.00    +0.000 A 
ATOM      5  N   UNL     1       2.275   2.459  19.075  0.00  0.00    +0.000 NA
ATOM      6  C   UNL     1       3.107   2.164  18.075  0.00  0.00    +0.000 A 
ATOM      7  N   UNL     1       3.856   3.033  17.396  0.00  0.00    +0.000 NA
ATOM      8  C   UNL     1       3.770   4.328  17.755  0.00  0.00    +0.000 A 
ATOM      9  N   UNL     1       4.602   5.280  17.099  0.00  0.00    +0.000 N 
ATOM     10  C   UNL     1       2.913   4.761  18.780  0.00  0.00    +0.000 A 
ATOM     11  C   UNL     1       2.756   6.111  19.190  0.00  0.00    +0.000 A 
ATOM     12  H   UNL     1       5.172   5.743  17.801  0.00  0.00    +0.000 HD
ENDROOT
BRANCH   9  13
ATOM     13  C   UNL     1       5.345   4.998  15.929  0.00  0.00    +0.000 A 
ATOM     14  C   UNL     1       6.695   5.364  15.833  0.00  0.00    +0.000 A 
ATOM     15  C   UNL     1       7.412   5.156  14.654  0.00  0.00    +0.000 A 
ATOM     16  C   UNL     1       6.782   4.563  13.566  0.00  0.00    +0.000 A 
ATOM     17 CL   UNL     1       7.644   4.353  12.092  0.00  0.00    +0.000 Cl
ATOM     18  C   UNL     1       5.454   4.148  13.658  0.00  0.00    +0.000 A 
ATOM     19  C   UNL     1       4.740   4.356  14.842  0.00  0.00    +0.000 A 
ENDBRANCH   9  13
BRANCH   1  23
ATOM     20  O   UNL     1       0.842   8.711  18.807  0.00  0.00    +0.000 OA
ATOM     21  C   UNL     1       1.359   8.844  19.909  0.00  0.00    +0.000 C 
ATOM     22  N   UNL     1       1.507  10.061  20.559  0.00  0.00    +0.000 N 
ATOM     23  N   UNL     1       1.880   7.801  20.653  0.00  0.00    +0.000 N 
ATOM     24  H   UNL     1       2.169  10.094  21.317  0.00  0.00    +0.000 HD
ATOM     25  H   UNL     1       2.133   8.007  21.608  0.00  0.00    +0.000 HD
BRANCH  22  26
ATOM     26  C   UNL     1       1.072  11.305  20.047  0.00  0.00    +0.000 A 
ATOM     27  C   UNL     1       1.761  12.009  19.053  0.00  0.00    +0.000 A 
ATOM     28  C   UNL     1       1.348  13.282  18.656  0.00  0.00    +0.000 A 
ATOM     29  C   UNL     1       0.222  13.849  19.237  0.00  0.00    +0.000 A 
ATOM     30 BR   UNL     1      -0.305  15.595  18.742  0.00  0.00    +0.000 Br
ATOM     31  C   UNL     1      -0.513  13.141  20.186  0.00  0.00    +0.000 A 
ATOM     32  C   UNL     1      -0.093  11.866  20.583  0.00  0.00    +0.000 A 
ENDBRANCH  22  26
ENDBRANCH   1  23
TORSDOF 3
ENDMDL
MODEL 5
REMARK VINA RESULT:      -7.7      8.713     12.277
REMARK  Name = 
REMARK  3 active torsions:
REMARK  status: ('A' for Active; 'I' for Inactive)
REMARK    1  A    between atoms: N_3  and  C_4
REMARK    2  A    between atoms: N_11  and  C_12
REMARK    3  A    between atoms: N_20  and  C_21
REMARK                            x       y       z     vdW  Elec       q    Type
REMARK                         _______ _______ _______ _____ _____    ______ ____
ROOT
ATOM      1  C   UNL     1       9.637  10.877  18.997  0.00  0.00    +0.000 A 
ATOM      2  C   UNL     1      10.265  11.493  17.919  0.00  0.00    +0.000 A 
ATOM      3  C   UNL     1      10.481  12.875  17.911  0.00  0.00    +0.000 A 
ATOM      4  C   UNL     1      10.095  13.679  18.969  0.00  0.00    +0.000 A 
ATOM      5  N   UNL     1      10.352  14.985  18.902  0.00  0.00    +0.000 NA
ATOM      6  C   UNL     1       9.966  15.723  19.946  0.00  0.00    +0.000 A 
ATOM      7  N   UNL     1       9.357  15.270  21.042  0.00  0.00    +0.000 NA
ATOM      8  C   UNL     1       9.114  13.947  21.106  0.00  0.00    +0.000 A 
ATOM      9  N   UNL     1       8.524  13.414  22.289  0.00  0.00    +0.000 N 
ATOM     10  C   UNL     1       9.457  13.075  20.060  0.00  0.00    +0.000 A 
ATOM     11  C   UNL     1       9.207  11.678  20.055  0.00  0.00    +0.000 A 
ATOM     12  H   UNL     1       9.152  12.711  22.668  0.00  0.00    +0.000 HD
ENDROOT
BRANCH   9  13
ATOM     13  C   UNL     1       7.957  14.210  23.310  0.00  0.00    +0.000 A 
ATOM     14  C   UNL     1       8.714  14.587  24.428  0.00  0.00    +0.000 A 
ATOM     15  C   UNL     1       8.138  15.309  25.474  0.00  0.00    +0.000 A 
ATOM     16  C   UNL     1       6.799  15.673  25.398  0.00  0.00    +0.000 A 
ATOM     17 CL   UNL     1       6.069  16.515  26.708  0.00  0.00    +0.000 Cl
ATOM     18  C   UNL     1       6.042  15.349  24.273  0.00  0.00    +0.000 A 
ATOM     19  C   UNL     1       6.623  14.628  23.226  0.00  0.00    +0.000 A 
ENDBRANCH   9  13
BRANCH   1  23
ATOM     20  O   UNL     1       7.559   9.283  17.746  0.00  0.00    +0.000 OA
ATOM     21  C   UNL     1       8.394   8.779  18.486  0.00  0.00    +0.000 C 
ATOM     22  N   UNL     1       8.426   7.433  18.824  0.00  0.00    +0.000 N 
ATOM     23  N   UNL     1       9.414   9.485  19.100  0.00  0.00    +0.000 N 
ATOM     24  H   UNL     1       8.975   7.181  19.630  0.00  0.00    +0.000 HD
ATOM     25  H   UNL     1      10.131   8.940  19.555  0.00  0.00    +0.000 HD
BRANCH  22  26
ATOM     26  C   UNL     1       7.513   6.463  18.353  0.00  0.00    +0.000 A 
ATOM     27  C   UNL     1       7.239   6.262  16.995  0.00  0.00    +0.000 A 
ATOM     28  C   UNL     1       6.252   5.364  16.586  0.00  0.00    +0.000 A 
ATOM     29  C   UNL     1       5.548   4.639  17.538  0.00  0.00    +0.000 A 
ATOM     30 BR   UNL     1       4.173   3.466  16.990  0.00  0.00    +0.000 Br
ATOM     31  C   UNL     1       5.846   4.780  18.893  0.00  0.00    +0.000 A 
ATOM     32  C   UNL     1       6.835   5.685  19.298  0.00  0.00    +0.000 A 
ENDBRANCH  22  26
ENDBRANCH   1  23
TORSDOF 3
ENDMDL
MODEL 6
REMARK VINA RESULT:      -7.6      8.144     11.706
REMARK  Name = 
REMARK  3 active torsions:
REMARK  status: ('A' for Active; 'I' for Inactive)
REMARK    1  A    between atoms: N_3  and  C_4
REMARK    2  A    between atoms: N_11  and  C_12
REMARK    3  A    between atoms: N_20  and  C_21
REMARK                            x       y       z     vdW  Elec       q    Type
REMARK                         _______ _______ _______ _____ _____    ______ ____
ROOT
ATOM      1  C   UNL     1       9.834  11.374  18.442  0.00  0.00    +0.000 A 
ATOM      2  C   UNL     1      11.082  11.867  18.069  0.00  0.00    +0.000 A 
ATOM      3  C   UNL     1      11.263  13.229  17.806  0.00  0.00    +0.000 A 
ATOM      4  C   UNL     1      10.224  14.137  17.917  0.00  0.00    +0.000 A 
ATOM      5  N   UNL     1      10.475  15.423  17.672  0.00  0.00    +0.000 NA
ATOM      6  C   UNL     1       9.446  16.264  17.794  0.00  0.00    +0.000 A 
ATOM      7  N   UNL     1       8.202  15.935  18.143  0.00  0.00    +0.000 NA
ATOM      8  C   UNL     1       7.962  14.635  18.401  0.00  0.00    +0.000 A 
ATOM      9  N   UNL     1       6.661  14.252  18.840  0.00  0.00    +0.000 N 
ATOM     10  C   UNL     1       8.962  13.657  18.287  0.00  0.00    +0.000 A 
ATOM     11  C   UNL     1       8.768  12.269  18.520  0.00  0.00    +0.000 A 
ATOM     12  H   UNL     1       6.752  13.798  19.744  0.00  0.00    +0.000 HD
ENDROOT
BRANCH   9  13
ATOM     13  C   UNL     1       5.535  15.106  18.797  0.00  0.00    +0.000 A 
ATOM     14  C   UNL     1       5.233  15.947  19.877  0.00  0.00    +0.000 A 
ATOM     15  C   UNL     1       4.083  16.736  19.871  0.00  0.00    +0.000 A 
ATOM     16  C   UNL     1       3.232  16.699  18.771  0.00  0.00    +0.000 A 
ATOM     17 CL   UNL     1       1.784  17.627  18.781  0.00  0.00    +0.000 Cl
ATOM     18  C   UNL     1       3.541  15.905  17.667  0.00  0.00    +0.000 A 
ATOM     19  C   UNL     1       4.696  15.118  17.676  0.00  0.00    +0.000 A 
ENDBRANCH   9  13
BRANCH   1  23
ATOM     20  O   UNL     1       7.795   9.620  17.352  0.00  0.00    +0.000 OA
ATOM     21  C   UNL     1       8.576   9.236  18.212  0.00  0.00    +0.000 C 
ATOM     22  N   UNL     1       8.560   7.965  18.769  0.00  0.00    +0.000 N 
ATOM     23  N   UNL     1       9.576  10.021  18.760  0.00  0.00    +0.000 N 
ATOM     24  H   UNL     1       9.057   7.843  19.637  0.00  0.00    +0.000 HD
ATOM     25  H   UNL     1      10.254   9.551  19.339  0.00  0.00    +0.000 HD
BRANCH  22  26
ATOM     26  C   UNL     1       7.653   6.941  18.413  0.00  0.00    +0.000 A 
ATOM     27  C   UNL     1       6.954   6.924  17.200  0.00  0.00    +0.000 A 
ATOM     28  C   UNL     1       5.992   5.947  16.939  0.00  0.00    +0.000 A 
ATOM     29  C   UNL     1       5.742   4.961  17.885  0.00  0.00    +0.000 A 
ATOM     30 BR   UNL     1       4.400   3.672  17.558  0.00  0.00    +0.000 Br
ATOM     31  C   UNL     1       6.469   4.926  19.074  0.00  0.00    +0.000 A 
ATOM     32  C   UNL     1       7.431   5.910  19.332  0.00  0.00    +0.000 A 
ENDBRANCH  22  26
ENDBRANCH   1  23
TORSDOF 3
ENDMDL
MODEL 7
REMARK VINA RESULT:      -7.5      5.751     10.339
REMARK  Name = 
REMARK  3 active torsions:
REMARK  status: ('A' for Active; 'I' for Inactive)
REMARK    1  A    between atoms: N_3  and  C_4
REMARK    2  A    between atoms: N_11  and  C_12
REMARK    3  A    between atoms: N_20  and  C_21
REMARK                            x       y       z     vdW  Elec       q    Type
REMARK                         _______ _______ _______ _____ _____    ______ ____
ROOT
ATOM      1  C   UNL     1       0.709   9.943  19.535  0.00  0.00    +0.000 A 
ATOM      2  C   UNL     1      -0.680  10.021  19.492  0.00  0.00    +0.000 A 
ATOM      3  C   UNL     1      -1.328  11.261  19.495  0.00  0.00    +0.000 A 
ATOM      4  C   UNL     1      -0.622  12.451  19.527  0.00  0.00    +0.000 A 
ATOM      5  N   UNL     1      -1.306  13.596  19.505  0.00  0.00    +0.000 NA
ATOM      6  C   UNL     1      -0.586  14.720  19.534  0.00  0.00    +0.000 A 
ATOM      7  N   UNL     1       0.745  14.796  19.575  0.00  0.00    +0.000 NA
ATOM      8  C   UNL     1       1.426  13.635  19.582  0.00  0.00    +0.000 A 
ATOM      9  N   UNL     1       2.851  13.674  19.559  0.00  0.00    +0.000 N 
ATOM     10  C   UNL     1       0.776  12.391  19.574  0.00  0.00    +0.000 A 
ATOM     11  C   UNL     1       1.433  11.133  19.607  0.00  0.00    +0.000 A 
ATOM     12  H   UNL     1       3.169  13.166  18.741  0.00  0.00    +0.000 HD
ENDROOT
BRANCH   9  13
ATOM     13  C   UNL     1       3.606  14.851  19.769  0.00  0.00    +0.000 A 
ATOM     14  C   UNL     1       4.089  15.595  18.683  0.00  0.00    +0.000 A 
ATOM     15  C   UNL     1       4.897  16.713  18.884  0.00  0.00    +0.000 A 
ATOM     16  C   UNL     1       5.216  17.105  20.179  0.00  0.00    +0.000 A 
ATOM     17 CL   UNL     1       6.258  18.451  20.432  0.00  0.00    +0.000 Cl
ATOM     18  C   UNL     1       4.707  16.407  21.273  0.00  0.00    +0.000 A 
ATOM     19  C   UNL     1       3.894  15.288  21.068  0.00  0.00    +0.000 A 
ENDBRANCH   9  13
BRANCH   1  23
ATOM     20  O   UNL     1       2.409   8.923  17.416  0.00  0.00    +0.000 OA
ATOM     21  C   UNL     1       2.228   8.294  18.451  0.00  0.00    +0.000 C 
ATOM     22  N   UNL     1       2.775   7.045  18.710  0.00  0.00    +0.000 N 
ATOM     23  N   UNL     1       1.440   8.734  19.499  0.00  0.00    +0.000 N 
ATOM     24  H   UNL     1       2.356   6.511  19.455  0.00  0.00    +0.000 HD
ATOM     25  H   UNL     1       1.494   8.208  20.358  0.00  0.00    +0.000 HD
BRANCH  22  26
ATOM     26  C   UNL     1       3.623   6.338  17.827  0.00  0.00    +0.000 A 
ATOM     27  C   UNL     1       4.657   6.945  17.105  0.00  0.00    +0.000 A 
ATOM     28  C   UNL     1       5.398   6.225  16.167  0.00  0.00    +0.000 A 
ATOM     29  C   UNL     1       5.124   4.879  15.964  0.00  0.00    +0.000 A 
ATOM     30 BR   UNL     1       6.087   3.917  14.655  0.00  0.00    +0.000 Br
ATOM     31  C   UNL     1       4.137   4.241  16.715  0.00  0.00    +0.000 A 
ATOM     32  C   UNL     1       3.395   4.968  17.652  0.00  0.00    +0.000 A 
ENDBRANCH  22  26
ENDBRANCH   1  23
TORSDOF 3
ENDMDL
MODEL 8
REMARK VINA RESULT:      -7.5      4.936      9.904
REMARK  Name = 
REMARK  3 active torsions:
REMARK  status: ('A' for Active; 'I' for Inactive)
REMARK    1  A    between atoms: N_3  and  C_4
REMARK    2  A    between atoms: N_11  and  C_12
REMARK    3  A    between atoms: N_20  and  C_21
REMARK                            x       y       z     vdW  Elec       q    Type
REMARK                         _______ _______ _______ _____ _____    ______ ____
ROOT
ATOM      1  C   UNL     1       0.917   9.008  21.775  0.00  0.00    +0.000 A 
ATOM      2  C   UNL     1      -0.019   8.800  22.784  0.00  0.00    +0.000 A 
ATOM      3  C   UNL     1      -0.921   9.809  23.142  0.00  0.00    +0.000 A 
ATOM      4  C   UNL     1      -0.930  11.038  22.506  0.00  0.00    +0.000 A 
ATOM      5  N   UNL     1      -1.832  11.943  22.885  0.00  0.00    +0.000 NA
ATOM      6  C   UNL     1      -1.807  13.113  22.243  0.00  0.00    +0.000 A 
ATOM      7  N   UNL     1      -0.972  13.449  21.260  0.00  0.00    +0.000 NA
ATOM      8  C   UNL     1      -0.073  12.523  20.875  0.00  0.00    +0.000 A 
ATOM      9  N   UNL     1       0.795  12.820  19.784  0.00  0.00    +0.000 N 
ATOM     10  C   UNL     1       0.008  11.264  21.491  0.00  0.00    +0.000 A 
ATOM     11  C   UNL     1       0.947  10.255  21.151  0.00  0.00    +0.000 A 
ATOM     12  H   UNL     1       0.654  12.116  19.066  0.00  0.00    +0.000 HD
ENDROOT
BRANCH   9  13
ATOM     13  C   UNL     1       0.942  14.111  19.228  0.00  0.00    +0.000 A 
ATOM     14  C   UNL     1       2.212  14.686  19.077  0.00  0.00    +0.000 A 
ATOM     15  C   UNL     1       2.358  15.988  18.599  0.00  0.00    +0.000 A 
ATOM     16  C   UNL     1       1.229  16.720  18.252  0.00  0.00    +0.000 A 
ATOM     17 CL   UNL     1       1.398  18.345  17.714  0.00  0.00    +0.000 Cl
ATOM     18  C   UNL     1      -0.040  16.150  18.349  0.00  0.00    +0.000 A 
ATOM     19  C   UNL     1      -0.182  14.844  18.826  0.00  0.00    +0.000 A 
ENDBRANCH   9  13
BRANCH   1  23
ATOM     20  O   UNL     1       1.608   8.288  19.050  0.00  0.00    +0.000 OA
ATOM     21  C   UNL     1       2.117   7.724  20.011  0.00  0.00    +0.000 C 
ATOM     22  N   UNL     1       3.034   6.687  19.910  0.00  0.00    +0.000 N 
ATOM     23  N   UNL     1       1.837   8.032  21.330  0.00  0.00    +0.000 N 
ATOM     24  H   UNL     1       3.180   6.128  20.735  0.00  0.00    +0.000 HD
ATOM     25  H   UNL     1       2.431   7.613  22.029  0.00  0.00    +0.000 HD
BRANCH  22  26
ATOM     26  C   UNL     1       3.514   6.151  18.693  0.00  0.00    +0.000 A 
ATOM     27  C   UNL     1       3.336   4.814  18.320  0.00  0.00    +0.000 A 
ATOM     28  C   UNL     1       3.919   4.309  17.156  0.00  0.00    +0.000 A 
ATOM     29  C   UNL     1       4.665   5.151  16.343  0.00  0.00    +0.000 A 
ATOM     30 BR   UNL     1       5.502   4.456  14.798  0.00  0.00    +0.000 Br
ATOM     31  C   UNL     1       4.805   6.500  16.665  0.00  0.00    +0.000 A 
ATOM     32  C   UNL     1       4.220   7.001  17.834  0.00  0.00    +0.000 A 
ENDBRANCH  22  26
ENDBRANCH   1  23
TORSDOF 3
ENDMDL
MODEL 9
REMARK VINA RESULT:      -7.5      4.859      9.642
REMARK  Name = 
REMARK  3 active torsions:
REMARK  status: ('A' for Active; 'I' for Inactive)
REMARK    1  A    between atoms: N_3  and  C_4
REMARK    2  A    between atoms: N_11  and  C_12
REMARK    3  A    between atoms: N_20  and  C_21
REMARK                            x       y       z     vdW  Elec       q    Type
REMARK                         _______ _______ _______ _____ _____    ______ ____
ROOT
ATOM      1  C   UNL     1       0.955   8.718  21.643  0.00  0.00    +0.000 A 
ATOM      2  C   UNL     1       0.005   8.650  22.658  0.00  0.00    +0.000 A 
ATOM      3  C   UNL     1      -0.741   9.778  23.016  0.00  0.00    +0.000 A 
ATOM      4  C   UNL     1      -0.578  10.993  22.373  0.00  0.00    +0.000 A 
ATOM      5  N   UNL     1      -1.340  12.020  22.753  0.00  0.00    +0.000 NA
ATOM      6  C   UNL     1      -1.153  13.172  22.104  0.00  0.00    +0.000 A 
ATOM      7  N   UNL     1      -0.284  13.381  21.115  0.00  0.00    +0.000 NA
ATOM      8  C   UNL     1       0.471  12.335  20.730  0.00  0.00    +0.000 A 
ATOM      9  N   UNL     1       1.365  12.500  19.633  0.00  0.00    +0.000 N 
ATOM     10  C   UNL     1       0.376  11.080  21.352  0.00  0.00    +0.000 A 
ATOM     11  C   UNL     1       1.158   9.945  21.011  0.00  0.00    +0.000 A 
ATOM     12  H   UNL     1       1.121  11.820  18.919  0.00  0.00    +0.000 HD
ENDROOT
BRANCH   9  13
ATOM     13  C   UNL     1       1.691  13.755  19.068  0.00  0.00    +0.000 A 
ATOM     14  C   UNL     1       0.763  14.806  19.078  0.00  0.00    +0.000 A 
ATOM     15  C   UNL     1       1.051  16.021  18.457  0.00  0.00    +0.000 A 
ATOM     16  C   UNL     1       2.281  16.198  17.833  0.00  0.00    +0.000 A 
ATOM     17 CL   UNL     1       2.621  17.674  17.019  0.00  0.00    +0.000 Cl
ATOM     18  C   UNL     1       3.235  15.181  17.855  0.00  0.00    +0.000 A 
ATOM     19  C   UNL     1       2.944  13.966  18.481  0.00  0.00    +0.000 A 
ENDBRANCH   9  13
BRANCH   1  23
ATOM     20  O   UNL     1       1.979   8.192  18.979  0.00  0.00    +0.000 OA
ATOM     21  C   UNL     1       2.175   7.416  19.905  0.00  0.00    +0.000 C 
ATOM     22  N   UNL     1       2.864   6.217  19.786  0.00  0.00    +0.000 N 
ATOM     23  N   UNL     1       1.723   7.619  21.197  0.00  0.00    +0.000 N 
ATOM     24  H   UNL     1       2.738   5.545  20.525  0.00  0.00    +0.000 HD
ATOM     25  H   UNL     1       2.080   6.995  21.905  0.00  0.00    +0.000 HD
BRANCH  22  26
ATOM     26  C   UNL     1       3.443   5.736  18.589  0.00  0.00    +0.000 A 
ATOM     27  C   UNL     1       3.180   4.465  18.066  0.00  0.00    +0.000 A 
ATOM     28  C   UNL     1       3.856   3.998  16.937  0.00  0.00    +0.000 A 
ATOM     29  C   UNL     1       4.785   4.816  16.308  0.00  0.00    +0.000 A 
ATOM     30 BR   UNL     1       5.743   4.164  14.816  0.00  0.00    +0.000 Br
ATOM     31  C   UNL     1       5.019   6.107  16.778  0.00  0.00    +0.000 A 
ATOM     32  C   UNL     1       4.340   6.570  17.912  0.00  0.00    +0.000 A 
ENDBRANCH  22  26
ENDBRANCH   1  23
TORSDOF 3
ENDMDL
