MODEL 1
REMARK VINA RESULT:      -5.8      0.000      0.000
REMARK  Name = 
REMARK  22 active torsions:
REMARK  status: ('A' for Active; 'I' for Inactive)
REMARK    1  A    between atoms: C_1  and  C_2
REMARK    2  A    between atoms: C_2  and  C_3
REMARK    3  A    between atoms: C_3  and  C_4
REMARK    4  A    between atoms: C_4  and  C_5
REMARK    5  A    between atoms: C_5  and  C_6
REMARK    6  A    between atoms: C_6  and  C_7
REMARK    7  A    between atoms: C_7  and  C_8
REMARK    8  A    between atoms: C_8  and  C_9
REMARK    9  A    between atoms: C_9  and  C_10
REMARK   10  A    between atoms: C_10  and  C_11
REMARK   11  A    between atoms: C_11  and  C_12
REMARK   12  A    between atoms: C_12  and  C_13
REMARK   13  A    between atoms: C_13  and  C_14
REMARK   14  A    between atoms: C_14  and  S_15
REMARK   15  A    between atoms: S_15  and  C_16
REMARK   16  A    between atoms: S_15  and  C_17
REMARK   17  A    between atoms: C_17  and  C_18
REMARK   18  A    between atoms: C_18  and  P_19
REMARK   19  A    between atoms: C_18  and  P_23
REMARK   20  A    between atoms: P_19  and  O_22
REMARK   21  A    between atoms: P_23  and  O_25
REMARK   22  A    between atoms: P_23  and  O_26
REMARK                            x       y       z     vdW  Elec       q    Type
REMARK                         _______ _______ _______ _____ _____    ______ ____
ROOT
ATOM      1  S   UNL     1       3.814   3.972  19.129  0.00  0.00    +0.000 S 
ATOM      2  C   UNL     1       2.270   3.654  18.254  0.00  0.00    +0.000 C 
ENDROOT
BRANCH   1   3
ATOM      3  C   UNL     1       4.933   3.852  17.683  0.00  0.00    +0.000 C 
BRANCH   3   4
ATOM      4  C   UNL     1       5.762   5.087  17.403  0.00  0.00    +0.000 C 
BRANCH   4   5
ATOM      5  P   UNL     1       7.375   5.276  18.416  0.00  0.00    +0.000 P 
ATOM      6  O   UNL     1       7.088   5.257  19.889  0.00  0.00    +0.000 OA
ATOM      7  O   UNL     1       8.318   4.268  17.823  0.00  0.00    +0.000 OA
BRANCH   5   8
ATOM      8  O   UNL     1       8.014   6.729  18.159  0.00  0.00    +0.000 OA
ATOM      9  H   UNL     1       8.879   6.698  18.627  0.00  0.00    +0.000 HD
ENDBRANCH   5   8
ENDBRANCH   4   5
BRANCH   4  10
ATOM     10  P   UNL     1       6.695   5.171  15.831  0.00  0.00    +0.000 P 
ATOM     11  O   UNL     1       6.095   3.856  15.329  0.00  0.00    +0.000 OA
BRANCH  10  12
ATOM     12  O   UNL     1       7.578   5.252  14.345  0.00  0.00    +0.000 OA
ATOM     13  H   UNL     1       6.987   4.770  13.733  0.00  0.00    +0.000 HD
ENDBRANCH  10  12
BRANCH  10  14
ATOM     14  O   UNL     1       5.627   6.240  15.176  0.00  0.00    +0.000 OA
ATOM     15  H   UNL     1       5.949   6.387  14.271  0.00  0.00    +0.000 HD
ENDBRANCH  10  14
ENDBRANCH   4  10
ENDBRANCH   3   4
ENDBRANCH   1   3
BRANCH   1  16
ATOM     16  C   UNL     1       3.691   5.781  19.194  0.00  0.00    +0.000 C 
BRANCH  16  17
ATOM     17  C   UNL     1       2.363   6.176  19.811  0.00  0.00    +0.000 C 
BRANCH  17  18
ATOM     18  C   UNL     1       2.041   7.644  19.616  0.00  0.00    +0.000 C 
BRANCH  18  19
ATOM     19  C   UNL     1       2.326   7.997  18.162  0.00  0.00    +0.000 C 
BRANCH  19  20
ATOM     20  C   UNL     1       1.923   9.426  17.867  0.00  0.00    +0.000 C 
BRANCH  20  21
ATOM     21  C   UNL     1       0.864   9.882  18.856  0.00  0.00    +0.000 C 
BRANCH  21  22
ATOM     22  C   UNL     1       1.004  11.371  19.118  0.00  0.00    +0.000 C 
BRANCH  22  23
ATOM     23  C   UNL     1      -0.282  12.097  18.750  0.00  0.00    +0.000 C 
BRANCH  23  24
ATOM     24  C   UNL     1      -0.699  13.039  19.868  0.00  0.00    +0.000 C 
BRANCH  24  25
ATOM     25  C   UNL     1      -0.273  12.482  21.219  0.00  0.00    +0.000 C 
BRANCH  25  26
ATOM     26  C   UNL     1      -1.439  11.773  21.898  0.00  0.00    +0.000 C 
BRANCH  26  27
ATOM     27  C   UNL     1      -0.950  10.938  23.077  0.00  0.00    +0.000 C 
BRANCH  27  29
ATOM     28  C   UNL     1       0.906   9.322  22.587  0.00  0.00    +0.000 C 
ATOM     29  C   UNL     1      -0.598   9.522  22.632  0.00  0.00    +0.000 C 
ENDBRANCH  27  29
ENDBRANCH  26  27
ENDBRANCH  25  26
ENDBRANCH  24  25
ENDBRANCH  23  24
ENDBRANCH  22  23
ENDBRANCH  21  22
ENDBRANCH  20  21
ENDBRANCH  19  20
ENDBRANCH  18  19
ENDBRANCH  17  18
ENDBRANCH  16  17
ENDBRANCH   1  16
TORSDOF 20
ENDMDL
MODEL 2
REMARK VINA RESULT:      -5.7      1.062      3.558
REMARK  Name = 
REMARK  22 active torsions:
REMARK  status: ('A' for Active; 'I' for Inactive)
REMARK    1  A    between atoms: C_1  and  C_2
REMARK    2  A    between atoms: C_2  and  C_3
REMARK    3  A    between atoms: C_3  and  C_4
REMARK    4  A    between atoms: C_4  and  C_5
REMARK    5  A    between atoms: C_5  and  C_6
REMARK    6  A    between atoms: C_6  and  C_7
REMARK    7  A    between atoms: C_7  and  C_8
REMARK    8  A    between atoms: C_8  and  C_9
REMARK    9  A    between atoms: C_9  and  C_10
REMARK   10  A    between atoms: C_10  and  C_11
REMARK   11  A    between atoms: C_11  and  C_12
REMARK   12  A    between atoms: C_12  and  C_13
REMARK   13  A    between atoms: C_13  and  C_14
REMARK   14  A    between atoms: C_14  and  S_15
REMARK   15  A    between atoms: S_15  and  C_16
REMARK   16  A    between atoms: S_15  and  C_17
REMARK   17  A    between atoms: C_17  and  C_18
REMARK   18  A    between atoms: C_18  and  P_19
REMARK   19  A    between atoms: C_18  and  P_23
REMARK   20  A    between atoms: P_19  and  O_22
REMARK   21  A    between atoms: P_23  and  O_25
REMARK   22  A    between atoms: P_23  and  O_26
REMARK                            x       y       z     vdW  Elec       q    Type
REMARK                         _______ _______ _______ _____ _____    ______ ____
ROOT
ATOM      1  S   UNL     1       3.870   2.980  18.883  0.00  0.00    +0.000 S 
ATOM      2  C   UNL     1       2.577   2.699  17.660  0.00  0.00    +0.000 C 
ENDROOT
BRANCH   1   3
ATOM      3  C   UNL     1       4.493   4.565  18.207  0.00  0.00    +0.000 C 
BRANCH   3   4
ATOM      4  C   UNL     1       5.921   4.537  17.705  0.00  0.00    +0.000 C 
BRANCH   4   5
ATOM      5  P   UNL     1       6.264   5.459  16.064  0.00  0.00    +0.000 P 
ATOM      6  O   UNL     1       5.107   5.318  15.118  0.00  0.00    +0.000 OA
ATOM      7  O   UNL     1       6.727   6.825  16.483  0.00  0.00    +0.000 OA
BRANCH   5   8
ATOM      8  O   UNL     1       7.490   4.761  15.292  0.00  0.00    +0.000 OA
ATOM      9  H   UNL     1       7.842   4.108  15.937  0.00  0.00    +0.000 HD
ENDBRANCH   5   8
ENDBRANCH   4   5
BRANCH   4  10
ATOM     10  P   UNL     1       7.170   5.550  18.578  0.00  0.00    +0.000 P 
ATOM     11  O   UNL     1       6.795   4.957  19.939  0.00  0.00    +0.000 OA
BRANCH  10  12
ATOM     12  O   UNL     1       8.353   6.507  19.403  0.00  0.00    +0.000 OA
ATOM     13  H   UNL     1       8.488   7.245  18.775  0.00  0.00    +0.000 HD
ENDBRANCH  10  12
BRANCH  10  14
ATOM     14  O   UNL     1       8.392   4.531  18.152  0.00  0.00    +0.000 OA
ATOM     15  H   UNL     1       7.956   3.677  17.990  0.00  0.00    +0.000 HD
ENDBRANCH  10  14
ENDBRANCH   4  10
ENDBRANCH   3   4
ENDBRANCH   1   3
BRANCH   1  16
ATOM     16  C   UNL     1       2.822   3.669  20.195  0.00  0.00    +0.000 C 
BRANCH  16  17
ATOM     17  C   UNL     1       2.720   5.172  20.023  0.00  0.00    +0.000 C 
BRANCH  17  18
ATOM     18  C   UNL     1       1.599   5.779  20.844  0.00  0.00    +0.000 C 
BRANCH  18  19
ATOM     19  C   UNL     1       1.653   7.290  20.664  0.00  0.00    +0.000 C 
BRANCH  19  20
ATOM     20  C   UNL     1       0.519   7.961  21.410  0.00  0.00    +0.000 C 
BRANCH  20  21
ATOM     21  C   UNL     1       1.066   9.064  22.302  0.00  0.00    +0.000 C 
BRANCH  21  22
ATOM     22  C   UNL     1       0.001   9.509  23.290  0.00  0.00    +0.000 C 
BRANCH  22  23
ATOM     23  C   UNL     1      -0.826  10.642  22.702  0.00  0.00    +0.000 C 
BRANCH  23  24
ATOM     24  C   UNL     1       0.036  11.519  21.806  0.00  0.00    +0.000 C 
BRANCH  24  25
ATOM     25  C   UNL     1      -0.383  11.365  20.350  0.00  0.00    +0.000 C 
BRANCH  25  26
ATOM     26  C   UNL     1       0.838  11.187  19.457  0.00  0.00    +0.000 C 
BRANCH  26  27
ATOM     27  C   UNL     1       0.606  10.074  18.441  0.00  0.00    +0.000 C 
BRANCH  27  29
ATOM     28  C   UNL     1       2.466   8.487  17.875  0.00  0.00    +0.000 C 
ATOM     29  C   UNL     1       1.851   9.846  17.590  0.00  0.00    +0.000 C 
ENDBRANCH  27  29
ENDBRANCH  26  27
ENDBRANCH  25  26
ENDBRANCH  24  25
ENDBRANCH  23  24
ENDBRANCH  22  23
ENDBRANCH  21  22
ENDBRANCH  20  21
ENDBRANCH  19  20
ENDBRANCH  18  19
ENDBRANCH  17  18
ENDBRANCH  16  17
ENDBRANCH   1  16
TORSDOF 20
ENDMDL
MODEL 3
REMARK VINA RESULT:      -5.6      5.952      7.792
REMARK  Name = 
REMARK  22 active torsions:
REMARK  status: ('A' for Active; 'I' for Inactive)
REMARK    1  A    between atoms: C_1  and  C_2
REMARK    2  A    between atoms: C_2  and  C_3
REMARK    3  A    between atoms: C_3  and  C_4
REMARK    4  A    between atoms: C_4  and  C_5
REMARK    5  A    between atoms: C_5  and  C_6
REMARK    6  A    between atoms: C_6  and  C_7
REMARK    7  A    between atoms: C_7  and  C_8
REMARK    8  A    between atoms: C_8  and  C_9
REMARK    9  A    between atoms: C_9  and  C_10
REMARK   10  A    between atoms: C_10  and  C_11
REMARK   11  A    between atoms: C_11  and  C_12
REMARK   12  A    between atoms: C_12  and  C_13
REMARK   13  A    between atoms: C_13  and  C_14
REMARK   14  A    between atoms: C_14  and  S_15
REMARK   15  A    between atoms: S_15  and  C_16
REMARK   16  A    between atoms: S_15  and  C_17
REMARK   17  A    between atoms: C_17  and  C_18
REMARK   18  A    between atoms: C_18  and  P_19
REMARK   19  A    between atoms: C_18  and  P_23
REMARK   20  A    between atoms: P_19  and  O_22
REMARK   21  A    between atoms: P_23  and  O_25
REMARK   22  A    between atoms: P_23  and  O_26
REMARK                            x       y       z     vdW  Elec       q    Type
REMARK                         _______ _______ _______ _____ _____    ______ ____
ROOT
ATOM      1  S   UNL     1       4.810   4.154  18.423  0.00  0.00    +0.000 S 
ATOM      2  C   UNL     1       5.737   5.065  19.671  0.00  0.00    +0.000 C 
ENDROOT
BRANCH   1   3
ATOM      3  C   UNL     1       3.224   5.054  18.605  0.00  0.00    +0.000 C 
BRANCH   3   4
ATOM      4  C   UNL     1       2.078   4.237  19.163  0.00  0.00    +0.000 C 
BRANCH   4   5
ATOM      5  P   UNL     1       1.670   2.607  18.248  0.00  0.00    +0.000 P 
ATOM      6  O   UNL     1       0.220   2.249  18.412  0.00  0.00    +0.000 OA
ATOM      7  O   UNL     1       2.246   2.786  16.873  0.00  0.00    +0.000 OA
BRANCH   5   8
ATOM      8  O   UNL     1       2.456   1.384  18.934  0.00  0.00    +0.000 OA
ATOM      9  H   UNL     1       2.652   1.702  19.844  0.00  0.00    +0.000 HD
ENDBRANCH   5   8
ENDBRANCH   4   5
BRANCH   4  10
ATOM     10  P   UNL     1       2.338   3.334  20.734  0.00  0.00    +0.000 P 
ATOM     11  O   UNL     1       2.450   4.632  21.537  0.00  0.00    +0.000 OA
BRANCH  10  12
ATOM     12  O   UNL     1       2.582   2.479  22.218  0.00  0.00    +0.000 OA
ATOM     13  H   UNL     1       3.553   2.535  22.326  0.00  0.00    +0.000 HD
ENDBRANCH  10  12
BRANCH  10  14
ATOM     14  O   UNL     1       0.727   3.033  20.905  0.00  0.00    +0.000 OA
ATOM     15  H   UNL     1       0.656   2.546  21.743  0.00  0.00    +0.000 HD
ENDBRANCH  10  14
ENDBRANCH   4  10
ENDBRANCH   3   4
ENDBRANCH   1   3
BRANCH   1  16
ATOM     16  C   UNL     1       5.427   5.038  16.963  0.00  0.00    +0.000 C 
BRANCH  16  17
ATOM     17  C   UNL     1       4.940   6.474  16.999  0.00  0.00    +0.000 C 
BRANCH  17  18
ATOM     18  C   UNL     1       6.065   7.477  16.841  0.00  0.00    +0.000 C 
BRANCH  18  19
ATOM     19  C   UNL     1       7.369   6.777  17.197  0.00  0.00    +0.000 C 
BRANCH  19  20
ATOM     20  C   UNL     1       8.113   7.540  18.273  0.00  0.00    +0.000 C 
BRANCH  20  21
ATOM     21  C   UNL     1       8.136   9.022  17.935  0.00  0.00    +0.000 C 
BRANCH  21  22
ATOM     22  C   UNL     1       9.020   9.766  18.922  0.00  0.00    +0.000 C 
BRANCH  22  23
ATOM     23  C   UNL     1       9.660  10.973  18.254  0.00  0.00    +0.000 C 
BRANCH  23  24
ATOM     24  C   UNL     1      10.895  11.414  19.026  0.00  0.00    +0.000 C 
BRANCH  24  25
ATOM     25  C   UNL     1      10.516  11.831  20.440  0.00  0.00    +0.000 C 
BRANCH  25  26
ATOM     26  C   UNL     1      10.159  13.311  20.485  0.00  0.00    +0.000 C 
BRANCH  26  27
ATOM     27  C   UNL     1       8.879  13.534  21.284  0.00  0.00    +0.000 C 
BRANCH  27  29
ATOM     28  C   UNL     1      10.140  15.417  22.362  0.00  0.00    +0.000 C 
ATOM     29  C   UNL     1       9.173  14.268  22.588  0.00  0.00    +0.000 C 
ENDBRANCH  27  29
ENDBRANCH  26  27
ENDBRANCH  25  26
ENDBRANCH  24  25
ENDBRANCH  23  24
ENDBRANCH  22  23
ENDBRANCH  21  22
ENDBRANCH  20  21
ENDBRANCH  19  20
ENDBRANCH  18  19
ENDBRANCH  17  18
ENDBRANCH  16  17
ENDBRANCH   1  16
TORSDOF 20
ENDMDL
MODEL 4
REMARK VINA RESULT:      -5.6      2.164      4.027
REMARK  Name = 
REMARK  22 active torsions:
REMARK  status: ('A' for Active; 'I' for Inactive)
REMARK    1  A    between atoms: C_1  and  C_2
REMARK    2  A    between atoms: C_2  and  C_3
REMARK    3  A    between atoms: C_3  and  C_4
REMARK    4  A    between atoms: C_4  and  C_5
REMARK    5  A    between atoms: C_5  and  C_6
REMARK    6  A    between atoms: C_6  and  C_7
REMARK    7  A    between atoms: C_7  and  C_8
REMARK    8  A    between atoms: C_8  and  C_9
REMARK    9  A    between atoms: C_9  and  C_10
REMARK   10  A    between atoms: C_10  and  C_11
REMARK   11  A    between atoms: C_11  and  C_12
REMARK   12  A    between atoms: C_12  and  C_13
REMARK   13  A    between atoms: C_13  and  C_14
REMARK   14  A    between atoms: C_14  and  S_15
REMARK   15  A    between atoms: S_15  and  C_16
REMARK   16  A    between atoms: S_15  and  C_17
REMARK   17  A    between atoms: C_17  and  C_18
REMARK   18  A    between atoms: C_18  and  P_19
REMARK   19  A    between atoms: C_18  and  P_23
REMARK   20  A    between atoms: P_19  and  O_22
REMARK   21  A    between atoms: P_23  and  O_25
REMARK   22  A    between atoms: P_23  and  O_26
REMARK                            x       y       z     vdW  Elec       q    Type
REMARK                         _______ _______ _______ _____ _____    ______ ____
ROOT
ATOM      1  S   UNL     1       3.006   3.899  18.527  0.00  0.00    +0.000 S 
ATOM      2  C   UNL     1       1.358   3.930  17.796  0.00  0.00    +0.000 C 
ENDROOT
BRANCH   1   3
ATOM      3  C   UNL     1       3.857   4.873  17.228  0.00  0.00    +0.000 C 
BRANCH   3   4
ATOM      4  C   UNL     1       5.193   4.321  16.778  0.00  0.00    +0.000 C 
BRANCH   4   5
ATOM      5  P   UNL     1       5.988   5.158  15.251  0.00  0.00    +0.000 P 
ATOM      6  O   UNL     1       6.095   4.192  14.106  0.00  0.00    +0.000 OA
ATOM      7  O   UNL     1       5.226   6.441  15.080  0.00  0.00    +0.000 OA
BRANCH   5   8
ATOM      8  O   UNL     1       7.512   5.552  15.576  0.00  0.00    +0.000 OA
ATOM      9  H   UNL     1       7.541   5.619  16.557  0.00  0.00    +0.000 HD
ENDBRANCH   5   8
ENDBRANCH   4   5
BRANCH   4  10
ATOM     10  P   UNL     1       6.671   4.686  17.793  0.00  0.00    +0.000 P 
ATOM     11  O   UNL     1       6.133   6.059  18.200  0.00  0.00    +0.000 OA
BRANCH  10  12
ATOM     12  O   UNL     1       8.069   5.029  18.753  0.00  0.00    +0.000 OA
ATOM     13  H   UNL     1       8.208   4.179  19.218  0.00  0.00    +0.000 HD
ENDBRANCH  10  12
BRANCH  10  14
ATOM     14  O   UNL     1       6.115   3.778  19.050  0.00  0.00    +0.000 OA
ATOM     15  H   UNL     1       5.492   4.361  19.517  0.00  0.00    +0.000 HD
ENDBRANCH  10  14
ENDBRANCH   4  10
ENDBRANCH   3   4
ENDBRANCH   1   3
BRANCH   1  16
ATOM     16  C   UNL     1       2.770   5.242  19.724  0.00  0.00    +0.000 C 
BRANCH  16  17
ATOM     17  C   UNL     1       2.290   6.485  19.000  0.00  0.00    +0.000 C 
BRANCH  17  18
ATOM     18  C   UNL     1       2.322   7.721  19.878  0.00  0.00    +0.000 C 
BRANCH  18  19
ATOM     19  C   UNL     1       1.122   7.663  20.813  0.00  0.00    +0.000 C 
BRANCH  19  20
ATOM     20  C   UNL     1       1.168   8.795  21.817  0.00  0.00    +0.000 C 
BRANCH  20  21
ATOM     21  C   UNL     1       0.031   9.768  21.553  0.00  0.00    +0.000 C 
BRANCH  21  22
ATOM     22  C   UNL     1       0.577  11.058  20.964  0.00  0.00    +0.000 C 
BRANCH  22  23
ATOM     23  C   UNL     1       0.197  11.171  19.495  0.00  0.00    +0.000 C 
BRANCH  23  24
ATOM     24  C   UNL     1      -1.250  10.751  19.288  0.00  0.00    +0.000 C 
BRANCH  24  25
ATOM     25  C   UNL     1      -1.427  10.114  17.917  0.00  0.00    +0.000 C 
BRANCH  25  26
ATOM     26  C   UNL     1      -2.882   9.718  17.693  0.00  0.00    +0.000 C 
BRANCH  26  27
ATOM     27  C   UNL     1      -3.588  10.737  16.804  0.00  0.00    +0.000 C 
BRANCH  27  29
ATOM     28  C   UNL     1      -3.464  10.100  14.380  0.00  0.00    +0.000 C 
ATOM     29  C   UNL     1      -2.837  10.924  15.490  0.00  0.00    +0.000 C 
ENDBRANCH  27  29
ENDBRANCH  26  27
ENDBRANCH  25  26
ENDBRANCH  24  25
ENDBRANCH  23  24
ENDBRANCH  22  23
ENDBRANCH  21  22
ENDBRANCH  20  21
ENDBRANCH  19  20
ENDBRANCH  18  19
ENDBRANCH  17  18
ENDBRANCH  16  17
ENDBRANCH   1  16
TORSDOF 20
ENDMDL
MODEL 5
REMARK VINA RESULT:      -5.6      6.381      9.108
REMARK  Name = 
REMARK  22 active torsions:
REMARK  status: ('A' for Active; 'I' for Inactive)
REMARK    1  A    between atoms: C_1  and  C_2
REMARK    2  A    between atoms: C_2  and  C_3
REMARK    3  A    between atoms: C_3  and  C_4
REMARK    4  A    between atoms: C_4  and  C_5
REMARK    5  A    between atoms: C_5  and  C_6
REMARK    6  A    between atoms: C_6  and  C_7
REMARK    7  A    between atoms: C_7  and  C_8
REMARK    8  A    between atoms: C_8  and  C_9
REMARK    9  A    between atoms: C_9  and  C_10
REMARK   10  A    between atoms: C_10  and  C_11
REMARK   11  A    between atoms: C_11  and  C_12
REMARK   12  A    between atoms: C_12  and  C_13
REMARK   13  A    between atoms: C_13  and  C_14
REMARK   14  A    between atoms: C_14  and  S_15
REMARK   15  A    between atoms: S_15  and  C_16
REMARK   16  A    between atoms: S_15  and  C_17
REMARK   17  A    between atoms: C_17  and  C_18
REMARK   18  A    between atoms: C_18  and  P_19
REMARK   19  A    between atoms: C_18  and  P_23
REMARK   20  A    between atoms: P_19  and  O_22
REMARK   21  A    between atoms: P_23  and  O_25
REMARK   22  A    between atoms: P_23  and  O_26
REMARK                            x       y       z     vdW  Elec       q    Type
REMARK                         _______ _______ _______ _____ _____    ______ ____
ROOT
ATOM      1  S   UNL     1       0.091   9.503  20.582  0.00  0.00    +0.000 S 
ATOM      2  C   UNL     1       0.935  10.967  21.207  0.00  0.00    +0.000 C 
ENDROOT
BRANCH   1   3
ATOM      3  C   UNL     1      -0.447  10.209  18.979  0.00  0.00    +0.000 C 
BRANCH   3   4
ATOM      4  C   UNL     1      -1.896  10.646  18.918  0.00  0.00    +0.000 C 
BRANCH   4   5
ATOM      5  P   UNL     1      -2.299  12.360  19.667  0.00  0.00    +0.000 P 
ATOM      6  O   UNL     1      -2.462  12.269  21.157  0.00  0.00    +0.000 OA
ATOM      7  O   UNL     1      -1.270  13.284  19.081  0.00  0.00    +0.000 OA
BRANCH   5   8
ATOM      8  O   UNL     1      -3.735  12.860  19.145  0.00  0.00    +0.000 OA
ATOM      9  H   UNL     1      -4.219  12.029  18.935  0.00  0.00    +0.000 HD
ENDBRANCH   5   8
ENDBRANCH   4   5
BRANCH   4  10
ATOM     10  P   UNL     1      -2.586  11.149  17.300  0.00  0.00    +0.000 P 
ATOM     11  O   UNL     1      -1.956   9.951  16.586  0.00  0.00    +0.000 OA
BRANCH  10  12
ATOM     12  O   UNL     1      -3.240  11.625  15.771  0.00  0.00    +0.000 OA
ATOM     13  H   UNL     1      -3.654  10.795  15.461  0.00  0.00    +0.000 HD
ENDBRANCH  10  12
BRANCH  10  14
ATOM     14  O   UNL     1      -4.065  10.520  17.660  0.00  0.00    +0.000 OA
ATOM     15  H   UNL     1      -3.966   9.563  17.520  0.00  0.00    +0.000 HD
ENDBRANCH  10  14
ENDBRANCH   4  10
ENDBRANCH   3   4
ENDBRANCH   1   3
BRANCH   1  16
ATOM     16  C   UNL     1       1.554   8.614  19.979  0.00  0.00    +0.000 C 
BRANCH  16  17
ATOM     17  C   UNL     1       1.631   8.734  18.469  0.00  0.00    +0.000 C 
BRANCH  17  18
ATOM     18  C   UNL     1       2.917   8.163  17.903  0.00  0.00    +0.000 C 
BRANCH  18  19
ATOM     19  C   UNL     1       2.842   6.647  18.010  0.00  0.00    +0.000 C 
BRANCH  19  20
ATOM     20  C   UNL     1       4.160   6.014  17.618  0.00  0.00    +0.000 C 
BRANCH  20  21
ATOM     21  C   UNL     1       4.872   5.489  18.855  0.00  0.00    +0.000 C 
BRANCH  21  22
ATOM     22  C   UNL     1       4.907   3.970  18.828  0.00  0.00    +0.000 C 
BRANCH  22  23
ATOM     23  C   UNL     1       4.387   3.452  17.496  0.00  0.00    +0.000 C 
BRANCH  23  24
ATOM     24  C   UNL     1       3.347   2.364  17.719  0.00  0.00    +0.000 C 
BRANCH  24  25
ATOM     25  C   UNL     1       1.956   2.973  17.831  0.00  0.00    +0.000 C 
BRANCH  25  26
ATOM     26  C   UNL     1       1.128   2.230  18.872  0.00  0.00    +0.000 C 
BRANCH  26  27
ATOM     27  C   UNL     1       0.676   3.178  19.978  0.00  0.00    +0.000 C 
BRANCH  27  29
ATOM     28  C   UNL     1       2.148   4.859  21.118  0.00  0.00    +0.000 C 
ATOM     29  C   UNL     1       1.787   3.390  21.000  0.00  0.00    +0.000 C 
ENDBRANCH  27  29
ENDBRANCH  26  27
ENDBRANCH  25  26
ENDBRANCH  24  25
ENDBRANCH  23  24
ENDBRANCH  22  23
ENDBRANCH  21  22
ENDBRANCH  20  21
ENDBRANCH  19  20
ENDBRANCH  18  19
ENDBRANCH  17  18
ENDBRANCH  16  17
ENDBRANCH   1  16
TORSDOF 20
ENDMDL
MODEL 6
REMARK VINA RESULT:      -5.5      1.133      2.711
REMARK  Name = 
REMARK  22 active torsions:
REMARK  status: ('A' for Active; 'I' for Inactive)
REMARK    1  A    between atoms: C_1  and  C_2
REMARK    2  A    between atoms: C_2  and  C_3
REMARK    3  A    between atoms: C_3  and  C_4
REMARK    4  A    between atoms: C_4  and  C_5
REMARK    5  A    between atoms: C_5  and  C_6
REMARK    6  A    between atoms: C_6  and  C_7
REMARK    7  A    between atoms: C_7  and  C_8
REMARK    8  A    between atoms: C_8  and  C_9
REMARK    9  A    between atoms: C_9  and  C_10
REMARK   10  A    between atoms: C_10  and  C_11
REMARK   11  A    between atoms: C_11  and  C_12
REMARK   12  A    between atoms: C_12  and  C_13
REMARK   13  A    between atoms: C_13  and  C_14
REMARK   14  A    between atoms: C_14  and  S_15
REMARK   15  A    between atoms: S_15  and  C_16
REMARK   16  A    between atoms: S_15  and  C_17
REMARK   17  A    between atoms: C_17  and  C_18
REMARK   18  A    between atoms: C_18  and  P_19
REMARK   19  A    between atoms: C_18  and  P_23
REMARK   20  A    between atoms: P_19  and  O_22
REMARK   21  A    between atoms: P_23  and  O_25
REMARK   22  A    between atoms: P_23  and  O_26
REMARK                            x       y       z     vdW  Elec       q    Type
REMARK                         _______ _______ _______ _____ _____    ______ ____
ROOT
ATOM      1  S   UNL     1       3.419   5.813  19.590  0.00  0.00    +0.000 S 
ATOM      2  C   UNL     1       2.299   4.455  19.203  0.00  0.00    +0.000 C 
ENDROOT
BRANCH   1   3
ATOM      3  C   UNL     1       4.173   5.977  17.928  0.00  0.00    +0.000 C 
BRANCH   3   4
ATOM      4  C   UNL     1       5.415   5.142  17.696  0.00  0.00    +0.000 C 
BRANCH   4   5
ATOM      5  P   UNL     1       6.266   5.337  15.994  0.00  0.00    +0.000 P 
ATOM      6  O   UNL     1       6.742   4.010  15.477  0.00  0.00    +0.000 OA
ATOM      7  O   UNL     1       5.307   6.158  15.180  0.00  0.00    +0.000 OA
BRANCH   5   8
ATOM      8  O   UNL     1       7.612   6.203  16.152  0.00  0.00    +0.000 OA
ATOM      9  H   UNL     1       7.673   6.710  15.311  0.00  0.00    +0.000 HD
ENDBRANCH   5   8
ENDBRANCH   4   5
BRANCH   4  10
ATOM     10  P   UNL     1       6.956   5.615  18.563  0.00  0.00    +0.000 P 
ATOM     11  O   UNL     1       6.428   5.115  19.910  0.00  0.00    +0.000 OA
BRANCH  10  12
ATOM     12  O   UNL     1       8.413   6.062  19.380  0.00  0.00    +0.000 OA
ATOM     13  H   UNL     1       8.151   6.896  19.819  0.00  0.00    +0.000 HD
ENDBRANCH  10  12
BRANCH  10  14
ATOM     14  O   UNL     1       7.741   4.263  18.045  0.00  0.00    +0.000 OA
ATOM     15  H   UNL     1       7.176   3.526  18.331  0.00  0.00    +0.000 HD
ENDBRANCH  10  14
ENDBRANCH   4  10
ENDBRANCH   3   4
ENDBRANCH   1   3
BRANCH   1  16
ATOM     16  C   UNL     1       2.220   7.168  19.450  0.00  0.00    +0.000 C 
BRANCH  16  17
ATOM     17  C   UNL     1       2.152   7.635  18.008  0.00  0.00    +0.000 C 
BRANCH  17  18
ATOM     18  C   UNL     1       2.280   9.140  17.875  0.00  0.00    +0.000 C 
BRANCH  18  19
ATOM     19  C   UNL     1       0.951   9.760  18.280  0.00  0.00    +0.000 C 
BRANCH  19  20
ATOM     20  C   UNL     1       1.170  11.006  19.111  0.00  0.00    +0.000 C 
BRANCH  20  21
ATOM     21  C   UNL     1       0.005  11.966  18.926  0.00  0.00    +0.000 C 
BRANCH  21  22
ATOM     22  C   UNL     1      -1.308  11.244  19.180  0.00  0.00    +0.000 C 
BRANCH  22  23
ATOM     23  C   UNL     1      -2.432  12.248  19.387  0.00  0.00    +0.000 C 
BRANCH  23  24
ATOM     24  C   UNL     1      -2.749  12.392  20.867  0.00  0.00    +0.000 C 
BRANCH  24  25
ATOM     25  C   UNL     1      -1.801  13.389  21.519  0.00  0.00    +0.000 C 
BRANCH  25  26
ATOM     26  C   UNL     1      -1.324  12.870  22.870  0.00  0.00    +0.000 C 
BRANCH  26  27
ATOM     27  C   UNL     1      -1.507  11.359  22.964  0.00  0.00    +0.000 C 
BRANCH  27  29
ATOM     28  C   UNL     1       0.035   9.429  23.403  0.00  0.00    +0.000 C 
ATOM     29  C   UNL     1      -0.243  10.630  22.518  0.00  0.00    +0.000 C 
ENDBRANCH  27  29
ENDBRANCH  26  27
ENDBRANCH  25  26
ENDBRANCH  24  25
ENDBRANCH  23  24
ENDBRANCH  22  23
ENDBRANCH  21  22
ENDBRANCH  20  21
ENDBRANCH  19  20
ENDBRANCH  18  19
ENDBRANCH  17  18
ENDBRANCH  16  17
ENDBRANCH   1  16
TORSDOF 20
ENDMDL
MODEL 7
REMARK VINA RESULT:      -5.5      1.905      3.814
REMARK  Name = 
REMARK  22 active torsions:
REMARK  status: ('A' for Active; 'I' for Inactive)
REMARK    1  A    between atoms: C_1  and  C_2
REMARK    2  A    between atoms: C_2  and  C_3
REMARK    3  A    between atoms: C_3  and  C_4
REMARK    4  A    between atoms: C_4  and  C_5
REMARK    5  A    between atoms: C_5  and  C_6
REMARK    6  A    between atoms: C_6  and  C_7
REMARK    7  A    between atoms: C_7  and  C_8
REMARK    8  A    between atoms: C_8  and  C_9
REMARK    9  A    between atoms: C_9  and  C_10
REMARK   10  A    between atoms: C_10  and  C_11
REMARK   11  A    between atoms: C_11  and  C_12
REMARK   12  A    between atoms: C_12  and  C_13
REMARK   13  A    between atoms: C_13  and  C_14
REMARK   14  A    between atoms: C_14  and  S_15
REMARK   15  A    between atoms: S_15  and  C_16
REMARK   16  A    between atoms: S_15  and  C_17
REMARK   17  A    between atoms: C_17  and  C_18
REMARK   18  A    between atoms: C_18  and  P_19
REMARK   19  A    between atoms: C_18  and  P_23
REMARK   20  A    between atoms: P_19  and  O_22
REMARK   21  A    between atoms: P_23  and  O_25
REMARK   22  A    between atoms: P_23  and  O_26
REMARK                            x       y       z     vdW  Elec       q    Type
REMARK                         _______ _______ _______ _____ _____    ______ ____
ROOT
ATOM      1  S   UNL     1       3.035   5.518  19.092  0.00  0.00    +0.000 S 
ATOM      2  C   UNL     1       1.810   4.758  18.011  0.00  0.00    +0.000 C 
ENDROOT
BRANCH   1   3
ATOM      3  C   UNL     1       4.190   6.075  17.783  0.00  0.00    +0.000 C 
BRANCH   3   4
ATOM      4  C   UNL     1       5.417   5.209  17.593  0.00  0.00    +0.000 C 
BRANCH   4   5
ATOM      5  P   UNL     1       6.288   5.329  15.893  0.00  0.00    +0.000 P 
ATOM      6  O   UNL     1       6.676   3.968  15.392  0.00  0.00    +0.000 OA
ATOM      7  O   UNL     1       5.390   6.204  15.066  0.00  0.00    +0.000 OA
BRANCH   5   8
ATOM      8  O   UNL     1       7.688   6.104  16.050  0.00  0.00    +0.000 OA
ATOM      9  H   UNL     1       7.478   7.035  15.811  0.00  0.00    +0.000 HD
ENDBRANCH   5   8
ENDBRANCH   4   5
BRANCH   4  10
ATOM     10  P   UNL     1       6.959   5.682  18.458  0.00  0.00    +0.000 P 
ATOM     11  O   UNL     1       6.391   5.286  19.823  0.00  0.00    +0.000 OA
BRANCH  10  12
ATOM     12  O   UNL     1       8.417   6.128  19.274  0.00  0.00    +0.000 OA
ATOM     13  H   UNL     1       8.814   5.256  19.470  0.00  0.00    +0.000 HD
ENDBRANCH  10  12
BRANCH  10  14
ATOM     14  O   UNL     1       7.704   4.274  18.040  0.00  0.00    +0.000 OA
ATOM     15  H   UNL     1       8.654   4.481  18.063  0.00  0.00    +0.000 HD
ENDBRANCH  10  14
ENDBRANCH   4  10
ENDBRANCH   3   4
ENDBRANCH   1   3
BRANCH   1  16
ATOM     16  C   UNL     1       2.183   7.099  19.356  0.00  0.00    +0.000 C 
BRANCH  16  17
ATOM     17  C   UNL     1       2.550   8.062  18.243  0.00  0.00    +0.000 C 
BRANCH  17  18
ATOM     18  C   UNL     1       1.463   9.083  17.972  0.00  0.00    +0.000 C 
BRANCH  18  19
ATOM     19  C   UNL     1       1.201   9.842  19.266  0.00  0.00    +0.000 C 
BRANCH  19  20
ATOM     20  C   UNL     1      -0.285  10.027  19.490  0.00  0.00    +0.000 C 
BRANCH  20  21
ATOM     21  C   UNL     1      -0.970  10.362  18.174  0.00  0.00    +0.000 C 
BRANCH  21  22
ATOM     22  C   UNL     1      -1.733  11.669  18.304  0.00  0.00    +0.000 C 
BRANCH  22  23
ATOM     23  C   UNL     1      -0.792  12.851  18.125  0.00  0.00    +0.000 C 
BRANCH  23  24
ATOM     24  C   UNL     1      -0.737  13.683  19.397  0.00  0.00    +0.000 C 
BRANCH  24  25
ATOM     25  C   UNL     1       0.704  13.866  19.850  0.00  0.00    +0.000 C 
BRANCH  25  26
ATOM     26  C   UNL     1       1.667  13.576  18.706  0.00  0.00    +0.000 C 
BRANCH  26  27
ATOM     27  C   UNL     1       2.498  14.811  18.373  0.00  0.00    +0.000 C 
BRANCH  27  29
ATOM     28  C   UNL     1       4.796  14.956  19.371  0.00  0.00    +0.000 C 
ATOM     29  C   UNL     1       3.969  14.447  18.203  0.00  0.00    +0.000 C 
ENDBRANCH  27  29
ENDBRANCH  26  27
ENDBRANCH  25  26
ENDBRANCH  24  25
ENDBRANCH  23  24
ENDBRANCH  22  23
ENDBRANCH  21  22
ENDBRANCH  20  21
ENDBRANCH  19  20
ENDBRANCH  18  19
ENDBRANCH  17  18
ENDBRANCH  16  17
ENDBRANCH   1  16
TORSDOF 20
ENDMDL
MODEL 8
REMARK VINA RESULT:      -5.5      6.404      9.261
REMARK  Name = 
REMARK  22 active torsions:
REMARK  status: ('A' for Active; 'I' for Inactive)
REMARK    1  A    between atoms: C_1  and  C_2
REMARK    2  A    between atoms: C_2  and  C_3
REMARK    3  A    between atoms: C_3  and  C_4
REMARK    4  A    between atoms: C_4  and  C_5
REMARK    5  A    between atoms: C_5  and  C_6
REMARK    6  A    between atoms: C_6  and  C_7
REMARK    7  A    between atoms: C_7  and  C_8
REMARK    8  A    between atoms: C_8  and  C_9
REMARK    9  A    between atoms: C_9  and  C_10
REMARK   10  A    between atoms: C_10  and  C_11
REMARK   11  A    between atoms: C_11  and  C_12
REMARK   12  A    between atoms: C_12  and  C_13
REMARK   13  A    between atoms: C_13  and  C_14
REMARK   14  A    between atoms: C_14  and  S_15
REMARK   15  A    between atoms: S_15  and  C_16
REMARK   16  A    between atoms: S_15  and  C_17
REMARK   17  A    between atoms: C_17  and  C_18
REMARK   18  A    between atoms: C_18  and  P_19
REMARK   19  A    between atoms: C_18  and  P_23
REMARK   20  A    between atoms: P_19  and  O_22
REMARK   21  A    between atoms: P_23  and  O_25
REMARK   22  A    between atoms: P_23  and  O_26
REMARK                            x       y       z     vdW  Elec       q    Type
REMARK                         _______ _______ _______ _____ _____    ______ ____
ROOT
ATOM      1  S   UNL     1       1.530  10.040  19.514  0.00  0.00    +0.000 S 
ATOM      2  C   UNL     1       1.735  11.620  18.671  0.00  0.00    +0.000 C 
ENDROOT
BRANCH   1   3
ATOM      3  C   UNL     1      -0.268  10.178  19.838  0.00  0.00    +0.000 C 
BRANCH   3   4
ATOM      4  C   UNL     1      -0.937  11.407  19.259  0.00  0.00    +0.000 C 
BRANCH   4   5
ATOM      5  P   UNL     1      -2.273  11.098  17.924  0.00  0.00    +0.000 P 
ATOM      6  O   UNL     1      -2.152   9.714  17.354  0.00  0.00    +0.000 OA
ATOM      7  O   UNL     1      -3.560  11.536  18.564  0.00  0.00    +0.000 OA
BRANCH   5   8
ATOM      8  O   UNL     1      -2.020  12.065  16.664  0.00  0.00    +0.000 OA
ATOM      9  H   UNL     1      -1.952  12.963  17.059  0.00  0.00    +0.000 HD
ENDBRANCH   5   8
ENDBRANCH   4   5
BRANCH   4  10
ATOM     10  P   UNL     1      -2.135  12.318  20.300  0.00  0.00    +0.000 P 
ATOM     11  O   UNL     1      -1.096  12.559  21.398  0.00  0.00    +0.000 OA
BRANCH  10  12
ATOM     12  O   UNL     1      -3.268  13.181  21.282  0.00  0.00    +0.000 OA
ATOM     13  H   UNL     1      -3.958  13.419  20.632  0.00  0.00    +0.000 HD
ENDBRANCH  10  12
BRANCH  10  14
ATOM     14  O   UNL     1      -1.947  13.700  19.423  0.00  0.00    +0.000 OA
ATOM     15  H   UNL     1      -1.696  13.396  18.534  0.00  0.00    +0.000 HD
ENDBRANCH  10  14
ENDBRANCH   4  10
ENDBRANCH   3   4
ENDBRANCH   1   3
BRANCH   1  16
ATOM     16  C   UNL     1       1.433   8.986  18.041  0.00  0.00    +0.000 C 
BRANCH  16  17
ATOM     17  C   UNL     1       2.353   7.792  18.212  0.00  0.00    +0.000 C 
BRANCH  17  18
ATOM     18  C   UNL     1       3.317   7.627  17.054  0.00  0.00    +0.000 C 
BRANCH  18  19
ATOM     19  C   UNL     1       4.466   6.745  17.524  0.00  0.00    +0.000 C 
BRANCH  19  20
ATOM     20  C   UNL     1       5.146   6.076  16.349  0.00  0.00    +0.000 C 
BRANCH  20  21
ATOM     21  C   UNL     1       4.983   4.567  16.445  0.00  0.00    +0.000 C 
BRANCH  21  22
ATOM     22  C   UNL     1       4.426   4.191  17.807  0.00  0.00    +0.000 C 
BRANCH  22  23
ATOM     23  C   UNL     1       3.901   2.763  17.788  0.00  0.00    +0.000 C 
BRANCH  23  24
ATOM     24  C   UNL     1       2.399   2.753  17.548  0.00  0.00    +0.000 C 
BRANCH  24  25
ATOM     25  C   UNL     1       1.813   4.136  17.792  0.00  0.00    +0.000 C 
BRANCH  25  26
ATOM     26  C   UNL     1       1.308   4.260  19.224  0.00  0.00    +0.000 C 
BRANCH  26  27
ATOM     27  C   UNL     1       0.829   2.909  19.746  0.00  0.00    +0.000 C 
BRANCH  27  29
ATOM     28  C   UNL     1       2.260   3.783  21.613  0.00  0.00    +0.000 C 
ATOM     29  C   UNL     1       1.419   2.618  21.122  0.00  0.00    +0.000 C 
ENDBRANCH  27  29
ENDBRANCH  26  27
ENDBRANCH  25  26
ENDBRANCH  24  25
ENDBRANCH  23  24
ENDBRANCH  22  23
ENDBRANCH  21  22
ENDBRANCH  20  21
ENDBRANCH  19  20
ENDBRANCH  18  19
ENDBRANCH  17  18
ENDBRANCH  16  17
ENDBRANCH   1  16
TORSDOF 20
ENDMDL
MODEL 9
REMARK VINA RESULT:      -5.5      5.710      7.908
REMARK  Name = 
REMARK  22 active torsions:
REMARK  status: ('A' for Active; 'I' for Inactive)
REMARK    1  A    between atoms: C_1  and  C_2
REMARK    2  A    between atoms: C_2  and  C_3
REMARK    3  A    between atoms: C_3  and  C_4
REMARK    4  A    between atoms: C_4  and  C_5
REMARK    5  A    between atoms: C_5  and  C_6
REMARK    6  A    between atoms: C_6  and  C_7
REMARK    7  A    between atoms: C_7  and  C_8
REMARK    8  A    between atoms: C_8  and  C_9
REMARK    9  A    between atoms: C_9  and  C_10
REMARK   10  A    between atoms: C_10  and  C_11
REMARK   11  A    between atoms: C_11  and  C_12
REMARK   12  A    between atoms: C_12  and  C_13
REMARK   13  A    between atoms: C_13  and  C_14
REMARK   14  A    between atoms: C_14  and  S_15
REMARK   15  A    between atoms: S_15  and  C_16
REMARK   16  A    between atoms: S_15  and  C_17
REMARK   17  A    between atoms: C_17  and  C_18
REMARK   18  A    between atoms: C_18  and  P_19
REMARK   19  A    between atoms: C_18  and  P_23
REMARK   20  A    between atoms: P_19  and  O_22
REMARK   21  A    between atoms: P_23  and  O_25
REMARK   22  A    between atoms: P_23  and  O_26
REMARK                            x       y       z     vdW  Elec       q    Type
REMARK                         _______ _______ _______ _____ _____    ______ ____
ROOT
ATOM      1  S   UNL     1       2.180   6.458  18.861  0.00  0.00    +0.000 S 
ATOM      2  C   UNL     1       1.517   5.321  17.629  0.00  0.00    +0.000 C 
ENDROOT
BRANCH   1   3
ATOM      3  C   UNL     1       3.300   5.272  19.696  0.00  0.00    +0.000 C 
BRANCH   3   4
ATOM      4  C   UNL     1       2.886   3.818  19.605  0.00  0.00    +0.000 C 
BRANCH   4   5
ATOM      5  P   UNL     1       4.301   2.530  19.583  0.00  0.00    +0.000 P 
ATOM      6  O   UNL     1       4.667   2.112  20.978  0.00  0.00    +0.000 OA
ATOM      7  O   UNL     1       3.862   1.499  18.583  0.00  0.00    +0.000 OA
BRANCH   5   8
ATOM      8  O   UNL     1       5.643   3.204  19.010  0.00  0.00    +0.000 OA
ATOM      9  H   UNL     1       6.139   3.478  19.814  0.00  0.00    +0.000 HD
ENDBRANCH   5   8
ENDBRANCH   4   5
BRANCH   4  10
ATOM     10  P   UNL     1       2.143   3.032  21.081  0.00  0.00    +0.000 P 
ATOM     11  O   UNL     1       2.280   4.310  21.912  0.00  0.00    +0.000 OA
BRANCH  10  12
ATOM     12  O   UNL     1       1.439   2.287  22.476  0.00  0.00    +0.000 OA
ATOM     13  H   UNL     1       2.046   2.576  23.186  0.00  0.00    +0.000 HD
ENDBRANCH  10  12
BRANCH  10  14
ATOM     14  O   UNL     1       0.614   3.232  20.501  0.00  0.00    +0.000 OA
ATOM     15  H   UNL     1       0.678   3.011  19.557  0.00  0.00    +0.000 HD
ENDBRANCH  10  14
ENDBRANCH   4  10
ENDBRANCH   3   4
ENDBRANCH   1   3
BRANCH   1  16
ATOM     16  C   UNL     1       3.419   7.266  17.810  0.00  0.00    +0.000 C 
BRANCH  16  17
ATOM     17  C   UNL     1       4.623   6.357  17.659  0.00  0.00    +0.000 C 
BRANCH  17  18
ATOM     18  C   UNL     1       5.318   6.525  16.322  0.00  0.00    +0.000 C 
BRANCH  18  19
ATOM     19  C   UNL     1       6.612   5.724  16.364  0.00  0.00    +0.000 C 
BRANCH  19  20
ATOM     20  C   UNL     1       7.560   6.287  17.401  0.00  0.00    +0.000 C 
BRANCH  20  21
ATOM     21  C   UNL     1       7.624   7.801  17.277  0.00  0.00    +0.000 C 
BRANCH  21  22
ATOM     22  C   UNL     1       8.302   8.394  18.500  0.00  0.00    +0.000 C 
BRANCH  22  23
ATOM     23  C   UNL     1       8.814   9.793  18.196  0.00  0.00    +0.000 C 
BRANCH  23  24
ATOM     24  C   UNL     1       9.506  10.383  19.416  0.00  0.00    +0.000 C 
BRANCH  24  25
ATOM     25  C   UNL     1      10.149  11.718  19.068  0.00  0.00    +0.000 C 
BRANCH  25  26
ATOM     26  C   UNL     1      11.665  11.631  19.190  0.00  0.00    +0.000 C 
BRANCH  26  27
ATOM     27  C   UNL     1      12.246  12.959  19.665  0.00  0.00    +0.000 C 
BRANCH  27  29
ATOM     28  C   UNL     1      11.225  15.134  18.941  0.00  0.00    +0.000 C 
ATOM     29  C   UNL     1      11.139  13.976  19.920  0.00  0.00    +0.000 C 
ENDBRANCH  27  29
ENDBRANCH  26  27
ENDBRANCH  25  26
ENDBRANCH  24  25
ENDBRANCH  23  24
ENDBRANCH  22  23
ENDBRANCH  21  22
ENDBRANCH  20  21
ENDBRANCH  19  20
ENDBRANCH  18  19
ENDBRANCH  17  18
ENDBRANCH  16  17
ENDBRANCH   1  16
TORSDOF 20
ENDMDL
