MODEL 1
REMARK VINA RESULT:      -7.9      0.000      0.000
REMARK  Name = 
REMARK  4 active torsions:
REMARK  status: ('A' for Active; 'I' for Inactive)
REMARK    1  A    between atoms: N_9  and  C_10
REMARK    2  A    between atoms: C_10  and  C_11
REMARK    3  A    between atoms: C_11  and  C_12
REMARK    4  A    between atoms: C_12  and  C_13
REMARK                            x       y       z     vdW  Elec       q    Type
REMARK                         _______ _______ _______ _____ _____    ______ ____
ROOT
ATOM      1  C   UNL     1       7.721   5.322  18.252  0.00  0.00    +0.000 C 
ENDROOT
BRANCH   1   2
ATOM      2  C   UNL     1       7.380   6.416  17.224  0.00  0.00    +0.000 C 
BRANCH   2  11
ATOM      3  C   UNL     1       5.569   3.117  11.883  0.00  0.00    +0.000 A 
ATOM      4  C   UNL     1       6.864   3.586  11.667  0.00  0.00    +0.000 A 
ATOM      5  C   UNL     1       7.503   4.361  12.640  0.00  0.00    +0.000 A 
ATOM      6  C   UNL     1       6.843   4.687  13.835  0.00  0.00    +0.000 A 
ATOM      7  C   UNL     1       5.532   4.210  14.052  0.00  0.00    +0.000 A 
ATOM      8  C   UNL     1       4.903   3.426  13.072  0.00  0.00    +0.000 A 
ATOM      9  C   UNL     1       4.828   4.496  15.347  0.00  0.00    +0.000 C 
ATOM     10  C   UNL     1       5.245   5.849  15.912  0.00  0.00    +0.000 C 
ATOM     11  N   UNL     1       6.712   5.917  16.008  0.00  0.00    +0.000 NA
ATOM     12  C   UNL     1       7.555   5.553  14.851  0.00  0.00    +0.000 C 
ENDBRANCH   2  11
ENDBRANCH   1   2
BRANCH   1  13
ATOM     13  C   UNL     1       6.790   5.456  19.466  0.00  0.00    +0.000 C 
BRANCH  13  14
ATOM     14  C   UNL     1       5.476   4.783  19.229  0.00  0.00    +0.000 A 
ATOM     15  N   UNL     1       4.283   5.434  19.276  0.00  0.00    +0.000 NA
ATOM     16  C   UNL     1       3.386   4.473  18.994  0.00  0.00    +0.000 A 
ATOM     17  C   UNL     1       2.001   4.585  18.905  0.00  0.00    +0.000 A 
ATOM     18  C   UNL     1       1.272   3.422  18.587  0.00  0.00    +0.000 A 
ATOM     19  C   UNL     1       1.938   2.194  18.370  0.00  0.00    +0.000 A 
ATOM     20  C   UNL     1       3.341   2.117  18.468  0.00  0.00    +0.000 A 
ATOM     21  C   UNL     1       4.027   3.286  18.784  0.00  0.00    +0.000 A 
ATOM     22  N   UNL     1       5.347   3.468  18.928  0.00  0.00    +0.000 N 
ATOM     23  H   UNL     1       6.104   2.756  18.826  0.00  0.00    +0.000 HD
ENDBRANCH  13  14
ENDBRANCH   1  13
TORSDOF 4
ENDMDL
MODEL 2
REMARK VINA RESULT:      -7.8      1.517      6.234
REMARK  Name = 
REMARK  4 active torsions:
REMARK  status: ('A' for Active; 'I' for Inactive)
REMARK    1  A    between atoms: N_9  and  C_10
REMARK    2  A    between atoms: C_10  and  C_11
REMARK    3  A    between atoms: C_11  and  C_12
REMARK    4  A    between atoms: C_12  and  C_13
REMARK                            x       y       z     vdW  Elec       q    Type
REMARK                         _______ _______ _______ _____ _____    ______ ____
ROOT
ATOM      1  C   UNL     1       6.302   6.748  17.770  0.00  0.00    +0.000 C 
ENDROOT
BRANCH   1   2
ATOM      2  C   UNL     1       5.042   6.755  16.887  0.00  0.00    +0.000 C 
BRANCH   2  11
ATOM      3  C   UNL     1       0.614   3.223  20.144  0.00  0.00    +0.000 A 
ATOM      4  C   UNL     1       1.015   2.475  19.038  0.00  0.00    +0.000 A 
ATOM      5  C   UNL     1       1.943   3.000  18.133  0.00  0.00    +0.000 A 
ATOM      6  C   UNL     1       2.468   4.289  18.321  0.00  0.00    +0.000 A 
ATOM      7  C   UNL     1       2.061   5.044  19.442  0.00  0.00    +0.000 A 
ATOM      8  C   UNL     1       1.135   4.504  20.348  0.00  0.00    +0.000 A 
ATOM      9  C   UNL     1       2.652   6.400  19.696  0.00  0.00    +0.000 C 
ATOM     10  C   UNL     1       2.986   7.108  18.387  0.00  0.00    +0.000 C 
ATOM     11  N   UNL     1       3.833   6.239  17.554  0.00  0.00    +0.000 NA
ATOM     12  C   UNL     1       3.446   4.835  17.304  0.00  0.00    +0.000 C 
ENDBRANCH   2  11
ENDBRANCH   1   2
BRANCH   1  13
ATOM     13  C   UNL     1       7.124   5.484  17.476  0.00  0.00    +0.000 C 
BRANCH  13  14
ATOM     14  C   UNL     1       7.005   5.071  16.044  0.00  0.00    +0.000 A 
ATOM     15  N   UNL     1       7.714   5.648  15.037  0.00  0.00    +0.000 NA
ATOM     16  C   UNL     1       7.316   4.975  13.943  0.00  0.00    +0.000 A 
ATOM     17  C   UNL     1       7.728   5.152  12.625  0.00  0.00    +0.000 A 
ATOM     18  C   UNL     1       7.163   4.309  11.647  0.00  0.00    +0.000 A 
ATOM     19  C   UNL     1       6.213   3.326  12.008  0.00  0.00    +0.000 A 
ATOM     20  C   UNL     1       5.820   3.175  13.352  0.00  0.00    +0.000 A 
ATOM     21  C   UNL     1       6.399   4.025  14.290  0.00  0.00    +0.000 A 
ATOM     22  N   UNL     1       6.194   4.075  15.613  0.00  0.00    +0.000 N 
ATOM     23  H   UNL     1       5.556   3.475  16.182  0.00  0.00    +0.000 HD
ENDBRANCH  13  14
ENDBRANCH   1  13
TORSDOF 4
ENDMDL
MODEL 3
REMARK VINA RESULT:      -7.7      1.499      6.383
REMARK  Name = 
REMARK  4 active torsions:
REMARK  status: ('A' for Active; 'I' for Inactive)
REMARK    1  A    between atoms: N_9  and  C_10
REMARK    2  A    between atoms: C_10  and  C_11
REMARK    3  A    between atoms: C_11  and  C_12
REMARK    4  A    between atoms: C_12  and  C_13
REMARK                            x       y       z     vdW  Elec       q    Type
REMARK                         _______ _______ _______ _____ _____    ______ ____
ROOT
ATOM      1  C   UNL     1       6.307   6.196  17.907  0.00  0.00    +0.000 C 
ENDROOT
BRANCH   1   2
ATOM      2  C   UNL     1       5.012   6.739  17.276  0.00  0.00    +0.000 C 
BRANCH   2  11
ATOM      3  C   UNL     1       0.438   2.975  20.034  0.00  0.00    +0.000 A 
ATOM      4  C   UNL     1       0.853   2.341  18.864  0.00  0.00    +0.000 A 
ATOM      5  C   UNL     1       1.813   2.939  18.042  0.00  0.00    +0.000 A 
ATOM      6  C   UNL     1       2.357   4.189  18.378  0.00  0.00    +0.000 A 
ATOM      7  C   UNL     1       1.936   4.829  19.564  0.00  0.00    +0.000 A 
ATOM      8  C   UNL     1       0.977   4.216  20.386  0.00  0.00    +0.000 A 
ATOM      9  C   UNL     1       2.546   6.137  19.975  0.00  0.00    +0.000 C 
ATOM     10  C   UNL     1       2.925   6.973  18.757  0.00  0.00    +0.000 C 
ATOM     11  N   UNL     1       3.777   6.180  17.856  0.00  0.00    +0.000 NA
ATOM     12  C   UNL     1       3.371   4.819  17.448  0.00  0.00    +0.000 C 
ENDBRANCH   2  11
ENDBRANCH   1   2
BRANCH   1  13
ATOM     13  C   UNL     1       6.499   4.729  17.496  0.00  0.00    +0.000 C 
BRANCH  13  14
ATOM     14  C   UNL     1       6.651   4.587  16.016  0.00  0.00    +0.000 A 
ATOM     15  N   UNL     1       5.953   3.685  15.275  0.00  0.00    +0.000 NA
ATOM     16  C   UNL     1       6.380   3.907  14.020  0.00  0.00    +0.000 A 
ATOM     17  C   UNL     1       5.991   3.261  12.849  0.00  0.00    +0.000 A 
ATOM     18  C   UNL     1       6.586   3.684  11.644  0.00  0.00    +0.000 A 
ATOM     19  C   UNL     1       7.541   4.726  11.640  0.00  0.00    +0.000 A 
ATOM     20  C   UNL     1       7.911   5.357  12.843  0.00  0.00    +0.000 A 
ATOM     21  C   UNL     1       7.303   4.914  14.014  0.00  0.00    +0.000 A 
ATOM     22  N   UNL     1       7.483   5.352  15.268  0.00  0.00    +0.000 N 
ATOM     23  H   UNL     1       8.117   6.115  15.591  0.00  0.00    +0.000 HD
ENDBRANCH  13  14
ENDBRANCH   1  13
TORSDOF 4
ENDMDL
MODEL 4
REMARK VINA RESULT:      -7.7      0.999      6.191
REMARK  Name = 
REMARK  4 active torsions:
REMARK  status: ('A' for Active; 'I' for Inactive)
REMARK    1  A    between atoms: N_9  and  C_10
REMARK    2  A    between atoms: C_10  and  C_11
REMARK    3  A    between atoms: C_11  and  C_12
REMARK    4  A    between atoms: C_12  and  C_13
REMARK                            x       y       z     vdW  Elec       q    Type
REMARK                         _______ _______ _______ _____ _____    ______ ____
ROOT
ATOM      1  C   UNL     1       7.229   5.007  18.160  0.00  0.00    +0.000 C 
ENDROOT
BRANCH   1   2
ATOM      2  C   UNL     1       6.327   5.418  19.338  0.00  0.00    +0.000 C 
BRANCH   2  11
ATOM      3  C   UNL     1       0.465   2.533  19.362  0.00  0.00    +0.000 A 
ATOM      4  C   UNL     1       1.348   1.681  18.700  0.00  0.00    +0.000 A 
ATOM      5  C   UNL     1       2.683   2.058  18.515  0.00  0.00    +0.000 A 
ATOM      6  C   UNL     1       3.141   3.301  18.979  0.00  0.00    +0.000 A 
ATOM      7  C   UNL     1       2.245   4.161  19.650  0.00  0.00    +0.000 A 
ATOM      8  C   UNL     1       0.909   3.770  19.837  0.00  0.00    +0.000 A 
ATOM      9  C   UNL     1       2.726   5.469  20.206  0.00  0.00    +0.000 C 
ATOM     10  C   UNL     1       3.838   6.057  19.345  0.00  0.00    +0.000 C 
ATOM     11  N   UNL     1       4.907   5.061  19.166  0.00  0.00    +0.000 NA
ATOM     12  C   UNL     1       4.583   3.686  18.732  0.00  0.00    +0.000 C 
ENDBRANCH   2  11
ENDBRANCH   1   2
BRANCH   1  13
ATOM     13  C   UNL     1       7.116   6.053  17.042  0.00  0.00    +0.000 C 
BRANCH  13  14
ATOM     14  C   UNL     1       6.886   5.413  15.711  0.00  0.00    +0.000 A 
ATOM     15  N   UNL     1       7.739   5.544  14.660  0.00  0.00    +0.000 NA
ATOM     16  C   UNL     1       7.164   4.810  13.691  0.00  0.00    +0.000 A 
ATOM     17  C   UNL     1       7.615   4.590  12.393  0.00  0.00    +0.000 A 
ATOM     18  C   UNL     1       6.830   3.769  11.560  0.00  0.00    +0.000 A 
ATOM     19  C   UNL     1       5.629   3.197  12.041  0.00  0.00    +0.000 A 
ATOM     20  C   UNL     1       5.203   3.441  13.360  0.00  0.00    +0.000 A 
ATOM     21  C   UNL     1       6.004   4.257  14.154  0.00  0.00    +0.000 A 
ATOM     22  N   UNL     1       5.817   4.630  15.427  0.00  0.00    +0.000 N 
ATOM     23  H   UNL     1       5.027   4.368  16.058  0.00  0.00    +0.000 HD
ENDBRANCH  13  14
ENDBRANCH   1  13
TORSDOF 4
ENDMDL
MODEL 5
REMARK VINA RESULT:      -7.6      0.093      1.249
REMARK  Name = 
REMARK  4 active torsions:
REMARK  status: ('A' for Active; 'I' for Inactive)
REMARK    1  A    between atoms: N_9  and  C_10
REMARK    2  A    between atoms: C_10  and  C_11
REMARK    3  A    between atoms: C_11  and  C_12
REMARK    4  A    between atoms: C_12  and  C_13
REMARK                            x       y       z     vdW  Elec       q    Type
REMARK                         _______ _______ _______ _____ _____    ______ ____
ROOT
ATOM      1  C   UNL     1       7.667   5.322  18.343  0.00  0.00    +0.000 C 
ENDROOT
BRANCH   1   2
ATOM      2  C   UNL     1       7.377   6.417  17.301  0.00  0.00    +0.000 C 
BRANCH   2  11
ATOM      3  C   UNL     1       5.633   3.169  11.907  0.00  0.00    +0.000 A 
ATOM      4  C   UNL     1       6.926   3.651  11.706  0.00  0.00    +0.000 A 
ATOM      5  C   UNL     1       7.551   4.420  12.693  0.00  0.00    +0.000 A 
ATOM      6  C   UNL     1       6.879   4.725  13.887  0.00  0.00    +0.000 A 
ATOM      7  C   UNL     1       5.571   4.235  14.089  0.00  0.00    +0.000 A 
ATOM      8  C   UNL     1       4.955   3.458  13.094  0.00  0.00    +0.000 A 
ATOM      9  C   UNL     1       4.855   4.499  15.381  0.00  0.00    +0.000 C 
ATOM     10  C   UNL     1       5.256   5.849  15.966  0.00  0.00    +0.000 C 
ATOM     11  N   UNL     1       6.722   5.927  16.075  0.00  0.00    +0.000 NA
ATOM     12  C   UNL     1       7.577   5.585  14.919  0.00  0.00    +0.000 C 
ENDBRANCH   2  11
ENDBRANCH   1   2
BRANCH   1  13
ATOM     13  C   UNL     1       6.702   5.476  19.528  0.00  0.00    +0.000 C 
BRANCH  13  14
ATOM     14  C   UNL     1       5.403   4.780  19.274  0.00  0.00    +0.000 A 
ATOM     15  N   UNL     1       5.309   3.455  18.983  0.00  0.00    +0.000 NA
ATOM     16  C   UNL     1       3.986   3.253  18.849  0.00  0.00    +0.000 A 
ATOM     17  C   UNL     1       3.321   2.067  18.551  0.00  0.00    +0.000 A 
ATOM     18  C   UNL     1       1.915   2.111  18.469  0.00  0.00    +0.000 A 
ATOM     19  C   UNL     1       1.221   3.325  18.684  0.00  0.00    +0.000 A 
ATOM     20  C   UNL     1       1.927   4.505  18.984  0.00  0.00    +0.000 A 
ATOM     21  C   UNL     1       3.314   4.424  19.056  0.00  0.00    +0.000 A 
ATOM     22  N   UNL     1       4.197   5.395  19.326  0.00  0.00    +0.000 N 
ATOM     23  H   UNL     1       3.996   6.398  19.535  0.00  0.00    +0.000 HD
ENDBRANCH  13  14
ENDBRANCH   1  13
TORSDOF 4
ENDMDL
MODEL 6
REMARK VINA RESULT:      -7.4      2.947      6.618
REMARK  Name = 
REMARK  4 active torsions:
REMARK  status: ('A' for Active; 'I' for Inactive)
REMARK    1  A    between atoms: N_9  and  C_10
REMARK    2  A    between atoms: C_10  and  C_11
REMARK    3  A    between atoms: C_11  and  C_12
REMARK    4  A    between atoms: C_12  and  C_13
REMARK                            x       y       z     vdW  Elec       q    Type
REMARK                         _______ _______ _______ _____ _____    ______ ____
ROOT
ATOM      1  C   UNL     1       2.393   3.144  20.295  0.00  0.00    +0.000 C 
ENDROOT
BRANCH   1   2
ATOM      2  C   UNL     1       2.450   4.507  21.008  0.00  0.00    +0.000 C 
BRANCH   2  11
ATOM      3  C   UNL     1       1.500  10.401  18.353  0.00  0.00    +0.000 A 
ATOM      4  C   UNL     1       0.934  10.419  19.627  0.00  0.00    +0.000 A 
ATOM      5  C   UNL     1       0.959   9.270  20.424  0.00  0.00    +0.000 A 
ATOM      6  C   UNL     1       1.541   8.086  19.945  0.00  0.00    +0.000 A 
ATOM      7  C   UNL     1       2.115   8.071  18.656  0.00  0.00    +0.000 A 
ATOM      8  C   UNL     1       2.090   9.231  17.867  0.00  0.00    +0.000 A 
ATOM      9  C   UNL     1       2.794   6.833  18.145  0.00  0.00    +0.000 C 
ATOM     10  C   UNL     1       2.130   5.575  18.693  0.00  0.00    +0.000 C 
ATOM     11  N   UNL     1       2.060   5.649  20.162  0.00  0.00    +0.000 NA
ATOM     12  C   UNL     1       1.522   6.855  20.825  0.00  0.00    +0.000 C 
ENDBRANCH   2  11
ENDBRANCH   1   2
BRANCH   1  13
ATOM     13  C   UNL     1       3.816   2.585  20.148  0.00  0.00    +0.000 C 
BRANCH  13  14
ATOM     14  C   UNL     1       4.574   3.286  19.067  0.00  0.00    +0.000 A 
ATOM     15  N   UNL     1       5.541   4.210  19.310  0.00  0.00    +0.000 NA
ATOM     16  C   UNL     1       5.958   4.564  18.081  0.00  0.00    +0.000 A 
ATOM     17  C   UNL     1       6.944   5.484  17.736  0.00  0.00    +0.000 A 
ATOM     18  C   UNL     1       7.205   5.676  16.365  0.00  0.00    +0.000 A 
ATOM     19  C   UNL     1       6.482   4.955  15.388  0.00  0.00    +0.000 A 
ATOM     20  C   UNL     1       5.491   4.032  15.773  0.00  0.00    +0.000 A 
ATOM     21  C   UNL     1       5.260   3.868  17.136  0.00  0.00    +0.000 A 
ATOM     22  N   UNL     1       4.384   3.057  17.745  0.00  0.00    +0.000 N 
ATOM     23  H   UNL     1       3.711   2.395  17.298  0.00  0.00    +0.000 HD
ENDBRANCH  13  14
ENDBRANCH   1  13
TORSDOF 4
ENDMDL
MODEL 7
REMARK VINA RESULT:      -7.4      4.311      7.590
REMARK  Name = 
REMARK  4 active torsions:
REMARK  status: ('A' for Active; 'I' for Inactive)
REMARK    1  A    between atoms: N_9  and  C_10
REMARK    2  A    between atoms: C_10  and  C_11
REMARK    3  A    between atoms: C_11  and  C_12
REMARK    4  A    between atoms: C_12  and  C_13
REMARK                            x       y       z     vdW  Elec       q    Type
REMARK                         _______ _______ _______ _____ _____    ______ ____
ROOT
ATOM      1  C   UNL     1       7.389   7.950  17.527  0.00  0.00    +0.000 C 
ENDROOT
BRANCH   1   2
ATOM      2  C   UNL     1       7.253   6.456  17.184  0.00  0.00    +0.000 C 
BRANCH   2  11
ATOM      3  C   UNL     1       1.506   3.471  18.062  0.00  0.00    +0.000 A 
ATOM      4  C   UNL     1       2.460   2.483  17.821  0.00  0.00    +0.000 A 
ATOM      5  C   UNL     1       3.788   2.835  17.563  0.00  0.00    +0.000 A 
ATOM      6  C   UNL     1       4.172   4.185  17.531  0.00  0.00    +0.000 A 
ATOM      7  C   UNL     1       3.206   5.184  17.777  0.00  0.00    +0.000 A 
ATOM      8  C   UNL     1       1.876   4.819  18.042  0.00  0.00    +0.000 A 
ATOM      9  C   UNL     1       3.604   6.631  17.805  0.00  0.00    +0.000 C 
ATOM     10  C   UNL     1       4.747   6.906  16.834  0.00  0.00    +0.000 C 
ATOM     11  N   UNL     1       5.860   5.980  17.101  0.00  0.00    +0.000 NA
ATOM     12  C   UNL     1       5.613   4.528  17.218  0.00  0.00    +0.000 C 
ENDBRANCH   2  11
ENDBRANCH   1   2
BRANCH   1  13
ATOM     13  C   UNL     1       8.461   8.129  18.612  0.00  0.00    +0.000 C 
BRANCH  13  14
ATOM     14  C   UNL     1       8.882   9.558  18.739  0.00  0.00    +0.000 A 
ATOM     15  N   UNL     1       8.654  10.493  17.779  0.00  0.00    +0.000 NA
ATOM     16  C   UNL     1       9.173  11.618  18.303  0.00  0.00    +0.000 A 
ATOM     17  C   UNL     1       9.213  12.892  17.742  0.00  0.00    +0.000 A 
ATOM     18  C   UNL     1       9.811  13.919  18.499  0.00  0.00    +0.000 A 
ATOM     19  C   UNL     1      10.347  13.649  19.779  0.00  0.00    +0.000 A 
ATOM     20  C   UNL     1      10.289  12.348  20.315  0.00  0.00    +0.000 A 
ATOM     21  C   UNL     1       9.691  11.359  19.539  0.00  0.00    +0.000 A 
ATOM     22  N   UNL     1       9.514  10.063  19.827  0.00  0.00    +0.000 N 
ATOM     23  H   UNL     1       9.795   9.559  20.698  0.00  0.00    +0.000 HD
ENDBRANCH  13  14
ENDBRANCH   1  13
TORSDOF 4
ENDMDL
MODEL 8
REMARK VINA RESULT:      -7.3      2.836      5.294
REMARK  Name = 
REMARK  4 active torsions:
REMARK  status: ('A' for Active; 'I' for Inactive)
REMARK    1  A    between atoms: N_9  and  C_10
REMARK    2  A    between atoms: C_10  and  C_11
REMARK    3  A    between atoms: C_11  and  C_12
REMARK    4  A    between atoms: C_12  and  C_13
REMARK                            x       y       z     vdW  Elec       q    Type
REMARK                         _______ _______ _______ _____ _____    ______ ____
ROOT
ATOM      1  C   UNL     1       1.246   3.689  20.110  0.00  0.00    +0.000 C 
ENDROOT
BRANCH   1   2
ATOM      2  C   UNL     1       2.071   2.508  19.569  0.00  0.00    +0.000 C 
BRANCH   2  11
ATOM      3  C   UNL     1       6.801   5.406  16.116  0.00  0.00    +0.000 A 
ATOM      4  C   UNL     1       5.808   5.013  15.219  0.00  0.00    +0.000 A 
ATOM      5  C   UNL     1       4.676   4.332  15.678  0.00  0.00    +0.000 A 
ATOM      6  C   UNL     1       4.535   4.025  17.040  0.00  0.00    +0.000 A 
ATOM      7  C   UNL     1       5.541   4.424  17.946  0.00  0.00    +0.000 A 
ATOM      8  C   UNL     1       6.670   5.114  17.477  0.00  0.00    +0.000 A 
ATOM      9  C   UNL     1       5.385   4.158  19.415  0.00  0.00    +0.000 C 
ATOM     10  C   UNL     1       4.614   2.866  19.661  0.00  0.00    +0.000 C 
ATOM     11  N   UNL     1       3.339   2.900  18.927  0.00  0.00    +0.000 NA
ATOM     12  C   UNL     1       3.311   3.259  17.494  0.00  0.00    +0.000 C 
ENDBRANCH   2  11
ENDBRANCH   1   2
BRANCH   1  13
ATOM     13  C   UNL     1       2.180   4.686  20.811  0.00  0.00    +0.000 C 
BRANCH  13  14
ATOM     14  C   UNL     1       2.047   6.061  20.239  0.00  0.00    +0.000 A 
ATOM     15  N   UNL     1       2.500   6.405  19.004  0.00  0.00    +0.000 NA
ATOM     16  C   UNL     1       2.166   7.703  18.894  0.00  0.00    +0.000 A 
ATOM     17  C   UNL     1       2.391   8.563  17.822  0.00  0.00    +0.000 A 
ATOM     18  C   UNL     1       1.936   9.891  17.946  0.00  0.00    +0.000 A 
ATOM     19  C   UNL     1       1.278  10.318  19.123  0.00  0.00    +0.000 A 
ATOM     20  C   UNL     1       1.068   9.420  20.187  0.00  0.00    +0.000 A 
ATOM     21  C   UNL     1       1.531   8.117  20.029  0.00  0.00    +0.000 A 
ATOM     22  N   UNL     1       1.448   7.091  20.886  0.00  0.00    +0.000 N 
ATOM     23  H   UNL     1       1.014   7.086  21.836  0.00  0.00    +0.000 HD
ENDBRANCH  13  14
ENDBRANCH   1  13
TORSDOF 4
ENDMDL
MODEL 9
REMARK VINA RESULT:      -7.3      2.969      5.992
REMARK  Name = 
REMARK  4 active torsions:
REMARK  status: ('A' for Active; 'I' for Inactive)
REMARK    1  A    between atoms: N_9  and  C_10
REMARK    2  A    between atoms: C_10  and  C_11
REMARK    3  A    between atoms: C_11  and  C_12
REMARK    4  A    between atoms: C_12  and  C_13
REMARK                            x       y       z     vdW  Elec       q    Type
REMARK                         _______ _______ _______ _____ _____    ______ ____
ROOT
ATOM      1  C   UNL     1       5.708   6.559  17.505  0.00  0.00    +0.000 C 
ENDROOT
BRANCH   1   2
ATOM      2  C   UNL     1       5.981   5.044  17.497  0.00  0.00    +0.000 C 
BRANCH   2  11
ATOM      3  C   UNL     1       0.644   2.659  20.417  0.00  0.00    +0.000 A 
ATOM      4  C   UNL     1       1.581   2.929  21.413  0.00  0.00    +0.000 A 
ATOM      5  C   UNL     1       2.845   3.424  21.074  0.00  0.00    +0.000 A 
ATOM      6  C   UNL     1       3.186   3.640  19.730  0.00  0.00    +0.000 A 
ATOM      7  C   UNL     1       2.235   3.368  18.723  0.00  0.00    +0.000 A 
ATOM      8  C   UNL     1       0.967   2.878  19.075  0.00  0.00    +0.000 A 
ATOM      9  C   UNL     1       2.557   3.646  17.284  0.00  0.00    +0.000 C 
ATOM     10  C   UNL     1       4.040   3.435  17.001  0.00  0.00    +0.000 C 
ATOM     11  N   UNL     1       4.844   4.222  17.950  0.00  0.00    +0.000 NA
ATOM     12  C   UNL     1       4.574   4.147  19.401  0.00  0.00    +0.000 C 
ENDBRANCH   2  11
ENDBRANCH   1   2
BRANCH   1  13
ATOM     13  C   UNL     1       4.377   6.841  16.793  0.00  0.00    +0.000 C 
BRANCH  13  14
ATOM     14  C   UNL     1       3.381   7.467  17.715  0.00  0.00    +0.000 A 
ATOM     15  N   UNL     1       2.646   8.564  17.390  0.00  0.00    +0.000 NA
ATOM     16  C   UNL     1       1.887   8.772  18.480  0.00  0.00    +0.000 A 
ATOM     17  C   UNL     1       0.940   9.771  18.694  0.00  0.00    +0.000 A 
ATOM     18  C   UNL     1       0.264   9.773  19.930  0.00  0.00    +0.000 A 
ATOM     19  C   UNL     1       0.549   8.791  20.907  0.00  0.00    +0.000 A 
ATOM     20  C   UNL     1       1.513   7.796  20.656  0.00  0.00    +0.000 A 
ATOM     21  C   UNL     1       2.161   7.825  19.425  0.00  0.00    +0.000 A 
ATOM     22  N   UNL     1       3.101   6.995  18.954  0.00  0.00    +0.000 N 
ATOM     23  H   UNL     1       3.519   6.167  19.435  0.00  0.00    +0.000 HD
ENDBRANCH  13  14
ENDBRANCH   1  13
TORSDOF 4
ENDMDL
