MODEL 1
REMARK VINA RESULT:      -8.3      0.000      0.000
REMARK  Name = 
REMARK  10 active torsions:
REMARK  status: ('A' for Active; 'I' for Inactive)
REMARK    1  A    between atoms: C_1  and  O_2
REMARK    2  A    between atoms: O_2  and  C_3
REMARK    3  A    between atoms: C_3  and  C_5
REMARK    4  A    between atoms: N_11  and  C_12
REMARK    5  A    between atoms: C_12  and  C_13
REMARK    6  A    between atoms: C_13  and  C_14
REMARK    7  A    between atoms: C_14  and  C_15
REMARK    8  A    between atoms: C_15  and  C_16
REMARK    9  A    between atoms: C_16  and  C_17
REMARK   10  A    between atoms: N_22  and  C_23
REMARK                            x       y       z     vdW  Elec       q    Type
REMARK                         _______ _______ _______ _____ _____    ______ ____
ROOT
ATOM      1  C   UNL     1       3.413   2.855  20.586  0.00  0.00    +0.000 C 
ENDROOT
BRANCH   1   8
ATOM      2  C   UNL     1       6.538   4.821  15.302  0.00  0.00    +0.000 A 
ATOM      3  C   UNL     1       6.831   5.727  16.333  0.00  0.00    +0.000 A 
ATOM      4  C   UNL     1       6.242   5.563  17.593  0.00  0.00    +0.000 A 
ATOM      5  C   UNL     1       5.393   4.482  17.827  0.00  0.00    +0.000 A 
ATOM      6  C   UNL     1       4.767   4.264  19.145  0.00  0.00    +0.000 A 
ATOM      7  O   UNL     1       4.917   5.101  20.033  0.00  0.00    +0.000 OA
ATOM      8  N   UNL     1       4.025   3.095  19.292  0.00  0.00    +0.000 N 
ATOM      9  C   UNL     1       3.807   2.166  18.281  0.00  0.00    +0.000 A 
ATOM     10  O   UNL     1       3.175   1.122  18.420  0.00  0.00    +0.000 OA
ATOM     11  N   UNL     1       4.340   2.465  17.059  0.00  0.00    +0.000 N 
ATOM     12  C   UNL     1       5.130   3.576  16.809  0.00  0.00    +0.000 A 
ATOM     13  C   UNL     1       5.679   3.750  15.544  0.00  0.00    +0.000 A 
ATOM     14  H   UNL     1       4.167   1.792  16.322  0.00  0.00    +0.000 HD
BRANCH   2  15
ATOM     15  C   UNL     1       7.097   4.905  13.936  0.00  0.00    +0.000 C 
ATOM     16  O   UNL     1       8.065   5.594  13.651  0.00  0.00    +0.000 OA
BRANCH  15  18
ATOM     17  C   UNL     1       7.143   3.669  11.971  0.00  0.00    +0.000 C 
ATOM     18  O   UNL     1       6.382   4.134  13.084  0.00  0.00    +0.000 OA
ENDBRANCH  15  18
ENDBRANCH   2  15
ENDBRANCH   1   8
BRANCH   1  19
ATOM     19  C   UNL     1       1.880   2.850  20.522  0.00  0.00    +0.000 C 
BRANCH  19  20
ATOM     20  C   UNL     1       1.339   3.941  19.593  0.00  0.00    +0.000 C 
BRANCH  20  21
ATOM     21  C   UNL     1       0.894   5.160  20.394  0.00  0.00    +0.000 C 
BRANCH  21  22
ATOM     22  C   UNL     1       2.031   6.117  20.686  0.00  0.00    +0.000 C 
BRANCH  22  23
ATOM     23  C   UNL     1       1.982   7.300  19.734  0.00  0.00    +0.000 C 
ATOM     24  O   UNL     1       2.337   7.208  18.563  0.00  0.00    +0.000 OA
ATOM     25  N   UNL     1       1.475   8.469  20.258  0.00  0.00    +0.000 N 
ATOM     26  C   UNL     1       1.209   9.603  19.368  0.00  0.00    +0.000 C 
ATOM     27  C   UNL     1      -0.238  10.105  19.531  0.00  0.00    +0.000 C 
ATOM     28  N   UNL     1      -0.507  10.357  20.957  0.00  0.00    +0.000 N 
ATOM     29  C   UNL     1      -0.271   9.218  21.855  0.00  0.00    +0.000 C 
ATOM     30  C   UNL     1       1.167   8.713  21.675  0.00  0.00    +0.000 C 
BRANCH  28  31
ATOM     31  C   UNL     1      -1.113  11.511  21.400  0.00  0.00    +0.000 A 
ATOM     32  C   UNL     1      -0.956  11.968  22.715  0.00  0.00    +0.000 A 
ATOM     33  C   UNL     1      -1.608  13.111  23.177  0.00  0.00    +0.000 A 
ATOM     34  C   UNL     1      -2.441  13.831  22.326  0.00  0.00    +0.000 A 
ATOM     35  C   UNL     1      -2.611  13.404  21.012  0.00  0.00    +0.000 A 
ATOM     36  C   UNL     1      -1.950  12.262  20.561  0.00  0.00    +0.000 A 
ENDBRANCH  28  31
ENDBRANCH  22  23
ENDBRANCH  21  22
ENDBRANCH  20  21
ENDBRANCH  19  20
ENDBRANCH   1  19
TORSDOF 9
ENDMDL
MODEL 2
REMARK VINA RESULT:      -8.2      2.774      3.194
REMARK  Name = 
REMARK  10 active torsions:
REMARK  status: ('A' for Active; 'I' for Inactive)
REMARK    1  A    between atoms: C_1  and  O_2
REMARK    2  A    between atoms: O_2  and  C_3
REMARK    3  A    between atoms: C_3  and  C_5
REMARK    4  A    between atoms: N_11  and  C_12
REMARK    5  A    between atoms: C_12  and  C_13
REMARK    6  A    between atoms: C_13  and  C_14
REMARK    7  A    between atoms: C_14  and  C_15
REMARK    8  A    between atoms: C_15  and  C_16
REMARK    9  A    between atoms: C_16  and  C_17
REMARK   10  A    between atoms: N_22  and  C_23
REMARK                            x       y       z     vdW  Elec       q    Type
REMARK                         _______ _______ _______ _____ _____    ______ ____
ROOT
ATOM      1  C   UNL     1       2.670   3.431  20.340  0.00  0.00    +0.000 C 
ENDROOT
BRANCH   1   8
ATOM      2  C   UNL     1       6.530   4.639  15.321  0.00  0.00    +0.000 A 
ATOM      3  C   UNL     1       7.302   4.744  16.488  0.00  0.00    +0.000 A 
ATOM      4  C   UNL     1       6.699   4.572  17.740  0.00  0.00    +0.000 A 
ATOM      5  C   UNL     1       5.341   4.266  17.821  0.00  0.00    +0.000 A 
ATOM      6  C   UNL     1       4.672   4.059  19.119  0.00  0.00    +0.000 A 
ATOM      7  O   UNL     1       5.297   4.253  20.160  0.00  0.00    +0.000 OA
ATOM      8  N   UNL     1       3.341   3.653  19.073  0.00  0.00    +0.000 N 
ATOM      9  C   UNL     1       2.610   3.479  17.903  0.00  0.00    +0.000 A 
ATOM     10  O   UNL     1       1.444   3.095  17.863  0.00  0.00    +0.000 OA
ATOM     11  N   UNL     1       3.257   3.769  16.735  0.00  0.00    +0.000 N 
ATOM     12  C   UNL     1       4.590   4.138  16.660  0.00  0.00    +0.000 A 
ATOM     13  C   UNL     1       5.170   4.344  15.414  0.00  0.00    +0.000 A 
ATOM     14  H   UNL     1       2.716   3.653  15.887  0.00  0.00    +0.000 HD
BRANCH   2  15
ATOM     15  C   UNL     1       7.062   4.810  13.952  0.00  0.00    +0.000 C 
ATOM     16  O   UNL     1       8.027   5.513  13.694  0.00  0.00    +0.000 OA
BRANCH  15  18
ATOM     17  C   UNL     1       7.051   3.743  11.890  0.00  0.00    +0.000 C 
ATOM     18  O   UNL     1       6.327   4.098  13.066  0.00  0.00    +0.000 OA
ENDBRANCH  15  18
ENDBRANCH   2  15
ENDBRANCH   1   8
BRANCH   1  19
ATOM     19  C   UNL     1       2.264   4.740  21.031  0.00  0.00    +0.000 C 
BRANCH  19  20
ATOM     20  C   UNL     1       1.639   5.738  20.051  0.00  0.00    +0.000 C 
BRANCH  20  21
ATOM     21  C   UNL     1       2.387   7.066  20.082  0.00  0.00    +0.000 C 
BRANCH  21  22
ATOM     22  C   UNL     1       1.677   8.157  19.308  0.00  0.00    +0.000 C 
BRANCH  22  23
ATOM     23  C   UNL     1       1.065   9.168  20.262  0.00  0.00    +0.000 C 
ATOM     24  O   UNL     1       0.714   8.861  21.397  0.00  0.00    +0.000 OA
ATOM     25  N   UNL     1       0.966  10.457  19.786  0.00  0.00    +0.000 N 
ATOM     26  C   UNL     1       0.570  11.534  20.699  0.00  0.00    +0.000 C 
ATOM     27  C   UNL     1       1.589  12.689  20.663  0.00  0.00    +0.000 C 
ATOM     28  N   UNL     1       1.804  13.104  19.267  0.00  0.00    +0.000 N 
ATOM     29  C   UNL     1       2.229  12.038  18.350  0.00  0.00    +0.000 C 
ATOM     30  C   UNL     1       1.219  10.884  18.403  0.00  0.00    +0.000 C 
BRANCH  28  31
ATOM     31  C   UNL     1       1.793  14.426  18.880  0.00  0.00    +0.000 A 
ATOM     32  C   UNL     1       0.666  15.238  19.064  0.00  0.00    +0.000 A 
ATOM     33  C   UNL     1       0.638  16.562  18.629  0.00  0.00    +0.000 A 
ATOM     34  C   UNL     1       1.749  17.112  17.995  0.00  0.00    +0.000 A 
ATOM     35  C   UNL     1       2.884  16.331  17.805  0.00  0.00    +0.000 A 
ATOM     36  C   UNL     1       2.901  15.009  18.247  0.00  0.00    +0.000 A 
ENDBRANCH  28  31
ENDBRANCH  22  23
ENDBRANCH  21  22
ENDBRANCH  20  21
ENDBRANCH  19  20
ENDBRANCH   1  19
TORSDOF 9
ENDMDL
MODEL 3
REMARK VINA RESULT:      -8.2      5.698      8.734
REMARK  Name = 
REMARK  10 active torsions:
REMARK  status: ('A' for Active; 'I' for Inactive)
REMARK    1  A    between atoms: C_1  and  O_2
REMARK    2  A    between atoms: O_2  and  C_3
REMARK    3  A    between atoms: C_3  and  C_5
REMARK    4  A    between atoms: N_11  and  C_12
REMARK    5  A    between atoms: C_12  and  C_13
REMARK    6  A    between atoms: C_13  and  C_14
REMARK    7  A    between atoms: C_14  and  C_15
REMARK    8  A    between atoms: C_15  and  C_16
REMARK    9  A    between atoms: C_16  and  C_17
REMARK   10  A    between atoms: N_22  and  C_23
REMARK                            x       y       z     vdW  Elec       q    Type
REMARK                         _______ _______ _______ _____ _____    ______ ____
ROOT
ATOM      1  C   UNL     1       0.454  10.745  19.512  0.00  0.00    +0.000 C 
ENDROOT
BRANCH   1   8
ATOM      2  C   UNL     1       3.910   5.348  18.817  0.00  0.00    +0.000 A 
ATOM      3  C   UNL     1       4.122   6.141  17.678  0.00  0.00    +0.000 A 
ATOM      4  C   UNL     1       3.451   7.362  17.545  0.00  0.00    +0.000 A 
ATOM      5  C   UNL     1       2.599   7.801  18.558  0.00  0.00    +0.000 A 
ATOM      6  C   UNL     1       1.887   9.090  18.464  0.00  0.00    +0.000 A 
ATOM      7  O   UNL     1       1.968   9.752  17.431  0.00  0.00    +0.000 OA
ATOM      8  N   UNL     1       1.151   9.473  19.580  0.00  0.00    +0.000 N 
ATOM      9  C   UNL     1       1.012   8.710  20.734  0.00  0.00    +0.000 A 
ATOM     10  O   UNL     1       0.383   9.061  21.729  0.00  0.00    +0.000 OA
ATOM     11  N   UNL     1       1.623   7.488  20.729  0.00  0.00    +0.000 N 
ATOM     12  C   UNL     1       2.416   7.023  19.693  0.00  0.00    +0.000 A 
ATOM     13  C   UNL     1       3.048   5.792  19.819  0.00  0.00    +0.000 A 
ATOM     14  H   UNL     1       1.508   6.931  21.567  0.00  0.00    +0.000 HD
BRANCH   2  15
ATOM     15  C   UNL     1       4.560   4.041  19.055  0.00  0.00    +0.000 C 
ATOM     16  O   UNL     1       5.770   3.906  19.156  0.00  0.00    +0.000 OA
BRANCH  15  18
ATOM     17  C   UNL     1       3.460   2.355  17.899  0.00  0.00    +0.000 C 
ATOM     18  O   UNL     1       3.633   3.058  19.128  0.00  0.00    +0.000 OA
ENDBRANCH  15  18
ENDBRANCH   2  15
ENDBRANCH   1   8
BRANCH   1  19
ATOM     19  C   UNL     1       1.102  11.820  20.393  0.00  0.00    +0.000 C 
BRANCH  19  20
ATOM     20  C   UNL     1       1.385  13.109  19.615  0.00  0.00    +0.000 C 
BRANCH  20  21
ATOM     21  C   UNL     1       2.710  13.010  18.868  0.00  0.00    +0.000 C 
BRANCH  21  22
ATOM     22  C   UNL     1       3.235  14.359  18.422  0.00  0.00    +0.000 C 
BRANCH  22  23
ATOM     23  C   UNL     1       4.230  14.899  19.436  0.00  0.00    +0.000 C 
ATOM     24  O   UNL     1       3.894  15.210  20.574  0.00  0.00    +0.000 OA
ATOM     25  N   UNL     1       5.537  14.976  19.008  0.00  0.00    +0.000 N 
ATOM     26  C   UNL     1       6.593  15.299  19.972  0.00  0.00    +0.000 C 
ATOM     27  C   UNL     1       7.718  14.246  19.931  0.00  0.00    +0.000 C 
ATOM     28  N   UNL     1       8.174  14.078  18.541  0.00  0.00    +0.000 N 
ATOM     29  C   UNL     1       7.128  13.726  17.572  0.00  0.00    +0.000 C 
ATOM     30  C   UNL     1       6.004  14.769  17.630  0.00  0.00    +0.000 C 
BRANCH  28  31
ATOM     31  C   UNL     1       9.508  14.063  18.200  0.00  0.00    +0.000 A 
ATOM     32  C   UNL     1      10.088  12.974  17.537  0.00  0.00    +0.000 A 
ATOM     33  C   UNL     1      11.448  12.939  17.235  0.00  0.00    +0.000 A 
ATOM     34  C   UNL     1      12.270  14.005  17.591  0.00  0.00    +0.000 A 
ATOM     35  C   UNL     1      11.721  15.103  18.245  0.00  0.00    +0.000 A 
ATOM     36  C   UNL     1      10.358  15.128  18.539  0.00  0.00    +0.000 A 
ENDBRANCH  28  31
ENDBRANCH  22  23
ENDBRANCH  21  22
ENDBRANCH  20  21
ENDBRANCH  19  20
ENDBRANCH   1  19
TORSDOF 9
ENDMDL
MODEL 4
REMARK VINA RESULT:      -8.1      0.847      1.321
REMARK  Name = 
REMARK  10 active torsions:
REMARK  status: ('A' for Active; 'I' for Inactive)
REMARK    1  A    between atoms: C_1  and  O_2
REMARK    2  A    between atoms: O_2  and  C_3
REMARK    3  A    between atoms: C_3  and  C_5
REMARK    4  A    between atoms: N_11  and  C_12
REMARK    5  A    between atoms: C_12  and  C_13
REMARK    6  A    between atoms: C_13  and  C_14
REMARK    7  A    between atoms: C_14  and  C_15
REMARK    8  A    between atoms: C_15  and  C_16
REMARK    9  A    between atoms: C_16  and  C_17
REMARK   10  A    between atoms: N_22  and  C_23
REMARK                            x       y       z     vdW  Elec       q    Type
REMARK                         _______ _______ _______ _____ _____    ______ ____
ROOT
ATOM      1  C   UNL     1       3.006   2.582  20.441  0.00  0.00    +0.000 C 
ENDROOT
BRANCH   1   8
ATOM      2  C   UNL     1       6.546   4.549  15.426  0.00  0.00    +0.000 A 
ATOM      3  C   UNL     1       7.313   4.733  16.588  0.00  0.00    +0.000 A 
ATOM      4  C   UNL     1       6.765   4.425  17.839  0.00  0.00    +0.000 A 
ATOM      5  C   UNL     1       5.472   3.909  17.923  0.00  0.00    +0.000 A 
ATOM      6  C   UNL     1       4.865   3.556  19.221  0.00  0.00    +0.000 A 
ATOM      7  O   UNL     1       5.471   3.808  20.261  0.00  0.00    +0.000 OA
ATOM      8  N   UNL     1       3.614   2.950  19.175  0.00  0.00    +0.000 N 
ATOM      9  C   UNL     1       2.898   2.705  18.008  0.00  0.00    +0.000 A 
ATOM     10  O   UNL     1       1.805   2.146  17.966  0.00  0.00    +0.000 OA
ATOM     11  N   UNL     1       3.473   3.132  16.844  0.00  0.00    +0.000 N 
ATOM     12  C   UNL     1       4.731   3.706  16.768  0.00  0.00    +0.000 A 
ATOM     13  C   UNL     1       5.251   4.043  15.523  0.00  0.00    +0.000 A 
ATOM     14  H   UNL     1       2.941   2.962  15.999  0.00  0.00    +0.000 HD
BRANCH   2  15
ATOM     15  C   UNL     1       7.022   4.848  14.058  0.00  0.00    +0.000 C 
ATOM     16  O   UNL     1       6.489   4.402  13.053  0.00  0.00    +0.000 OA
BRANCH  15  18
ATOM     17  C   UNL     1       8.626   5.969  12.810  0.00  0.00    +0.000 C 
ATOM     18  O   UNL     1       8.108   5.654  14.100  0.00  0.00    +0.000 OA
ENDBRANCH  15  18
ENDBRANCH   2  15
ENDBRANCH   1   8
BRANCH   1  19
ATOM     19  C   UNL     1       2.425   3.788  21.189  0.00  0.00    +0.000 C 
BRANCH  19  20
ATOM     20  C   UNL     1       1.021   4.151  20.695  0.00  0.00    +0.000 C 
BRANCH  20  21
ATOM     21  C   UNL     1       1.071   5.354  19.759  0.00  0.00    +0.000 C 
BRANCH  21  22
ATOM     22  C   UNL     1       2.304   6.209  19.969  0.00  0.00    +0.000 C 
BRANCH  22  23
ATOM     23  C   UNL     1       2.220   7.471  19.127  0.00  0.00    +0.000 C 
ATOM     24  O   UNL     1       2.599   7.500  17.960  0.00  0.00    +0.000 OA
ATOM     25  N   UNL     1       1.654   8.565  19.744  0.00  0.00    +0.000 N 
ATOM     26  C   UNL     1       1.355   9.763  18.954  0.00  0.00    +0.000 C 
ATOM     27  C   UNL     1      -0.115  10.188  19.132  0.00  0.00    +0.000 C 
ATOM     28  N   UNL     1      -0.419  10.298  20.569  0.00  0.00    +0.000 N 
ATOM     29  C   UNL     1      -0.149   9.093  21.365  0.00  0.00    +0.000 C 
ATOM     30  C   UNL     1       1.312   8.666  21.170  0.00  0.00    +0.000 C 
BRANCH  28  31
ATOM     31  C   UNL     1      -1.081  11.381  21.102  0.00  0.00    +0.000 A 
ATOM     32  C   UNL     1      -1.934  12.178  20.326  0.00  0.00    +0.000 A 
ATOM     33  C   UNL     1      -2.567  13.302  20.854  0.00  0.00    +0.000 A 
ATOM     34  C   UNL     1      -2.361  13.660  22.183  0.00  0.00    +0.000 A 
ATOM     35  C   UNL     1      -1.524  12.884  22.979  0.00  0.00    +0.000 A 
ATOM     36  C   UNL     1      -0.899  11.759  22.441  0.00  0.00    +0.000 A 
ENDBRANCH  28  31
ENDBRANCH  22  23
ENDBRANCH  21  22
ENDBRANCH  20  21
ENDBRANCH  19  20
ENDBRANCH   1  19
TORSDOF 9
ENDMDL
MODEL 5
REMARK VINA RESULT:      -7.8      2.153      2.671
REMARK  Name = 
REMARK  10 active torsions:
REMARK  status: ('A' for Active; 'I' for Inactive)
REMARK    1  A    between atoms: C_1  and  O_2
REMARK    2  A    between atoms: O_2  and  C_3
REMARK    3  A    between atoms: C_3  and  C_5
REMARK    4  A    between atoms: N_11  and  C_12
REMARK    5  A    between atoms: C_12  and  C_13
REMARK    6  A    between atoms: C_13  and  C_14
REMARK    7  A    between atoms: C_14  and  C_15
REMARK    8  A    between atoms: C_15  and  C_16
REMARK    9  A    between atoms: C_16  and  C_17
REMARK   10  A    between atoms: N_22  and  C_23
REMARK                            x       y       z     vdW  Elec       q    Type
REMARK                         _______ _______ _______ _____ _____    ______ ____
ROOT
ATOM      1  C   UNL     1       2.758   3.648  20.211  0.00  0.00    +0.000 C 
ENDROOT
BRANCH   1   8
ATOM      2  C   UNL     1       6.591   4.692  15.135  0.00  0.00    +0.000 A 
ATOM      3  C   UNL     1       7.362   4.865  16.295  0.00  0.00    +0.000 A 
ATOM      4  C   UNL     1       6.763   4.741  17.555  0.00  0.00    +0.000 A 
ATOM      5  C   UNL     1       5.411   4.413  17.651  0.00  0.00    +0.000 A 
ATOM      6  C   UNL     1       4.747   4.255  18.959  0.00  0.00    +0.000 A 
ATOM      7  O   UNL     1       5.370   4.509  19.989  0.00  0.00    +0.000 OA
ATOM      8  N   UNL     1       3.425   3.823  18.934  0.00  0.00    +0.000 N 
ATOM      9  C   UNL     1       2.695   3.581  17.774  0.00  0.00    +0.000 A 
ATOM     10  O   UNL     1       1.537   3.174  17.754  0.00  0.00    +0.000 OA
ATOM     11  N   UNL     1       3.337   3.827  16.594  0.00  0.00    +0.000 N 
ATOM     12  C   UNL     1       4.663   4.217  16.499  0.00  0.00    +0.000 A 
ATOM     13  C   UNL     1       5.237   4.375  15.243  0.00  0.00    +0.000 A 
ATOM     14  H   UNL     1       2.797   3.662  15.753  0.00  0.00    +0.000 HD
BRANCH   2  15
ATOM     15  C   UNL     1       7.119   4.808  13.759  0.00  0.00    +0.000 C 
ATOM     16  O   UNL     1       8.138   5.425  13.484  0.00  0.00    +0.000 OA
BRANCH  15  18
ATOM     17  C   UNL     1       7.027   3.291  12.004  0.00  0.00    +0.000 C 
ATOM     18  O   UNL     1       6.316   4.157  12.887  0.00  0.00    +0.000 OA
ENDBRANCH  15  18
ENDBRANCH   2  15
ENDBRANCH   1   8
BRANCH   1  19
ATOM     19  C   UNL     1       1.721   4.743  20.491  0.00  0.00    +0.000 C 
BRANCH  19  20
ATOM     20  C   UNL     1       2.237   6.135  20.111  0.00  0.00    +0.000 C 
BRANCH  20  21
ATOM     21  C   UNL     1       1.640   7.201  21.023  0.00  0.00    +0.000 C 
BRANCH  21  22
ATOM     22  C   UNL     1       1.289   8.476  20.283  0.00  0.00    +0.000 C 
BRANCH  22  23
ATOM     23  C   UNL     1       0.183   9.220  21.011  0.00  0.00    +0.000 C 
ATOM     24  O   UNL     1      -0.435   8.716  21.944  0.00  0.00    +0.000 OA
ATOM     25  N   UNL     1      -0.052  10.508  20.585  0.00  0.00    +0.000 N 
ATOM     26  C   UNL     1      -0.961  11.367  21.350  0.00  0.00    +0.000 C 
ATOM     27  C   UNL     1      -0.284  12.702  21.713  0.00  0.00    +0.000 C 
ATOM     28  N   UNL     1       0.270  13.314  20.494  0.00  0.00    +0.000 N 
ATOM     29  C   UNL     1       1.204  12.472  19.734  0.00  0.00    +0.000 C 
ATOM     30  C   UNL     1       0.529  11.138  19.390  0.00  0.00    +0.000 C 
BRANCH  28  31
ATOM     31  C   UNL     1       0.078  14.641  20.182  0.00  0.00    +0.000 A 
ATOM     32  C   UNL     1       0.008  15.628  21.174  0.00  0.00    +0.000 A 
ATOM     33  C   UNL     1      -0.235  16.965  20.861  0.00  0.00    +0.000 A 
ATOM     34  C   UNL     1      -0.414  17.350  19.536  0.00  0.00    +0.000 A 
ATOM     35  C   UNL     1      -0.344  16.393  18.529  0.00  0.00    +0.000 A 
ATOM     36  C   UNL     1      -0.098  15.059  18.854  0.00  0.00    +0.000 A 
ENDBRANCH  28  31
ENDBRANCH  22  23
ENDBRANCH  21  22
ENDBRANCH  20  21
ENDBRANCH  19  20
ENDBRANCH   1  19
TORSDOF 9
ENDMDL
MODEL 6
REMARK VINA RESULT:      -7.7      5.975      7.961
REMARK  Name = 
REMARK  10 active torsions:
REMARK  status: ('A' for Active; 'I' for Inactive)
REMARK    1  A    between atoms: C_1  and  O_2
REMARK    2  A    between atoms: O_2  and  C_3
REMARK    3  A    between atoms: C_3  and  C_5
REMARK    4  A    between atoms: N_11  and  C_12
REMARK    5  A    between atoms: C_12  and  C_13
REMARK    6  A    between atoms: C_13  and  C_14
REMARK    7  A    between atoms: C_14  and  C_15
REMARK    8  A    between atoms: C_15  and  C_16
REMARK    9  A    between atoms: C_16  and  C_17
REMARK   10  A    between atoms: N_22  and  C_23
REMARK                            x       y       z     vdW  Elec       q    Type
REMARK                         _______ _______ _______ _____ _____    ______ ____
ROOT
ATOM      1  C   UNL     1       7.857   7.158  17.467  0.00  0.00    +0.000 C 
ENDROOT
BRANCH   1   8
ATOM      2  C   UNL     1       2.352   4.310  19.235  0.00  0.00    +0.000 A 
ATOM      3  C   UNL     1       2.087   5.078  18.090  0.00  0.00    +0.000 A 
ATOM      4  C   UNL     1       3.107   5.845  17.514  0.00  0.00    +0.000 A 
ATOM      5  C   UNL     1       4.389   5.818  18.062  0.00  0.00    +0.000 A 
ATOM      6  C   UNL     1       5.495   6.598  17.474  0.00  0.00    +0.000 A 
ATOM      7  O   UNL     1       5.267   7.363  16.540  0.00  0.00    +0.000 OA
ATOM      8  N   UNL     1       6.753   6.410  18.039  0.00  0.00    +0.000 N 
ATOM      9  C   UNL     1       7.014   5.586  19.129  0.00  0.00    +0.000 A 
ATOM     10  O   UNL     1       8.129   5.400  19.609  0.00  0.00    +0.000 OA
ATOM     11  N   UNL     1       5.936   4.956  19.683  0.00  0.00    +0.000 N 
ATOM     12  C   UNL     1       4.649   5.036  19.179  0.00  0.00    +0.000 A 
ATOM     13  C   UNL     1       3.635   4.300  19.781  0.00  0.00    +0.000 A 
ATOM     14  H   UNL     1       6.130   4.367  20.484  0.00  0.00    +0.000 HD
BRANCH   2  15
ATOM     15  C   UNL     1       1.349   3.472  19.927  0.00  0.00    +0.000 C 
ATOM     16  O   UNL     1       1.165   3.510  21.134  0.00  0.00    +0.000 OA
BRANCH  15  18
ATOM     17  C   UNL     1       1.474   1.553  18.627  0.00  0.00    +0.000 C 
ATOM     18  O   UNL     1       0.703   2.679  19.041  0.00  0.00    +0.000 OA
ENDBRANCH  15  18
ENDBRANCH   2  15
ENDBRANCH   1   8
BRANCH   1  19
ATOM     19  C   UNL     1       7.680   8.675  17.610  0.00  0.00    +0.000 C 
BRANCH  19  20
ATOM     20  C   UNL     1       8.749   9.297  18.514  0.00  0.00    +0.000 C 
BRANCH  20  21
ATOM     21  C   UNL     1       9.033  10.738  18.104  0.00  0.00    +0.000 C 
BRANCH  21  22
ATOM     22  C   UNL     1      10.092  11.395  18.965  0.00  0.00    +0.000 C 
BRANCH  22  23
ATOM     23  C   UNL     1       9.672  12.809  19.329  0.00  0.00    +0.000 C 
ATOM     24  O   UNL     1       9.564  13.692  18.484  0.00  0.00    +0.000 OA
ATOM     25  N   UNL     1       9.384  13.024  20.658  0.00  0.00    +0.000 N 
ATOM     26  C   UNL     1       8.787  14.299  21.070  0.00  0.00    +0.000 C 
ATOM     27  C   UNL     1       7.501  14.068  21.885  0.00  0.00    +0.000 C 
ATOM     28  N   UNL     1       7.784  13.130  22.984  0.00  0.00    +0.000 N 
ATOM     29  C   UNL     1       8.355  11.838  22.580  0.00  0.00    +0.000 C 
ATOM     30  C   UNL     1       9.627  12.076  21.755  0.00  0.00    +0.000 C 
BRANCH  28  31
ATOM     31  C   UNL     1       7.373  13.364  24.277  0.00  0.00    +0.000 A 
ATOM     32  C   UNL     1       6.688  14.534  24.632  0.00  0.00    +0.000 A 
ATOM     33  C   UNL     1       6.314  14.793  25.950  0.00  0.00    +0.000 A 
ATOM     34  C   UNL     1       6.619  13.878  26.954  0.00  0.00    +0.000 A 
ATOM     35  C   UNL     1       7.293  12.705  26.630  0.00  0.00    +0.000 A 
ATOM     36  C   UNL     1       7.659  12.456  25.308  0.00  0.00    +0.000 A 
ENDBRANCH  28  31
ENDBRANCH  22  23
ENDBRANCH  21  22
ENDBRANCH  20  21
ENDBRANCH  19  20
ENDBRANCH   1  19
TORSDOF 9
ENDMDL
MODEL 7
REMARK VINA RESULT:      -7.7      6.673      8.525
REMARK  Name = 
REMARK  10 active torsions:
REMARK  status: ('A' for Active; 'I' for Inactive)
REMARK    1  A    between atoms: C_1  and  O_2
REMARK    2  A    between atoms: O_2  and  C_3
REMARK    3  A    between atoms: C_3  and  C_5
REMARK    4  A    between atoms: N_11  and  C_12
REMARK    5  A    between atoms: C_12  and  C_13
REMARK    6  A    between atoms: C_13  and  C_14
REMARK    7  A    between atoms: C_14  and  C_15
REMARK    8  A    between atoms: C_15  and  C_16
REMARK    9  A    between atoms: C_16  and  C_17
REMARK   10  A    between atoms: N_22  and  C_23
REMARK                            x       y       z     vdW  Elec       q    Type
REMARK                         _______ _______ _______ _____ _____    ______ ____
ROOT
ATOM      1  C   UNL     1       7.613   6.710  17.064  0.00  0.00    +0.000 C 
ENDROOT
BRANCH   1   8
ATOM      2  C   UNL     1       2.749   2.950  19.003  0.00  0.00    +0.000 A 
ATOM      3  C   UNL     1       3.872   2.631  19.782  0.00  0.00    +0.000 A 
ATOM      4  C   UNL     1       5.093   3.273  19.540  0.00  0.00    +0.000 A 
ATOM      5  C   UNL     1       5.179   4.249  18.548  0.00  0.00    +0.000 A 
ATOM      6  C   UNL     1       6.442   4.961  18.274  0.00  0.00    +0.000 A 
ATOM      7  O   UNL     1       7.467   4.625  18.865  0.00  0.00    +0.000 OA
ATOM      8  N   UNL     1       6.384   5.988  17.337  0.00  0.00    +0.000 N 
ATOM      9  C   UNL     1       5.242   6.344  16.627  0.00  0.00    +0.000 A 
ATOM     10  O   UNL     1       5.185   7.268  15.819  0.00  0.00    +0.000 OA
ATOM     11  N   UNL     1       4.125   5.592  16.860  0.00  0.00    +0.000 N 
ATOM     12  C   UNL     1       4.057   4.577  17.800  0.00  0.00    +0.000 A 
ATOM     13  C   UNL     1       2.850   3.920  18.006  0.00  0.00    +0.000 A 
ATOM     14  H   UNL     1       3.300   5.848  16.330  0.00  0.00    +0.000 HD
BRANCH   2  15
ATOM     15  C   UNL     1       1.417   2.329  19.168  0.00  0.00    +0.000 C 
ATOM     16  O   UNL     1       0.625   2.195  18.248  0.00  0.00    +0.000 OA
BRANCH  15  18
ATOM     17  C   UNL     1       1.190   3.062  21.359  0.00  0.00    +0.000 C 
ATOM     18  O   UNL     1       1.223   1.960  20.455  0.00  0.00    +0.000 OA
ENDBRANCH  15  18
ENDBRANCH   2  15
ENDBRANCH   1   8
BRANCH   1  19
ATOM     19  C   UNL     1       7.989   7.682  18.189  0.00  0.00    +0.000 C 
BRANCH  19  20
ATOM     20  C   UNL     1       8.110   9.124  17.689  0.00  0.00    +0.000 C 
BRANCH  20  21
ATOM     21  C   UNL     1       8.906   9.973  18.673  0.00  0.00    +0.000 C 
BRANCH  21  22
ATOM     22  C   UNL     1       9.693  11.076  17.995  0.00  0.00    +0.000 C 
BRANCH  22  23
ATOM     23  C   UNL     1       8.909  12.377  18.023  0.00  0.00    +0.000 C 
ATOM     24  O   UNL     1       8.010  12.612  17.221  0.00  0.00    +0.000 OA
ATOM     25  N   UNL     1       9.244  13.255  19.030  0.00  0.00    +0.000 N 
ATOM     26  C   UNL     1       8.416  14.444  19.255  0.00  0.00    +0.000 C 
ATOM     27  C   UNL     1       7.965  14.532  20.725  0.00  0.00    +0.000 C 
ATOM     28  N   UNL     1       9.142  14.419  21.602  0.00  0.00    +0.000 N 
ATOM     29  C   UNL     1       9.963  13.216  21.404  0.00  0.00    +0.000 C 
ATOM     30  C   UNL     1      10.395  13.127  19.935  0.00  0.00    +0.000 C 
BRANCH  28  31
ATOM     31  C   UNL     1       9.360  15.275  22.657  0.00  0.00    +0.000 A 
ATOM     32  C   UNL     1       8.377  15.516  23.626  0.00  0.00    +0.000 A 
ATOM     33  C   UNL     1       8.580  16.420  24.668  0.00  0.00    +0.000 A 
ATOM     34  C   UNL     1       9.785  17.111  24.767  0.00  0.00    +0.000 A 
ATOM     35  C   UNL     1      10.782  16.888  23.823  0.00  0.00    +0.000 A 
ATOM     36  C   UNL     1      10.568  15.979  22.787  0.00  0.00    +0.000 A 
ENDBRANCH  28  31
ENDBRANCH  22  23
ENDBRANCH  21  22
ENDBRANCH  20  21
ENDBRANCH  19  20
ENDBRANCH   1  19
TORSDOF 9
ENDMDL
MODEL 8
REMARK VINA RESULT:      -7.6      2.514     10.028
REMARK  Name = 
REMARK  10 active torsions:
REMARK  status: ('A' for Active; 'I' for Inactive)
REMARK    1  A    between atoms: C_1  and  O_2
REMARK    2  A    between atoms: O_2  and  C_3
REMARK    3  A    between atoms: C_3  and  C_5
REMARK    4  A    between atoms: N_11  and  C_12
REMARK    5  A    between atoms: C_12  and  C_13
REMARK    6  A    between atoms: C_13  and  C_14
REMARK    7  A    between atoms: C_14  and  C_15
REMARK    8  A    between atoms: C_15  and  C_16
REMARK    9  A    between atoms: C_16  and  C_17
REMARK   10  A    between atoms: N_22  and  C_23
REMARK                            x       y       z     vdW  Elec       q    Type
REMARK                         _______ _______ _______ _____ _____    ______ ____
ROOT
ATOM      1  C   UNL     1       2.483   7.380  19.760  0.00  0.00    +0.000 C 
ENDROOT
BRANCH   1   8
ATOM      2  C   UNL     1      -1.567  12.220  21.071  0.00  0.00    +0.000 A 
ATOM      3  C   UNL     1      -1.200  11.628  22.289  0.00  0.00    +0.000 A 
ATOM      4  C   UNL     1      -0.353  10.513  22.295  0.00  0.00    +0.000 A 
ATOM      5  C   UNL     1       0.147  10.015  21.093  0.00  0.00    +0.000 A 
ATOM      6  C   UNL     1       1.056   8.853  21.058  0.00  0.00    +0.000 A 
ATOM      7  O   UNL     1       1.306   8.248  22.099  0.00  0.00    +0.000 OA
ATOM      8  N   UNL     1       1.576   8.511  19.813  0.00  0.00    +0.000 N 
ATOM      9  C   UNL     1       1.262   9.157  18.622  0.00  0.00    +0.000 A 
ATOM     10  O   UNL     1       1.742   8.871  17.528  0.00  0.00    +0.000 OA
ATOM     11  N   UNL     1       0.349  10.170  18.705  0.00  0.00    +0.000 N 
ATOM     12  C   UNL     1      -0.200  10.622  19.894  0.00  0.00    +0.000 A 
ATOM     13  C   UNL     1      -1.069  11.706  19.873  0.00  0.00    +0.000 A 
ATOM     14  H   UNL     1       0.114  10.628  17.833  0.00  0.00    +0.000 HD
BRANCH   2  15
ATOM     15  C   UNL     1      -2.459  13.393  20.949  0.00  0.00    +0.000 C 
ATOM     16  O   UNL     1      -2.264  14.444  21.540  0.00  0.00    +0.000 OA
BRANCH  15  18
ATOM     17  C   UNL     1      -4.730  12.933  20.803  0.00  0.00    +0.000 C 
ATOM     18  O   UNL     1      -3.492  13.118  20.119  0.00  0.00    +0.000 OA
ENDBRANCH  15  18
ENDBRANCH   2  15
ENDBRANCH   1   8
BRANCH   1  19
ATOM     19  C   UNL     1       1.772   6.069  19.399  0.00  0.00    +0.000 C 
BRANCH  19  20
ATOM     20  C   UNL     1       1.308   5.304  20.642  0.00  0.00    +0.000 C 
BRANCH  20  21
ATOM     21  C   UNL     1       2.487   4.626  21.330  0.00  0.00    +0.000 C 
BRANCH  21  22
ATOM     22  C   UNL     1       2.352   3.117  21.374  0.00  0.00    +0.000 C 
BRANCH  22  23
ATOM     23  C   UNL     1       2.032   2.576  19.991  0.00  0.00    +0.000 C 
ATOM     24  O   UNL     1       0.948   2.064  19.728  0.00  0.00    +0.000 OA
ATOM     25  N   UNL     1       3.020   2.734  19.044  0.00  0.00    +0.000 N 
ATOM     26  C   UNL     1       2.730   2.421  17.641  0.00  0.00    +0.000 C 
ATOM     27  C   UNL     1       3.086   3.608  16.726  0.00  0.00    +0.000 C 
ATOM     28  N   UNL     1       4.470   4.031  16.996  0.00  0.00    +0.000 N 
ATOM     29  C   UNL     1       4.764   4.375  18.394  0.00  0.00    +0.000 C 
ATOM     30  C   UNL     1       4.392   3.195  19.301  0.00  0.00    +0.000 C 
BRANCH  28  31
ATOM     31  C   UNL     1       5.377   4.270  15.988  0.00  0.00    +0.000 A 
ATOM     32  C   UNL     1       5.151   3.838  14.675  0.00  0.00    +0.000 A 
ATOM     33  C   UNL     1       6.092   4.038  13.665  0.00  0.00    +0.000 A 
ATOM     34  C   UNL     1       7.292   4.683  13.948  0.00  0.00    +0.000 A 
ATOM     35  C   UNL     1       7.542   5.129  15.242  0.00  0.00    +0.000 A 
ATOM     36  C   UNL     1       6.592   4.926  16.243  0.00  0.00    +0.000 A 
ENDBRANCH  28  31
ENDBRANCH  22  23
ENDBRANCH  21  22
ENDBRANCH  20  21
ENDBRANCH  19  20
ENDBRANCH   1  19
TORSDOF 9
ENDMDL
MODEL 9
REMARK VINA RESULT:      -7.6      1.548      2.162
REMARK  Name = 
REMARK  10 active torsions:
REMARK  status: ('A' for Active; 'I' for Inactive)
REMARK    1  A    between atoms: C_1  and  O_2
REMARK    2  A    between atoms: O_2  and  C_3
REMARK    3  A    between atoms: C_3  and  C_5
REMARK    4  A    between atoms: N_11  and  C_12
REMARK    5  A    between atoms: C_12  and  C_13
REMARK    6  A    between atoms: C_13  and  C_14
REMARK    7  A    between atoms: C_14  and  C_15
REMARK    8  A    between atoms: C_15  and  C_16
REMARK    9  A    between atoms: C_16  and  C_17
REMARK   10  A    between atoms: N_22  and  C_23
REMARK                            x       y       z     vdW  Elec       q    Type
REMARK                         _______ _______ _______ _____ _____    ______ ____
ROOT
ATOM      1  C   UNL     1       1.868   1.849  20.048  0.00  0.00    +0.000 C 
ENDROOT
BRANCH   1   8
ATOM      2  C   UNL     1       6.144   4.940  16.344  0.00  0.00    +0.000 A 
ATOM      3  C   UNL     1       4.899   4.999  15.698  0.00  0.00    +0.000 A 
ATOM      4  C   UNL     1       3.789   4.363  16.267  0.00  0.00    +0.000 A 
ATOM      5  C   UNL     1       3.918   3.701  17.488  0.00  0.00    +0.000 A 
ATOM      6  C   UNL     1       2.769   3.033  18.129  0.00  0.00    +0.000 A 
ATOM      7  O   UNL     1       1.694   2.974  17.535  0.00  0.00    +0.000 OA
ATOM      8  N   UNL     1       2.990   2.498  19.394  0.00  0.00    +0.000 N 
ATOM      9  C   UNL     1       4.214   2.515  20.055  0.00  0.00    +0.000 A 
ATOM     10  O   UNL     1       4.402   2.066  21.183  0.00  0.00    +0.000 OA
ATOM     11  N   UNL     1       5.261   3.070  19.375  0.00  0.00    +0.000 N 
ATOM     12  C   UNL     1       5.147   3.670  18.132  0.00  0.00    +0.000 A 
ATOM     13  C   UNL     1       6.264   4.266  17.559  0.00  0.00    +0.000 A 
ATOM     14  H   UNL     1       6.153   3.067  19.856  0.00  0.00    +0.000 HD
BRANCH   2  15
ATOM     15  C   UNL     1       7.380   5.568  15.829  0.00  0.00    +0.000 C 
ATOM     16  O   UNL     1       7.817   6.627  16.253  0.00  0.00    +0.000 OA
BRANCH  15  18
ATOM     17  C   UNL     1       7.236   4.948  13.596  0.00  0.00    +0.000 C 
ATOM     18  O   UNL     1       7.918   4.815  14.842  0.00  0.00    +0.000 OA
ENDBRANCH  15  18
ENDBRANCH   2  15
ENDBRANCH   1   8
BRANCH   1  19
ATOM     19  C   UNL     1       1.183   2.754  21.079  0.00  0.00    +0.000 C 
BRANCH  19  20
ATOM     20  C   UNL     1       0.876   4.144  20.513  0.00  0.00    +0.000 C 
BRANCH  20  21
ATOM     21  C   UNL     1       1.986   5.128  20.867  0.00  0.00    +0.000 C 
BRANCH  21  22
ATOM     22  C   UNL     1       1.477   6.543  21.055  0.00  0.00    +0.000 C 
BRANCH  22  23
ATOM     23  C   UNL     1       1.812   7.389  19.839  0.00  0.00    +0.000 C 
ATOM     24  O   UNL     1       2.294   6.903  18.820  0.00  0.00    +0.000 OA
ATOM     25  N   UNL     1       1.501   8.727  19.937  0.00  0.00    +0.000 N 
ATOM     26  C   UNL     1       1.607   9.582  18.750  0.00  0.00    +0.000 C 
ATOM     27  C   UNL     1       0.292  10.345  18.502  0.00  0.00    +0.000 C 
ATOM     28  N   UNL     1      -0.106  11.042  19.736  0.00  0.00    +0.000 N 
ATOM     29  C   UNL     1      -0.243  10.190  20.926  0.00  0.00    +0.000 C 
ATOM     30  C   UNL     1       1.064   9.421  21.158  0.00  0.00    +0.000 C 
BRANCH  28  31
ATOM     31  C   UNL     1      -0.505  12.360  19.743  0.00  0.00    +0.000 A 
ATOM     32  C   UNL     1       0.160  13.335  18.988  0.00  0.00    +0.000 A 
ATOM     33  C   UNL     1      -0.214  14.678  19.032  0.00  0.00    +0.000 A 
ATOM     34  C   UNL     1      -1.273  15.080  19.841  0.00  0.00    +0.000 A 
ATOM     35  C   UNL     1      -1.955  14.133  20.598  0.00  0.00    +0.000 A 
ATOM     36  C   UNL     1      -1.574  12.793  20.542  0.00  0.00    +0.000 A 
ENDBRANCH  28  31
ENDBRANCH  22  23
ENDBRANCH  21  22
ENDBRANCH  20  21
ENDBRANCH  19  20
ENDBRANCH   1  19
TORSDOF 9
ENDMDL
