MODEL 1
REMARK VINA RESULT:      -7.8      0.000      0.000
REMARK  Name = 
REMARK  9 active torsions:
REMARK  status: ('A' for Active; 'I' for Inactive)
REMARK    1  A    between atoms: C_1  and  C_2
REMARK    2  A    between atoms: C_2  and  C_3
REMARK    3  A    between atoms: C_3  and  C_4
REMARK    4  A    between atoms: C_4  and  C_5
REMARK    5  A    between atoms: C_5  and  N_6
REMARK    6  A    between atoms: C_7  and  C_9
REMARK    7  A    between atoms: C_15  and  S_16
REMARK    8  A    between atoms: S_16  and  N_19
REMARK    9  A    between atoms: C_22  and  C_23
REMARK                            x       y       z     vdW  Elec       q    Type
REMARK                         _______ _______ _______ _____ _____    ______ ____
ROOT
ATOM      1  C   UNL     1       1.233   9.412  20.102  0.00  0.00    +0.000 A 
ATOM      2  C   UNL     1       1.333   9.929  18.866  0.00  0.00    +0.000 A 
ATOM      3  N   UNL     1       1.825   9.267  17.761  0.00  0.00    +0.000 N 
ATOM      4  C   UNL     1       2.551   8.077  17.927  0.00  0.00    +0.000 A 
ATOM      5  C   UNL     1       3.285   7.517  16.884  0.00  0.00    +0.000 A 
ATOM      6  C   UNL     1       4.055   6.361  17.089  0.00  0.00    +0.000 A 
ATOM      7  C   UNL     1       4.066   5.736  18.344  0.00  0.00    +0.000 A 
ATOM      8  C   UNL     1       3.303   6.269  19.392  0.00  0.00    +0.000 A 
ATOM      9  C   UNL     1       2.529   7.422  19.169  0.00  0.00    +0.000 A 
ATOM     10  C   UNL     1       1.700   8.004  20.261  0.00  0.00    +0.000 A 
ATOM     11  O   UNL     1       1.418   7.334  21.253  0.00  0.00    +0.000 OA
ATOM     12  H   UNL     1       1.974   9.813  16.917  0.00  0.00    +0.000 HD
ENDROOT
BRANCH   1  14
ATOM     13  N   UNL     1      -0.349   9.737  21.912  0.00  0.00    +0.000 N 
ATOM     14  C   UNL     1       0.705  10.264  21.208  0.00  0.00    +0.000 C 
ATOM     15  O   UNL     1       1.206  11.356  21.467  0.00  0.00    +0.000 OA
ATOM     16  H   UNL     1      -0.707   8.825  21.630  0.00  0.00    +0.000 HD
BRANCH  13  17
ATOM     17  C   UNL     1      -0.921  10.373  23.084  0.00  0.00    +0.000 C 
BRANCH  17  18
ATOM     18  C   UNL     1      -1.937  11.469  22.753  0.00  0.00    +0.000 C 
BRANCH  18  19
ATOM     19  C   UNL     1      -1.474  12.857  23.203  0.00  0.00    +0.000 C 
BRANCH  19  21
ATOM     20  C   UNL     1      -3.816  12.758  24.127  0.00  0.00    +0.000 C 
ATOM     21  C   UNL     1      -2.597  13.638  23.889  0.00  0.00    +0.000 C 
ENDBRANCH  19  21
ENDBRANCH  18  19
ENDBRANCH  17  18
ENDBRANCH  13  17
ENDBRANCH   1  14
BRANCH   7  22
ATOM     22  S   UNL     1       5.291   4.460  18.677  0.00  0.00    +0.000 S 
ATOM     23  O   UNL     1       6.107   4.365  17.484  0.00  0.00    +0.000 OA
ATOM     24  O   UNL     1       5.892   4.795  19.952  0.00  0.00    +0.000 OA
BRANCH  22  25
ATOM     25  N   UNL     1       4.475   2.996  18.849  0.00  0.00    +0.000 NA
ATOM     26  C   UNL     1       3.488   2.549  17.860  0.00  0.00    +0.000 C 
ATOM     27  C   UNL     1       2.086   2.951  18.302  0.00  0.00    +0.000 C 
ATOM     28  C   UNL     1       1.770   2.637  19.778  0.00  0.00    +0.000 C 
ATOM     29  C   UNL     1       0.569   3.464  20.247  0.00  0.00    +0.000 C 
ATOM     30  C   UNL     1       2.947   2.866  20.742  0.00  0.00    +0.000 C 
ATOM     31  C   UNL     1       4.268   2.391  20.172  0.00  0.00    +0.000 C 
ENDBRANCH  22  25
ENDBRANCH   7  22
TORSDOF 7
ENDMDL
MODEL 2
REMARK VINA RESULT:      -7.7      0.881      1.031
REMARK  Name = 
REMARK  9 active torsions:
REMARK  status: ('A' for Active; 'I' for Inactive)
REMARK    1  A    between atoms: C_1  and  C_2
REMARK    2  A    between atoms: C_2  and  C_3
REMARK    3  A    between atoms: C_3  and  C_4
REMARK    4  A    between atoms: C_4  and  C_5
REMARK    5  A    between atoms: C_5  and  N_6
REMARK    6  A    between atoms: C_7  and  C_9
REMARK    7  A    between atoms: C_15  and  S_16
REMARK    8  A    between atoms: S_16  and  N_19
REMARK    9  A    between atoms: C_22  and  C_23
REMARK                            x       y       z     vdW  Elec       q    Type
REMARK                         _______ _______ _______ _____ _____    ______ ____
ROOT
ATOM      1  C   UNL     1       0.931   9.221  20.879  0.00  0.00    +0.000 A 
ATOM      2  C   UNL     1       0.980   9.967  19.762  0.00  0.00    +0.000 A 
ATOM      3  N   UNL     1       1.468   9.547  18.544  0.00  0.00    +0.000 N 
ATOM      4  C   UNL     1       2.241   8.378  18.467  0.00  0.00    +0.000 A 
ATOM      5  C   UNL     1       2.968   8.056  17.323  0.00  0.00    +0.000 A 
ATOM      6  C   UNL     1       3.786   6.915  17.290  0.00  0.00    +0.000 A 
ATOM      7  C   UNL     1       3.852   6.065  18.403  0.00  0.00    +0.000 A 
ATOM      8  C   UNL     1       3.097   6.358  19.548  0.00  0.00    +0.000 A 
ATOM      9  C   UNL     1       2.275   7.499  19.562  0.00  0.00    +0.000 A 
ATOM     10  C   UNL     1       1.453   7.829  20.759  0.00  0.00    +0.000 A 
ATOM     11  O   UNL     1       1.222   6.972  21.611  0.00  0.00    +0.000 OA
ATOM     12  H   UNL     1       1.574  10.249  17.816  0.00  0.00    +0.000 HD
ENDROOT
BRANCH   1  14
ATOM     13  N   UNL     1      -0.727  10.597  21.995  0.00  0.00    +0.000 N 
ATOM     14  C   UNL     1       0.400   9.826  22.137  0.00  0.00    +0.000 C 
ATOM     15  O   UNL     1       0.941   9.622  23.221  0.00  0.00    +0.000 OA
ATOM     16  H   UNL     1      -1.111  10.718  21.058  0.00  0.00    +0.000 HD
BRANCH  13  17
ATOM     17  C   UNL     1      -1.442  11.175  23.116  0.00  0.00    +0.000 C 
BRANCH  17  18
ATOM     18  C   UNL     1      -2.536  12.163  22.703  0.00  0.00    +0.000 C 
BRANCH  18  19
ATOM     19  C   UNL     1      -3.527  12.453  23.834  0.00  0.00    +0.000 C 
BRANCH  19  21
ATOM     20  C   UNL     1      -6.006  12.898  23.861  0.00  0.00    +0.000 C 
ATOM     21  C   UNL     1      -4.648  13.390  23.383  0.00  0.00    +0.000 C 
ENDBRANCH  19  21
ENDBRANCH  18  19
ENDBRANCH  17  18
ENDBRANCH  13  17
ENDBRANCH   1  14
BRANCH   7  22
ATOM     22  S   UNL     1       5.132   4.801  18.466  0.00  0.00    +0.000 S 
ATOM     23  O   UNL     1       5.849   4.892  17.210  0.00  0.00    +0.000 OA
ATOM     24  O   UNL     1       5.827   4.986  19.723  0.00  0.00    +0.000 OA
BRANCH  22  25
ATOM     25  N   UNL     1       4.370   3.298  18.503  0.00  0.00    +0.000 NA
ATOM     26  C   UNL     1       3.290   2.964  17.568  0.00  0.00    +0.000 C 
ATOM     27  C   UNL     1       1.937   3.247  18.208  0.00  0.00    +0.000 C 
ATOM     28  C   UNL     1       1.789   2.711  19.647  0.00  0.00    +0.000 C 
ATOM     29  C   UNL     1       0.630   3.416  20.356  0.00  0.00    +0.000 C 
ATOM     30  C   UNL     1       3.060   2.840  20.505  0.00  0.00    +0.000 C 
ATOM     31  C   UNL     1       4.320   2.501  19.736  0.00  0.00    +0.000 C 
ENDBRANCH  22  25
ENDBRANCH   7  22
TORSDOF 7
ENDMDL
MODEL 3
REMARK VINA RESULT:      -7.6      2.839      3.535
REMARK  Name = 
REMARK  9 active torsions:
REMARK  status: ('A' for Active; 'I' for Inactive)
REMARK    1  A    between atoms: C_1  and  C_2
REMARK    2  A    between atoms: C_2  and  C_3
REMARK    3  A    between atoms: C_3  and  C_4
REMARK    4  A    between atoms: C_4  and  C_5
REMARK    5  A    between atoms: C_5  and  N_6
REMARK    6  A    between atoms: C_7  and  C_9
REMARK    7  A    between atoms: C_15  and  S_16
REMARK    8  A    between atoms: S_16  and  N_19
REMARK    9  A    between atoms: C_22  and  C_23
REMARK                            x       y       z     vdW  Elec       q    Type
REMARK                         _______ _______ _______ _____ _____    ______ ____
ROOT
ATOM      1  C   UNL     1       0.405   9.800  19.002  0.00  0.00    +0.000 A 
ATOM      2  C   UNL     1       0.176   9.352  20.248  0.00  0.00    +0.000 A 
ATOM      3  N   UNL     1       0.936   8.411  20.909  0.00  0.00    +0.000 N 
ATOM      4  C   UNL     1       1.847   7.620  20.191  0.00  0.00    +0.000 A 
ATOM      5  C   UNL     1       2.438   6.492  20.756  0.00  0.00    +0.000 A 
ATOM      6  C   UNL     1       3.297   5.678  20.000  0.00  0.00    +0.000 A 
ATOM      7  C   UNL     1       3.597   6.014  18.672  0.00  0.00    +0.000 A 
ATOM      8  C   UNL     1       3.036   7.166  18.103  0.00  0.00    +0.000 A 
ATOM      9  C   UNL     1       2.185   7.977  18.876  0.00  0.00    +0.000 A 
ATOM     10  C   UNL     1       1.585   9.213  18.302  0.00  0.00    +0.000 A 
ATOM     11  O   UNL     1       2.057   9.721  17.286  0.00  0.00    +0.000 OA
ATOM     12  H   UNL     1       0.579   8.059  21.794  0.00  0.00    +0.000 HD
ENDROOT
BRANCH   1  14
ATOM     13  N   UNL     1      -1.223  10.383  17.299  0.00  0.00    +0.000 N 
ATOM     14  C   UNL     1      -0.526  10.803  18.406  0.00  0.00    +0.000 C 
ATOM     15  O   UNL     1      -0.659  11.921  18.898  0.00  0.00    +0.000 OA
ATOM     16  H   UNL     1      -1.050   9.440  16.953  0.00  0.00    +0.000 HD
BRANCH  13  17
ATOM     17  C   UNL     1      -2.246  11.182  16.653  0.00  0.00    +0.000 C 
BRANCH  17  18
ATOM     18  C   UNL     1      -3.650  10.579  16.756  0.00  0.00    +0.000 C 
BRANCH  18  19
ATOM     19  C   UNL     1      -4.327  10.887  18.095  0.00  0.00    +0.000 C 
BRANCH  19  21
ATOM     20  C   UNL     1      -6.814  11.281  18.185  0.00  0.00    +0.000 C 
ATOM     21  C   UNL     1      -5.451  11.913  17.942  0.00  0.00    +0.000 C 
ENDBRANCH  19  21
ENDBRANCH  18  19
ENDBRANCH  17  18
ENDBRANCH  13  17
ENDBRANCH   1  14
BRANCH   7  22
ATOM     22  S   UNL     1       4.430   4.807  17.629  0.00  0.00    +0.000 S 
ATOM     23  O   UNL     1       4.528   5.410  16.316  0.00  0.00    +0.000 OA
ATOM     24  O   UNL     1       5.625   4.407  18.344  0.00  0.00    +0.000 OA
BRANCH  22  25
ATOM     25  N   UNL     1       3.425   3.462  17.494  0.00  0.00    +0.000 NA
ATOM     26  C   UNL     1       1.990   3.604  17.224  0.00  0.00    +0.000 C 
ATOM     27  C   UNL     1       1.207   3.588  18.531  0.00  0.00    +0.000 C 
ATOM     28  C   UNL     1       1.615   2.462  19.503  0.00  0.00    +0.000 C 
ATOM     29  C   UNL     1       1.135   2.790  20.919  0.00  0.00    +0.000 C 
ATOM     30  C   UNL     1       3.125   2.169  19.537  0.00  0.00    +0.000 C 
ATOM     31  C   UNL     1       3.755   2.195  18.159  0.00  0.00    +0.000 C 
ENDBRANCH  22  25
ENDBRANCH   7  22
TORSDOF 7
ENDMDL
MODEL 4
REMARK VINA RESULT:      -7.6      2.912      4.024
REMARK  Name = 
REMARK  9 active torsions:
REMARK  status: ('A' for Active; 'I' for Inactive)
REMARK    1  A    between atoms: C_1  and  C_2
REMARK    2  A    between atoms: C_2  and  C_3
REMARK    3  A    between atoms: C_3  and  C_4
REMARK    4  A    between atoms: C_4  and  C_5
REMARK    5  A    between atoms: C_5  and  N_6
REMARK    6  A    between atoms: C_7  and  C_9
REMARK    7  A    between atoms: C_15  and  S_16
REMARK    8  A    between atoms: S_16  and  N_19
REMARK    9  A    between atoms: C_22  and  C_23
REMARK                            x       y       z     vdW  Elec       q    Type
REMARK                         _______ _______ _______ _____ _____    ______ ____
ROOT
ATOM      1  C   UNL     1       0.620   9.779  19.186  0.00  0.00    +0.000 A 
ATOM      2  C   UNL     1       0.380   9.277  20.410  0.00  0.00    +0.000 A 
ATOM      3  N   UNL     1       1.102   8.271  21.014  0.00  0.00    +0.000 N 
ATOM      4  C   UNL     1       1.972   7.479  20.248  0.00  0.00    +0.000 A 
ATOM      5  C   UNL     1       2.517   6.298  20.748  0.00  0.00    +0.000 A 
ATOM      6  C   UNL     1       3.335   5.489  19.943  0.00  0.00    +0.000 A 
ATOM      7  C   UNL     1       3.640   5.881  18.631  0.00  0.00    +0.000 A 
ATOM      8  C   UNL     1       3.128   7.085  18.129  0.00  0.00    +0.000 A 
ATOM      9  C   UNL     1       2.318   7.890  18.951  0.00  0.00    +0.000 A 
ATOM     10  C   UNL     1       1.769   9.180  18.447  0.00  0.00    +0.000 A 
ATOM     11  O   UNL     1       2.257   9.719  17.455  0.00  0.00    +0.000 OA
ATOM     12  H   UNL     1       0.735   7.889  21.882  0.00  0.00    +0.000 HD
ENDROOT
BRANCH   1  14
ATOM     13  N   UNL     1      -1.554  10.467  18.358  0.00  0.00    +0.000 N 
ATOM     14  C   UNL     1      -0.270  10.852  18.652  0.00  0.00    +0.000 C 
ATOM     15  O   UNL     1       0.135  12.003  18.507  0.00  0.00    +0.000 OA
ATOM     16  H   UNL     1      -1.808   9.490  18.504  0.00  0.00    +0.000 HD
BRANCH  13  17
ATOM     17  C   UNL     1      -2.585  11.393  17.932  0.00  0.00    +0.000 C 
BRANCH  17  18
ATOM     18  C   UNL     1      -3.865  10.706  17.447  0.00  0.00    +0.000 C 
BRANCH  18  19
ATOM     19  C   UNL     1      -4.100  10.892  15.944  0.00  0.00    +0.000 C 
BRANCH  19  21
ATOM     20  C   UNL     1      -3.338   9.938  13.741  0.00  0.00    +0.000 C 
ATOM     21  C   UNL     1      -2.903  10.417  15.118  0.00  0.00    +0.000 C 
ENDBRANCH  19  21
ENDBRANCH  18  19
ENDBRANCH  17  18
ENDBRANCH  13  17
ENDBRANCH   1  14
BRANCH   7  22
ATOM     22  S   UNL     1       4.414   4.695  17.520  0.00  0.00    +0.000 S 
ATOM     23  O   UNL     1       4.489   5.346  16.228  0.00  0.00    +0.000 OA
ATOM     24  O   UNL     1       5.618   4.240  18.184  0.00  0.00    +0.000 OA
BRANCH  22  25
ATOM     25  N   UNL     1       3.371   3.381  17.364  0.00  0.00    +0.000 NA
ATOM     26  C   UNL     1       1.934   3.567  17.137  0.00  0.00    +0.000 C 
ATOM     27  C   UNL     1       1.185   3.522  18.464  0.00  0.00    +0.000 C 
ATOM     28  C   UNL     1       1.590   2.353  19.384  0.00  0.00    +0.000 C 
ATOM     29  C   UNL     1       1.155   2.641  20.824  0.00  0.00    +0.000 C 
ATOM     30  C   UNL     1       3.092   2.023  19.367  0.00  0.00    +0.000 C 
ATOM     31  C   UNL     1       3.687   2.082  17.975  0.00  0.00    +0.000 C 
ENDBRANCH  22  25
ENDBRANCH   7  22
TORSDOF 7
ENDMDL
MODEL 5
REMARK VINA RESULT:      -7.6      3.242      9.286
REMARK  Name = 
REMARK  9 active torsions:
REMARK  status: ('A' for Active; 'I' for Inactive)
REMARK    1  A    between atoms: C_1  and  C_2
REMARK    2  A    between atoms: C_2  and  C_3
REMARK    3  A    between atoms: C_3  and  C_4
REMARK    4  A    between atoms: C_4  and  C_5
REMARK    5  A    between atoms: C_5  and  N_6
REMARK    6  A    between atoms: C_7  and  C_9
REMARK    7  A    between atoms: C_15  and  S_16
REMARK    8  A    between atoms: S_16  and  N_19
REMARK    9  A    between atoms: C_22  and  C_23
REMARK                            x       y       z     vdW  Elec       q    Type
REMARK                         _______ _______ _______ _____ _____    ______ ____
ROOT
ATOM      1  C   UNL     1       5.072   4.942  17.699  0.00  0.00    +0.000 A 
ATOM      2  C   UNL     1       4.749   3.878  18.454  0.00  0.00    +0.000 A 
ATOM      3  N   UNL     1       3.643   3.787  19.272  0.00  0.00    +0.000 N 
ATOM      4  C   UNL     1       2.924   4.947  19.605  0.00  0.00    +0.000 A 
ATOM      5  C   UNL     1       1.973   4.949  20.623  0.00  0.00    +0.000 A 
ATOM      6  C   UNL     1       1.311   6.134  20.983  0.00  0.00    +0.000 A 
ATOM      7  C   UNL     1       1.578   7.326  20.295  0.00  0.00    +0.000 A 
ATOM      8  C   UNL     1       2.507   7.329  19.244  0.00  0.00    +0.000 A 
ATOM      9  C   UNL     1       3.155   6.132  18.889  0.00  0.00    +0.000 A 
ATOM     10  C   UNL     1       4.138   6.102  17.771  0.00  0.00    +0.000 A 
ATOM     11  O   UNL     1       4.166   7.012  16.942  0.00  0.00    +0.000 OA
ATOM     12  H   UNL     1       3.586   2.985  19.894  0.00  0.00    +0.000 HD
ENDROOT
BRANCH   1  14
ATOM     13  N   UNL     1       6.159   5.109  15.537  0.00  0.00    +0.000 N 
ATOM     14  C   UNL     1       6.323   4.904  16.884  0.00  0.00    +0.000 C 
ATOM     15  O   UNL     1       7.419   4.716  17.406  0.00  0.00    +0.000 OA
ATOM     16  H   UNL     1       5.214   5.254  15.184  0.00  0.00    +0.000 HD
BRANCH  13  17
ATOM     17  C   UNL     1       7.268   5.212  14.607  0.00  0.00    +0.000 C 
BRANCH  17  18
ATOM     18  C   UNL     1       7.046   4.449  13.299  0.00  0.00    +0.000 C 
BRANCH  18  19
ATOM     19  C   UNL     1       5.727   3.670  13.289  0.00  0.00    +0.000 C 
BRANCH  19  21
ATOM     20  C   UNL     1       4.117   3.294  11.388  0.00  0.00    +0.000 C 
ATOM     21  C   UNL     1       5.492   2.966  11.951  0.00  0.00    +0.000 C 
ENDBRANCH  19  21
ENDBRANCH  18  19
ENDBRANCH  17  18
ENDBRANCH  13  17
ENDBRANCH   1  14
BRANCH   7  22
ATOM     22  S   UNL     1       0.971   8.881  20.967  0.00  0.00    +0.000 S 
ATOM     23  O   UNL     1      -0.430   8.669  21.268  0.00  0.00    +0.000 OA
ATOM     24  O   UNL     1       1.897   9.262  22.014  0.00  0.00    +0.000 OA
BRANCH  22  25
ATOM     25  N   UNL     1       1.055  10.038  19.745  0.00  0.00    +0.000 NA
ATOM     26  C   UNL     1       1.088  11.473  20.051  0.00  0.00    +0.000 C 
ATOM     27  C   UNL     1      -0.319  12.054  19.987  0.00  0.00    +0.000 C 
ATOM     28  C   UNL     1      -1.125  11.635  18.741  0.00  0.00    +0.000 C 
ATOM     29  C   UNL     1      -2.620  11.865  18.978  0.00  0.00    +0.000 C 
ATOM     30  C   UNL     1      -0.902  10.178  18.301  0.00  0.00    +0.000 C 
ATOM     31  C   UNL     1       0.551   9.757  18.394  0.00  0.00    +0.000 C 
ENDBRANCH  22  25
ENDBRANCH   7  22
TORSDOF 7
ENDMDL
MODEL 6
REMARK VINA RESULT:      -7.5      3.417      8.836
REMARK  Name = 
REMARK  9 active torsions:
REMARK  status: ('A' for Active; 'I' for Inactive)
REMARK    1  A    between atoms: C_1  and  C_2
REMARK    2  A    between atoms: C_2  and  C_3
REMARK    3  A    between atoms: C_3  and  C_4
REMARK    4  A    between atoms: C_4  and  C_5
REMARK    5  A    between atoms: C_5  and  N_6
REMARK    6  A    between atoms: C_7  and  C_9
REMARK    7  A    between atoms: C_15  and  S_16
REMARK    8  A    between atoms: S_16  and  N_19
REMARK    9  A    between atoms: C_22  and  C_23
REMARK                            x       y       z     vdW  Elec       q    Type
REMARK                         _______ _______ _______ _____ _____    ______ ____
ROOT
ATOM      1  C   UNL     1       2.801   6.877  18.687  0.00  0.00    +0.000 A 
ATOM      2  C   UNL     1       2.445   6.306  19.850  0.00  0.00    +0.000 A 
ATOM      3  N   UNL     1       1.597   6.861  20.784  0.00  0.00    +0.000 N 
ATOM      4  C   UNL     1       1.277   8.227  20.712  0.00  0.00    +0.000 A 
ATOM      5  C   UNL     1       0.646   8.886  21.764  0.00  0.00    +0.000 A 
ATOM      6  C   UNL     1       0.394  10.266  21.697  0.00  0.00    +0.000 A 
ATOM      7  C   UNL     1       0.744  10.991  20.549  0.00  0.00    +0.000 A 
ATOM      8  C   UNL     1       1.347  10.332  19.468  0.00  0.00    +0.000 A 
ATOM      9  C   UNL     1       1.585   8.948  19.546  0.00  0.00    +0.000 A 
ATOM     10  C   UNL     1       2.213   8.219  18.409  0.00  0.00    +0.000 A 
ATOM     11  O   UNL     1       2.238   8.720  17.286  0.00  0.00    +0.000 OA
ATOM     12  H   UNL     1       1.516   6.391  21.681  0.00  0.00    +0.000 HD
ENDROOT
BRANCH   1  14
ATOM     13  N   UNL     1       4.767   6.931  17.265  0.00  0.00    +0.000 N 
ATOM     14  C   UNL     1       3.756   6.163  17.788  0.00  0.00    +0.000 C 
ATOM     15  O   UNL     1       3.638   4.962  17.556  0.00  0.00    +0.000 OA
ATOM     16  H   UNL     1       4.790   7.922  17.506  0.00  0.00    +0.000 HD
BRANCH  13  17
ATOM     17  C   UNL     1       5.845   6.389  16.461  0.00  0.00    +0.000 C 
BRANCH  17  18
ATOM     18  C   UNL     1       7.012   5.844  17.287  0.00  0.00    +0.000 C 
BRANCH  18  19
ATOM     19  C   UNL     1       7.660   6.915  18.170  0.00  0.00    +0.000 C 
BRANCH  19  21
ATOM     20  C   UNL     1       8.490   9.290  18.306  0.00  0.00    +0.000 C 
ATOM     21  C   UNL     1       7.868   8.228  17.412  0.00  0.00    +0.000 C 
ENDBRANCH  19  21
ENDBRANCH  18  19
ENDBRANCH  17  18
ENDBRANCH  13  17
ENDBRANCH   1  14
BRANCH   7  22
ATOM     22  S   UNL     1       0.709  12.789  20.603  0.00  0.00    +0.000 S 
ATOM     23  O   UNL     1       0.497  13.145  21.992  0.00  0.00    +0.000 OA
ATOM     24  O   UNL     1       1.893  13.242  19.902  0.00  0.00    +0.000 OA
BRANCH  22  25
ATOM     25  N   UNL     1      -0.643  13.304  19.738  0.00  0.00    +0.000 NA
ATOM     26  C   UNL     1      -2.001  13.118  20.260  0.00  0.00    +0.000 C 
ATOM     27  C   UNL     1      -2.603  11.832  19.706  0.00  0.00    +0.000 C 
ATOM     28  C   UNL     1      -2.420  11.647  18.186  0.00  0.00    +0.000 C 
ATOM     29  C   UNL     1      -2.624  10.178  17.806  0.00  0.00    +0.000 C 
ATOM     30  C   UNL     1      -1.059  12.123  17.649  0.00  0.00    +0.000 C 
ATOM     31  C   UNL     1      -0.608  13.427  18.275  0.00  0.00    +0.000 C 
ENDBRANCH  22  25
ENDBRANCH   7  22
TORSDOF 7
ENDMDL
MODEL 7
REMARK VINA RESULT:      -7.5      1.151      1.494
REMARK  Name = 
REMARK  9 active torsions:
REMARK  status: ('A' for Active; 'I' for Inactive)
REMARK    1  A    between atoms: C_1  and  C_2
REMARK    2  A    between atoms: C_2  and  C_3
REMARK    3  A    between atoms: C_3  and  C_4
REMARK    4  A    between atoms: C_4  and  C_5
REMARK    5  A    between atoms: C_5  and  N_6
REMARK    6  A    between atoms: C_7  and  C_9
REMARK    7  A    between atoms: C_15  and  S_16
REMARK    8  A    between atoms: S_16  and  N_19
REMARK    9  A    between atoms: C_22  and  C_23
REMARK                            x       y       z     vdW  Elec       q    Type
REMARK                         _______ _______ _______ _____ _____    ______ ____
ROOT
ATOM      1  C   UNL     1       1.100   9.038  20.713  0.00  0.00    +0.000 A 
ATOM      2  C   UNL     1       1.202   9.768  19.589  0.00  0.00    +0.000 A 
ATOM      3  N   UNL     1       1.712   9.321  18.390  0.00  0.00    +0.000 N 
ATOM      4  C   UNL     1       2.454   8.129  18.349  0.00  0.00    +0.000 A 
ATOM      5  C   UNL     1       3.203   7.773  17.229  0.00  0.00    +0.000 A 
ATOM      6  C   UNL     1       3.988   6.609  17.233  0.00  0.00    +0.000 A 
ATOM      7  C   UNL     1       3.998   5.769  18.357  0.00  0.00    +0.000 A 
ATOM      8  C   UNL     1       3.219   6.097  19.475  0.00  0.00    +0.000 A 
ATOM      9  C   UNL     1       2.430   7.262  19.453  0.00  0.00    +0.000 A 
ATOM     10  C   UNL     1       1.585   7.630  20.623  0.00  0.00    +0.000 A 
ATOM     11  O   UNL     1       1.304   6.790  21.477  0.00  0.00    +0.000 OA
ATOM     12  H   UNL     1       1.860  10.010  17.658  0.00  0.00    +0.000 HD
ENDROOT
BRANCH   1  14
ATOM     13  N   UNL     1      -0.582  10.428  21.773  0.00  0.00    +0.000 N 
ATOM     14  C   UNL     1       0.551   9.672  21.947  0.00  0.00    +0.000 C 
ATOM     15  O   UNL     1       1.083   9.504  23.042  0.00  0.00    +0.000 OA
ATOM     16  H   UNL     1      -0.957  10.520  20.829  0.00  0.00    +0.000 HD
BRANCH  13  17
ATOM     17  C   UNL     1      -1.313  11.030  22.871  0.00  0.00    +0.000 C 
BRANCH  17  18
ATOM     18  C   UNL     1      -1.710  12.487  22.618  0.00  0.00    +0.000 C 
BRANCH  18  19
ATOM     19  C   UNL     1      -0.976  13.098  21.420  0.00  0.00    +0.000 C 
BRANCH  19  21
ATOM     20  C   UNL     1      -1.104  12.761  18.927  0.00  0.00    +0.000 C 
ATOM     21  C   UNL     1      -1.868  13.164  20.179  0.00  0.00    +0.000 C 
ENDBRANCH  19  21
ENDBRANCH  18  19
ENDBRANCH  17  18
ENDBRANCH  13  17
ENDBRANCH   1  14
BRANCH   7  22
ATOM     22  S   UNL     1       5.237   4.470  18.469  0.00  0.00    +0.000 S 
ATOM     23  O   UNL     1       5.913   4.447  17.188  0.00  0.00    +0.000 OA
ATOM     24  O   UNL     1       5.982   4.721  19.687  0.00  0.00    +0.000 OA
BRANCH  22  25
ATOM     25  N   UNL     1       4.430   3.001  18.641  0.00  0.00    +0.000 NA
ATOM     26  C   UNL     1       3.372   2.597  17.708  0.00  0.00    +0.000 C 
ATOM     27  C   UNL     1       2.007   2.982  18.266  0.00  0.00    +0.000 C 
ATOM     28  C   UNL     1       1.796   2.610  19.747  0.00  0.00    +0.000 C 
ATOM     29  C   UNL     1       0.636   3.419  20.334  0.00  0.00    +0.000 C 
ATOM     30  C   UNL     1       3.041   2.798  20.632  0.00  0.00    +0.000 C 
ATOM     31  C   UNL     1       4.315   2.344  19.950  0.00  0.00    +0.000 C 
ENDBRANCH  22  25
ENDBRANCH   7  22
TORSDOF 7
ENDMDL
MODEL 8
REMARK VINA RESULT:      -7.4      3.138      4.817
REMARK  Name = 
REMARK  9 active torsions:
REMARK  status: ('A' for Active; 'I' for Inactive)
REMARK    1  A    between atoms: C_1  and  C_2
REMARK    2  A    between atoms: C_2  and  C_3
REMARK    3  A    between atoms: C_3  and  C_4
REMARK    4  A    between atoms: C_4  and  C_5
REMARK    5  A    between atoms: C_5  and  N_6
REMARK    6  A    between atoms: C_7  and  C_9
REMARK    7  A    between atoms: C_15  and  S_16
REMARK    8  A    between atoms: S_16  and  N_19
REMARK    9  A    between atoms: C_22  and  C_23
REMARK                            x       y       z     vdW  Elec       q    Type
REMARK                         _______ _______ _______ _____ _____    ______ ____
ROOT
ATOM      1  C   UNL     1       0.873   9.665  19.446  0.00  0.00    +0.000 A 
ATOM      2  C   UNL     1       0.715   9.199  20.696  0.00  0.00    +0.000 A 
ATOM      3  N   UNL     1       1.347   8.092  21.221  0.00  0.00    +0.000 N 
ATOM      4  C   UNL     1       1.987   7.183  20.364  0.00  0.00    +0.000 A 
ATOM      5  C   UNL     1       2.407   5.931  20.809  0.00  0.00    +0.000 A 
ATOM      6  C   UNL     1       2.988   5.012  19.921  0.00  0.00    +0.000 A 
ATOM      7  C   UNL     1       3.183   5.360  18.576  0.00  0.00    +0.000 A 
ATOM      8  C   UNL     1       2.798   6.630  18.124  0.00  0.00    +0.000 A 
ATOM      9  C   UNL     1       2.226   7.543  19.028  0.00  0.00    +0.000 A 
ATOM     10  C   UNL     1       1.818   8.903  18.579  0.00  0.00    +0.000 A 
ATOM     11  O   UNL     1       2.254   9.368  17.526  0.00  0.00    +0.000 OA
ATOM     12  H   UNL     1       1.038   7.766  22.133  0.00  0.00    +0.000 HD
ENDROOT
BRANCH   1  14
ATOM     13  N   UNL     1      -0.873  10.629  18.065  0.00  0.00    +0.000 N 
ATOM     14  C   UNL     1       0.094  10.862  19.010  0.00  0.00    +0.000 C 
ATOM     15  O   UNL     1       0.309  11.972  19.491  0.00  0.00    +0.000 OA
ATOM     16  H   UNL     1      -0.984   9.678  17.715  0.00  0.00    +0.000 HD
BRANCH  13  17
ATOM     17  C   UNL     1      -1.796  11.648  17.603  0.00  0.00    +0.000 C 
BRANCH  17  18
ATOM     18  C   UNL     1      -3.268  11.281  17.807  0.00  0.00    +0.000 C 
BRANCH  18  19
ATOM     19  C   UNL     1      -3.852  10.503  16.623  0.00  0.00    +0.000 C 
BRANCH  19  21
ATOM     20  C   UNL     1      -2.982   9.869  14.345  0.00  0.00    +0.000 C 
ATOM     21  C   UNL     1      -3.317  11.018  15.285  0.00  0.00    +0.000 C 
ENDBRANCH  19  21
ENDBRANCH  18  19
ENDBRANCH  17  18
ENDBRANCH  13  17
ENDBRANCH   1  14
BRANCH   7  22
ATOM     22  S   UNL     1       3.626   4.077  17.394  0.00  0.00    +0.000 S 
ATOM     23  O   UNL     1       4.199   2.996  18.170  0.00  0.00    +0.000 OA
ATOM     24  O   UNL     1       2.450   3.850  16.579  0.00  0.00    +0.000 OA
BRANCH  22  25
ATOM     25  N   UNL     1       4.843   4.688  16.402  0.00  0.00    +0.000 NA
ATOM     26  C   UNL     1       6.122   3.988  16.242  0.00  0.00    +0.000 C 
ATOM     27  C   UNL     1       7.152   4.548  17.215  0.00  0.00    +0.000 C 
ATOM     28  C   UNL     1       7.213   6.089  17.259  0.00  0.00    +0.000 C 
ATOM     29  C   UNL     1       7.903   6.552  18.544  0.00  0.00    +0.000 C 
ATOM     30  C   UNL     1       5.844   6.782  17.144  0.00  0.00    +0.000 C 
ATOM     31  C   UNL     1       4.942   6.126  16.118  0.00  0.00    +0.000 C 
ENDBRANCH  22  25
ENDBRANCH   7  22
TORSDOF 7
ENDMDL
MODEL 9
REMARK VINA RESULT:      -7.3      3.006      4.706
REMARK  Name = 
REMARK  9 active torsions:
REMARK  status: ('A' for Active; 'I' for Inactive)
REMARK    1  A    between atoms: C_1  and  C_2
REMARK    2  A    between atoms: C_2  and  C_3
REMARK    3  A    between atoms: C_3  and  C_4
REMARK    4  A    between atoms: C_4  and  C_5
REMARK    5  A    between atoms: C_5  and  N_6
REMARK    6  A    between atoms: C_7  and  C_9
REMARK    7  A    between atoms: C_15  and  S_16
REMARK    8  A    between atoms: S_16  and  N_19
REMARK    9  A    between atoms: C_22  and  C_23
REMARK                            x       y       z     vdW  Elec       q    Type
REMARK                         _______ _______ _______ _____ _____    ______ ____
ROOT
ATOM      1  C   UNL     1       1.026   9.419  19.405  0.00  0.00    +0.000 A 
ATOM      2  C   UNL     1       0.880   9.031  20.683  0.00  0.00    +0.000 A 
ATOM      3  N   UNL     1       1.464   7.919  21.251  0.00  0.00    +0.000 N 
ATOM      4  C   UNL     1       2.025   6.929  20.428  0.00  0.00    +0.000 A 
ATOM      5  C   UNL     1       2.387   5.681  20.930  0.00  0.00    +0.000 A 
ATOM      6  C   UNL     1       2.887   4.684  20.078  0.00  0.00    +0.000 A 
ATOM      7  C   UNL     1       3.061   4.946  18.711  0.00  0.00    +0.000 A 
ATOM      8  C   UNL     1       2.735   6.211  18.201  0.00  0.00    +0.000 A 
ATOM      9  C   UNL     1       2.244   7.203  19.068  0.00  0.00    +0.000 A 
ATOM     10  C   UNL     1       1.899   8.559  18.556  0.00  0.00    +0.000 A 
ATOM     11  O   UNL     1       2.329   8.940  17.468  0.00  0.00    +0.000 OA
ATOM     12  H   UNL     1       1.165   7.660  22.188  0.00  0.00    +0.000 HD
ENDROOT
BRANCH   1  14
ATOM     13  N   UNL     1      -1.065  10.590  19.025  0.00  0.00    +0.000 N 
ATOM     14  C   UNL     1       0.303  10.635  18.926  0.00  0.00    +0.000 C 
ATOM     15  O   UNL     1       0.913  11.609  18.490  0.00  0.00    +0.000 OA
ATOM     16  H   UNL     1      -1.492   9.741  19.395  0.00  0.00    +0.000 HD
BRANCH  13  17
ATOM     17  C   UNL     1      -1.923  11.715  18.709  0.00  0.00    +0.000 C 
BRANCH  17  18
ATOM     18  C   UNL     1      -2.961  11.410  17.626  0.00  0.00    +0.000 C 
BRANCH  18  19
ATOM     19  C   UNL     1      -2.323  11.097  16.269  0.00  0.00    +0.000 C 
BRANCH  19  21
ATOM     20  C   UNL     1      -3.654  10.033  14.414  0.00  0.00    +0.000 C 
ATOM     21  C   UNL     1      -2.848   9.786  15.681  0.00  0.00    +0.000 C 
ENDBRANCH  19  21
ENDBRANCH  18  19
ENDBRANCH  17  18
ENDBRANCH  13  17
ENDBRANCH   1  14
BRANCH   7  22
ATOM     22  S   UNL     1       3.394   3.579  17.591  0.00  0.00    +0.000 S 
ATOM     23  O   UNL     1       3.413   2.384  18.410  0.00  0.00    +0.000 OA
ATOM     24  O   UNL     1       2.448   3.705  16.500  0.00  0.00    +0.000 OA
BRANCH  22  25
ATOM     25  N   UNL     1       4.945   3.789  16.968  0.00  0.00    +0.000 NA
ATOM     26  C   UNL     1       6.115   3.894  17.847  0.00  0.00    +0.000 C 
ATOM     27  C   UNL     1       6.433   5.358  18.122  0.00  0.00    +0.000 C 
ATOM     28  C   UNL     1       6.434   6.256  16.868  0.00  0.00    +0.000 C 
ATOM     29  C   UNL     1       6.300   7.726  17.272  0.00  0.00    +0.000 C 
ATOM     30  C   UNL     1       5.341   5.913  15.841  0.00  0.00    +0.000 C 
ATOM     31  C   UNL     1       5.160   4.419  15.659  0.00  0.00    +0.000 C 
ENDBRANCH  22  25
ENDBRANCH   7  22
TORSDOF 7
ENDMDL
