MODEL 1
REMARK VINA RESULT:      -7.0      0.000      0.000
REMARK  Name = 
REMARK  1 active torsions:
REMARK  status: ('A' for Active; 'I' for Inactive)
REMARK    1  A    between atoms: N_6  and  C_7
REMARK                            x       y       z     vdW  Elec       q    Type
REMARK                         _______ _______ _______ _____ _____    ______ ____
ROOT
ATOM      1  O   UNL     1       7.743   5.281  14.531  0.00  0.00    +0.000 OA
ATOM      2  C   UNL     1       7.004   5.010  15.466  0.00  0.00    +0.000 A 
ATOM      3  N   UNL     1       7.361   5.207  16.771  0.00  0.00    +0.000 N 
ATOM      4  C   UNL     1       6.675   4.771  17.877  0.00  0.00    +0.000 A 
ATOM      5  O   UNL     1       7.199   4.854  18.986  0.00  0.00    +0.000 OA
ATOM      6  N   UNL     1       5.410   4.216  17.646  0.00  0.00    +0.000 N 
ATOM      7  C   UNL     1       4.963   4.038  16.344  0.00  0.00    +0.000 A 
ATOM      8  C   UNL     1       5.678   4.408  15.282  0.00  0.00    +0.000 A 
ATOM      9  F   UNL     1       5.246   4.213  14.023  0.00  0.00    +0.000 F 
ATOM     10  H   UNL     1       8.283   5.581  16.933  0.00  0.00    +0.000 HD
ENDROOT
BRANCH   6  11
ATOM     11  C   UNL     1       4.677   3.727  18.841  0.00  0.00    +0.000 C 
ATOM     12  C   UNL     1       3.835   4.795  19.582  0.00  0.00    +0.000 C 
ATOM     13  S   UNL     1       2.443   5.476  18.617  0.00  0.00    +0.000 S 
ATOM     14  C   UNL     1       1.468   3.953  18.436  0.00  0.00    +0.000 C 
ATOM     15  C   UNL     1       2.226   2.839  17.729  0.00  0.00    +0.000 C 
ATOM     16  S   UNL     1       3.682   2.191  18.628  0.00  0.00    +0.000 S 
ENDBRANCH   6  11
TORSDOF 1
ENDMDL
MODEL 2
REMARK VINA RESULT:      -6.6      1.071      1.133
REMARK  Name = 
REMARK  1 active torsions:
REMARK  status: ('A' for Active; 'I' for Inactive)
REMARK    1  A    between atoms: N_6  and  C_7
REMARK                            x       y       z     vdW  Elec       q    Type
REMARK                         _______ _______ _______ _____ _____    ______ ____
ROOT
ATOM      1  O   UNL     1       7.661   5.799  15.412  0.00  0.00    +0.000 OA
ATOM      2  C   UNL     1       6.846   5.526  16.281  0.00  0.00    +0.000 A 
ATOM      3  N   UNL     1       7.108   5.678  17.615  0.00  0.00    +0.000 N 
ATOM      4  C   UNL     1       6.328   5.235  18.653  0.00  0.00    +0.000 A 
ATOM      5  O   UNL     1       6.768   5.272  19.801  0.00  0.00    +0.000 OA
ATOM      6  N   UNL     1       5.068   4.727  18.312  0.00  0.00    +0.000 N 
ATOM      7  C   UNL     1       4.716   4.597  16.976  0.00  0.00    +0.000 A 
ATOM      8  C   UNL     1       5.519   4.972  15.982  0.00  0.00    +0.000 A 
ATOM      9  F   UNL     1       5.179   4.824  14.689  0.00  0.00    +0.000 F 
ATOM     10  H   UNL     1       8.026   6.018  17.856  0.00  0.00    +0.000 HD
ENDROOT
BRANCH   6  11
ATOM     11  C   UNL     1       4.232   4.230  19.435  0.00  0.00    +0.000 C 
ATOM     12  C   UNL     1       2.769   4.739  19.444  0.00  0.00    +0.000 C 
ATOM     13  S   UNL     1       1.758   4.181  18.030  0.00  0.00    +0.000 S 
ATOM     14  C   UNL     1       1.783   2.395  18.365  0.00  0.00    +0.000 C 
ATOM     15  C   UNL     1       3.188   1.812  18.391  0.00  0.00    +0.000 C 
ATOM     16  S   UNL     1       4.261   2.414  19.746  0.00  0.00    +0.000 S 
ENDBRANCH   6  11
TORSDOF 1
ENDMDL
MODEL 3
REMARK VINA RESULT:      -6.1      2.462      3.396
REMARK  Name = 
REMARK  1 active torsions:
REMARK  status: ('A' for Active; 'I' for Inactive)
REMARK    1  A    between atoms: N_6  and  C_7
REMARK                            x       y       z     vdW  Elec       q    Type
REMARK                         _______ _______ _______ _____ _____    ______ ____
ROOT
ATOM      1  O   UNL     1       8.121   4.441  17.508  0.00  0.00    +0.000 OA
ATOM      2  C   UNL     1       6.932   4.495  17.788  0.00  0.00    +0.000 A 
ATOM      3  N   UNL     1       5.957   3.996  16.970  0.00  0.00    +0.000 N 
ATOM      4  C   UNL     1       4.604   4.170  17.117  0.00  0.00    +0.000 A 
ATOM      5  O   UNL     1       3.847   3.826  16.211  0.00  0.00    +0.000 OA
ATOM      6  N   UNL     1       4.180   4.777  18.306  0.00  0.00    +0.000 N 
ATOM      7  C   UNL     1       5.119   5.258  19.207  0.00  0.00    +0.000 A 
ATOM      8  C   UNL     1       6.431   5.137  19.010  0.00  0.00    +0.000 A 
ATOM      9  F   UNL     1       7.336   5.624  19.879  0.00  0.00    +0.000 F 
ATOM     10  H   UNL     1       6.265   3.585  16.103  0.00  0.00    +0.000 HD
ENDROOT
BRANCH   6  11
ATOM     11  C   UNL     1       2.717   4.983  18.456  0.00  0.00    +0.000 C 
ATOM     12  C   UNL     1       1.842   3.736  18.173  0.00  0.00    +0.000 C 
ATOM     13  S   UNL     1       2.085   2.352  19.340  0.00  0.00    +0.000 S 
ATOM     14  C   UNL     1       1.506   3.170  20.856  0.00  0.00    +0.000 C 
ATOM     15  C   UNL     1       2.302   4.419  21.202  0.00  0.00    +0.000 C 
ATOM     16  S   UNL     1       2.152   5.798  20.008  0.00  0.00    +0.000 S 
ENDBRANCH   6  11
TORSDOF 1
ENDMDL
MODEL 4
REMARK VINA RESULT:      -5.9      1.906      2.440
REMARK  Name = 
REMARK  1 active torsions:
REMARK  status: ('A' for Active; 'I' for Inactive)
REMARK    1  A    between atoms: N_6  and  C_7
REMARK                            x       y       z     vdW  Elec       q    Type
REMARK                         _______ _______ _______ _____ _____    ______ ____
ROOT
ATOM      1  O   UNL     1       7.418   5.554  15.105  0.00  0.00    +0.000 OA
ATOM      2  C   UNL     1       6.344   5.453  15.679  0.00  0.00    +0.000 A 
ATOM      3  N   UNL     1       5.676   6.530  16.192  0.00  0.00    +0.000 N 
ATOM      4  C   UNL     1       4.566   6.491  16.998  0.00  0.00    +0.000 A 
ATOM      5  O   UNL     1       4.174   7.522  17.541  0.00  0.00    +0.000 OA
ATOM      6  N   UNL     1       3.969   5.236  17.174  0.00  0.00    +0.000 N 
ATOM      7  C   UNL     1       4.566   4.107  16.633  0.00  0.00    +0.000 A 
ATOM      8  C   UNL     1       5.683   4.162  15.909  0.00  0.00    +0.000 A 
ATOM      9  F   UNL     1       6.267   3.060  15.404  0.00  0.00    +0.000 F 
ATOM     10  H   UNL     1       6.123   7.427  16.086  0.00  0.00    +0.000 HD
ENDROOT
BRANCH   6  11
ATOM     11  C   UNL     1       2.779   5.191  18.062  0.00  0.00    +0.000 C 
ATOM     12  C   UNL     1       1.712   4.135  17.684  0.00  0.00    +0.000 C 
ATOM     13  S   UNL     1       2.271   2.402  17.822  0.00  0.00    +0.000 S 
ATOM     14  C   UNL     1       2.566   2.353  19.614  0.00  0.00    +0.000 C 
ATOM     15  C   UNL     1       3.594   3.374  20.078  0.00  0.00    +0.000 C 
ATOM     16  S   UNL     1       3.103   5.125  19.875  0.00  0.00    +0.000 S 
ENDBRANCH   6  11
TORSDOF 1
ENDMDL
MODEL 5
REMARK VINA RESULT:      -5.9      2.511      3.009
REMARK  Name = 
REMARK  1 active torsions:
REMARK  status: ('A' for Active; 'I' for Inactive)
REMARK    1  A    between atoms: N_6  and  C_7
REMARK                            x       y       z     vdW  Elec       q    Type
REMARK                         _______ _______ _______ _____ _____    ______ ____
ROOT
ATOM      1  O   UNL     1       7.652   6.742  16.739  0.00  0.00    +0.000 OA
ATOM      2  C   UNL     1       6.556   6.346  17.107  0.00  0.00    +0.000 A 
ATOM      3  N   UNL     1       5.414   7.083  16.950  0.00  0.00    +0.000 N 
ATOM      4  C   UNL     1       4.183   6.800  17.488  0.00  0.00    +0.000 A 
ATOM      5  O   UNL     1       3.287   7.638  17.424  0.00  0.00    +0.000 OA
ATOM      6  N   UNL     1       4.050   5.555  18.117  0.00  0.00    +0.000 N 
ATOM      7  C   UNL     1       5.159   4.734  18.261  0.00  0.00    +0.000 A 
ATOM      8  C   UNL     1       6.362   5.061  17.790  0.00  0.00    +0.000 A 
ATOM      9  F   UNL     1       7.436   4.268  17.951  0.00  0.00    +0.000 F 
ATOM     10  H   UNL     1       5.519   7.988  16.522  0.00  0.00    +0.000 HD
ENDROOT
BRANCH   6  11
ATOM     11  C   UNL     1       2.723   5.258  18.715  0.00  0.00    +0.000 C 
ATOM     12  C   UNL     1       1.799   4.360  17.856  0.00  0.00    +0.000 C 
ATOM     13  S   UNL     1       2.413   2.660  17.595  0.00  0.00    +0.000 S 
ATOM     14  C   UNL     1       2.381   2.091  19.320  0.00  0.00    +0.000 C 
ATOM     15  C   UNL     1       3.253   2.930  20.242  0.00  0.00    +0.000 C 
ATOM     16  S   UNL     1       2.718   4.666  20.460  0.00  0.00    +0.000 S 
ENDBRANCH   6  11
TORSDOF 1
ENDMDL
MODEL 6
REMARK VINA RESULT:      -5.8      2.588      3.467
REMARK  Name = 
REMARK  1 active torsions:
REMARK  status: ('A' for Active; 'I' for Inactive)
REMARK    1  A    between atoms: N_6  and  C_7
REMARK                            x       y       z     vdW  Elec       q    Type
REMARK                         _______ _______ _______ _____ _____    ______ ____
ROOT
ATOM      1  O   UNL     1       8.469   7.543  18.469  0.00  0.00    +0.000 OA
ATOM      2  C   UNL     1       7.523   6.810  18.222  0.00  0.00    +0.000 A 
ATOM      3  N   UNL     1       6.756   6.947  17.097  0.00  0.00    +0.000 N 
ATOM      4  C   UNL     1       5.581   6.292  16.830  0.00  0.00    +0.000 A 
ATOM      5  O   UNL     1       4.897   6.642  15.870  0.00  0.00    +0.000 OA
ATOM      6  N   UNL     1       5.223   5.268  17.717  0.00  0.00    +0.000 N 
ATOM      7  C   UNL     1       5.990   5.040  18.850  0.00  0.00    +0.000 A 
ATOM      8  C   UNL     1       7.092   5.736  19.125  0.00  0.00    +0.000 A 
ATOM      9  F   UNL     1       7.819   5.521  20.236  0.00  0.00    +0.000 F 
ATOM     10  H   UNL     1       7.001   7.702  16.476  0.00  0.00    +0.000 HD
ENDROOT
BRANCH   6  11
ATOM     11  C   UNL     1       3.941   4.573  17.437  0.00  0.00    +0.000 C 
ATOM     12  C   UNL     1       3.935   3.053  17.736  0.00  0.00    +0.000 C 
ATOM     13  S   UNL     1       4.149   2.621  19.497  0.00  0.00    +0.000 S 
ATOM     14  C   UNL     1       2.628   3.373  20.148  0.00  0.00    +0.000 C 
ATOM     15  C   UNL     1       2.542   4.869  19.884  0.00  0.00    +0.000 C 
ATOM     16  S   UNL     1       2.415   5.346  18.122  0.00  0.00    +0.000 S 
ENDBRANCH   6  11
TORSDOF 1
ENDMDL
MODEL 7
REMARK VINA RESULT:      -5.8      3.123      4.905
REMARK  Name = 
REMARK  1 active torsions:
REMARK  status: ('A' for Active; 'I' for Inactive)
REMARK    1  A    between atoms: N_6  and  C_7
REMARK                            x       y       z     vdW  Elec       q    Type
REMARK                         _______ _______ _______ _____ _____    ______ ____
ROOT
ATOM      1  O   UNL     1       0.684   2.407  18.990  0.00  0.00    +0.000 OA
ATOM      2  C   UNL     1       1.754   2.927  18.706  0.00  0.00    +0.000 A 
ATOM      3  N   UNL     1       2.940   2.521  19.253  0.00  0.00    +0.000 N 
ATOM      4  C   UNL     1       4.151   3.156  19.130  0.00  0.00    +0.000 A 
ATOM      5  O   UNL     1       5.099   2.790  19.822  0.00  0.00    +0.000 OA
ATOM      6  N   UNL     1       4.206   4.224  18.226  0.00  0.00    +0.000 N 
ATOM      7  C   UNL     1       3.046   4.651  17.593  0.00  0.00    +0.000 A 
ATOM      8  C   UNL     1       1.866   4.061  17.781  0.00  0.00    +0.000 A 
ATOM      9  F   UNL     1       0.744   4.494  17.179  0.00  0.00    +0.000 F 
ATOM     10  H   UNL     1       2.892   1.771  19.923  0.00  0.00    +0.000 HD
ENDROOT
BRANCH   6  11
ATOM     11  C   UNL     1       5.511   4.921  18.108  0.00  0.00    +0.000 C 
ATOM     12  C   UNL     1       6.600   4.155  17.317  0.00  0.00    +0.000 C 
ATOM     13  S   UNL     1       6.222   3.898  15.549  0.00  0.00    +0.000 S 
ATOM     14  C   UNL     1       6.197   5.636  15.021  0.00  0.00    +0.000 C 
ATOM     15  C   UNL     1       5.163   6.470  15.760  0.00  0.00    +0.000 C 
ATOM     16  S   UNL     1       5.462   6.678  17.554  0.00  0.00    +0.000 S 
ENDBRANCH   6  11
TORSDOF 1
ENDMDL
MODEL 8
REMARK VINA RESULT:      -5.8      1.816      1.850
REMARK  Name = 
REMARK  1 active torsions:
REMARK  status: ('A' for Active; 'I' for Inactive)
REMARK    1  A    between atoms: N_6  and  C_7
REMARK                            x       y       z     vdW  Elec       q    Type
REMARK                         _______ _______ _______ _____ _____    ______ ____
ROOT
ATOM      1  O   UNL     1       7.134   7.788  16.765  0.00  0.00    +0.000 OA
ATOM      2  C   UNL     1       6.446   6.898  17.244  0.00  0.00    +0.000 A 
ATOM      3  N   UNL     1       6.699   6.348  18.470  0.00  0.00    +0.000 N 
ATOM      4  C   UNL     1       6.095   5.236  19.003  0.00  0.00    +0.000 A 
ATOM      5  O   UNL     1       6.544   4.739  20.033  0.00  0.00    +0.000 OA
ATOM      6  N   UNL     1       5.005   4.719  18.292  0.00  0.00    +0.000 N 
ATOM      7  C   UNL     1       4.660   5.267  17.064  0.00  0.00    +0.000 A 
ATOM      8  C   UNL     1       5.305   6.305  16.534  0.00  0.00    +0.000 A 
ATOM      9  F   UNL     1       4.977   6.818  15.334  0.00  0.00    +0.000 F 
ATOM     10  H   UNL     1       7.500   6.705  18.965  0.00  0.00    +0.000 HD
ENDROOT
BRANCH   6  11
ATOM     11  C   UNL     1       4.365   3.505  18.859  0.00  0.00    +0.000 C 
ATOM     12  C   UNL     1       3.719   3.690  20.254  0.00  0.00    +0.000 C 
ATOM     13  S   UNL     1       2.300   4.839  20.292  0.00  0.00    +0.000 S 
ATOM     14  C   UNL     1       1.168   3.910  19.217  0.00  0.00    +0.000 C 
ATOM     15  C   UNL     1       1.731   3.667  17.825  0.00  0.00    +0.000 C 
ATOM     16  S   UNL     1       3.208   2.588  17.755  0.00  0.00    +0.000 S 
ENDBRANCH   6  11
TORSDOF 1
ENDMDL
MODEL 9
REMARK VINA RESULT:      -5.7      1.553      1.586
REMARK  Name = 
REMARK  1 active torsions:
REMARK  status: ('A' for Active; 'I' for Inactive)
REMARK    1  A    between atoms: N_6  and  C_7
REMARK                            x       y       z     vdW  Elec       q    Type
REMARK                         _______ _______ _______ _____ _____    ______ ____
ROOT
ATOM      1  O   UNL     1       7.064   5.523  14.073  0.00  0.00    +0.000 OA
ATOM      2  C   UNL     1       6.344   5.329  15.041  0.00  0.00    +0.000 A 
ATOM      3  N   UNL     1       5.959   6.331  15.889  0.00  0.00    +0.000 N 
ATOM      4  C   UNL     1       5.308   6.177  17.087  0.00  0.00    +0.000 A 
ATOM      5  O   UNL     1       5.186   7.143  17.838  0.00  0.00    +0.000 OA
ATOM      6  N   UNL     1       4.852   4.888  17.387  0.00  0.00    +0.000 N 
ATOM      7  C   UNL     1       5.161   3.833  16.539  0.00  0.00    +0.000 A 
ATOM      8  C   UNL     1       5.854   3.996  15.413  0.00  0.00    +0.000 A 
ATOM      9  F   UNL     1       6.167   2.965  14.607  0.00  0.00    +0.000 F 
ATOM     10  H   UNL     1       6.313   7.252  15.685  0.00  0.00    +0.000 HD
ENDROOT
BRANCH   6  11
ATOM     11  C   UNL     1       4.164   4.719  18.692  0.00  0.00    +0.000 C 
ATOM     12  C   UNL     1       2.675   5.145  18.714  0.00  0.00    +0.000 C 
ATOM     13  S   UNL     1       1.579   4.145  17.650  0.00  0.00    +0.000 S 
ATOM     14  C   UNL     1       1.765   2.546  18.494  0.00  0.00    +0.000 C 
ATOM     15  C   UNL     1       3.205   2.057  18.533  0.00  0.00    +0.000 C 
ATOM     16  S   UNL     1       4.354   3.084  19.520  0.00  0.00    +0.000 S 
ENDBRANCH   6  11
TORSDOF 1
ENDMDL
