MODEL 1
REMARK VINA RESULT:      -7.3      0.000      0.000
REMARK  Name = 
REMARK  9 active torsions:
REMARK  status: ('A' for Active; 'I' for Inactive)
REMARK    1  A    between atoms: C_1  and  C_2
REMARK    2  A    between atoms: C_4  and  C_5
REMARK    3  A    between atoms: C_5  and  N_6
REMARK    4  A    between atoms: N_9  and  C_10
REMARK    5  A    between atoms: C_10  and  C_11
REMARK    6  A    between atoms: C_10  and  C_12
REMARK    7  A    between atoms: C_13  and  C_14
REMARK    8  A    between atoms: C_14  and  C_15
REMARK    9  A    between atoms: C_15  and  O_16
REMARK                            x       y       z     vdW  Elec       q    Type
REMARK                         _______ _______ _______ _____ _____    ______ ____
ROOT
ATOM      1  N   UNL     1       4.820   5.168  17.322  0.00  0.00    +0.000 NA
ATOM      2  C   UNL     1       4.182   6.269  18.065  0.00  0.00    +0.000 C 
ATOM      3  C   UNL     1       2.644   6.122  17.967  0.00  0.00    +0.000 C 
ATOM      4  N   UNL     1       2.108   4.817  18.475  0.00  0.00    +0.000 NA
ATOM      5  C   UNL     1       2.883   3.755  17.747  0.00  0.00    +0.000 C 
ATOM      6  C   UNL     1       4.428   3.886  17.916  0.00  0.00    +0.000 C 
ENDROOT
BRANCH   4   7
ATOM      7  C   UNL     1       2.099   4.783  19.963  0.00  0.00    +0.000 C 
ATOM      8  C   UNL     1       1.840   6.189  20.556  0.00  0.00    +0.000 C 
ATOM      9  C   UNL     1       1.026   3.874  20.579  0.00  0.00    +0.000 C 
ENDBRANCH   4   7
BRANCH   1  10
ATOM     10  C   UNL     1       6.241   5.334  17.072  0.00  0.00    +0.000 C 
BRANCH  10  14
ATOM     11  C   UNL     1       6.567   3.601  12.294  0.00  0.00    +0.000 C 
ATOM     12  C   UNL     1       6.695   4.382  13.543  0.00  0.00    +0.000 A 
ATOM     13  C   UNL     1       5.839   4.353  14.670  0.00  0.00    +0.000 A 
ATOM     14  C   UNL     1       6.481   5.118  15.617  0.00  0.00    +0.000 A 
ATOM     15  N   UNL     1       7.587   5.626  14.991  0.00  0.00    +0.000 N 
ATOM     16  N   UNL     1       7.739   5.191  13.730  0.00  0.00    +0.000 NA
ATOM     17  H   UNL     1       8.317   6.195  15.407  0.00  0.00    +0.000 HD
ENDBRANCH  10  14
ENDBRANCH   1  10
BRANCH   5  18
ATOM     18  C   UNL     1       2.440   2.286  17.848  0.00  0.00    +0.000 C 
BRANCH  18  19
ATOM     19  C   UNL     1       3.222   1.503  18.895  0.00  0.00    +0.000 C 
BRANCH  19  20
ATOM     20  O   UNL     1       4.110   0.601  18.242  0.00  0.00    +0.000 OA
ATOM     21  H   UNL     1       4.873   1.115  17.928  0.00  0.00    +0.000 HD
ENDBRANCH  19  20
ENDBRANCH  18  19
ENDBRANCH   5  18
TORSDOF 6
ENDMDL
MODEL 2
REMARK VINA RESULT:      -7.0      1.897      2.268
REMARK  Name = 
REMARK  9 active torsions:
REMARK  status: ('A' for Active; 'I' for Inactive)
REMARK    1  A    between atoms: C_1  and  C_2
REMARK    2  A    between atoms: C_4  and  C_5
REMARK    3  A    between atoms: C_5  and  N_6
REMARK    4  A    between atoms: N_9  and  C_10
REMARK    5  A    between atoms: C_10  and  C_11
REMARK    6  A    between atoms: C_10  and  C_12
REMARK    7  A    between atoms: C_13  and  C_14
REMARK    8  A    between atoms: C_14  and  C_15
REMARK    9  A    between atoms: C_15  and  O_16
REMARK                            x       y       z     vdW  Elec       q    Type
REMARK                         _______ _______ _______ _____ _____    ______ ____
ROOT
ATOM      1  N   UNL     1       4.865   4.939  18.222  0.00  0.00    +0.000 NA
ATOM      2  C   UNL     1       4.232   6.094  17.560  0.00  0.00    +0.000 C 
ATOM      3  C   UNL     1       2.695   5.991  17.725  0.00  0.00    +0.000 C 
ATOM      4  N   UNL     1       2.222   5.925  19.146  0.00  0.00    +0.000 NA
ATOM      5  C   UNL     1       2.992   4.797  19.772  0.00  0.00    +0.000 C 
ATOM      6  C   UNL     1       4.539   4.958  19.652  0.00  0.00    +0.000 C 
ENDROOT
BRANCH   4   7
ATOM      7  C   UNL     1       2.285   7.263  19.795  0.00  0.00    +0.000 C 
ATOM      8  C   UNL     1       2.005   8.395  18.778  0.00  0.00    +0.000 C 
ATOM      9  C   UNL     1       1.274   7.474  20.931  0.00  0.00    +0.000 C 
ENDBRANCH   4   7
BRANCH   1  10
ATOM     10  C   UNL     1       6.267   4.738  17.902  0.00  0.00    +0.000 C 
BRANCH  10  14
ATOM     11  C   UNL     1       6.436   3.705  12.917  0.00  0.00    +0.000 C 
ATOM     12  C   UNL     1       6.548   4.332  14.251  0.00  0.00    +0.000 A 
ATOM     13  C   UNL     1       5.814   4.013  15.419  0.00  0.00    +0.000 A 
ATOM     14  C   UNL     1       6.405   4.752  16.418  0.00  0.00    +0.000 A 
ATOM     15  N   UNL     1       7.352   5.521  15.795  0.00  0.00    +0.000 N 
ATOM     16  N   UNL     1       7.458   5.281  14.478  0.00  0.00    +0.000 NA
ATOM     17  H   UNL     1       8.014   6.151  16.236  0.00  0.00    +0.000 HD
ENDBRANCH  10  14
ENDBRANCH   1  10
BRANCH   5  18
ATOM     18  C   UNL     1       2.597   4.290  21.168  0.00  0.00    +0.000 C 
BRANCH  18  19
ATOM     19  C   UNL     1       1.448   3.290  21.132  0.00  0.00    +0.000 C 
BRANCH  19  20
ATOM     20  O   UNL     1       0.472   3.729  20.192  0.00  0.00    +0.000 OA
ATOM     21  H   UNL     1       0.370   3.029  19.526  0.00  0.00    +0.000 HD
ENDBRANCH  19  20
ENDBRANCH  18  19
ENDBRANCH   5  18
TORSDOF 6
ENDMDL
MODEL 3
REMARK VINA RESULT:      -7.0      1.087      1.173
REMARK  Name = 
REMARK  9 active torsions:
REMARK  status: ('A' for Active; 'I' for Inactive)
REMARK    1  A    between atoms: C_1  and  C_2
REMARK    2  A    between atoms: C_4  and  C_5
REMARK    3  A    between atoms: C_5  and  N_6
REMARK    4  A    between atoms: N_9  and  C_10
REMARK    5  A    between atoms: C_10  and  C_11
REMARK    6  A    between atoms: C_10  and  C_12
REMARK    7  A    between atoms: C_13  and  C_14
REMARK    8  A    between atoms: C_14  and  C_15
REMARK    9  A    between atoms: C_15  and  O_16
REMARK                            x       y       z     vdW  Elec       q    Type
REMARK                         _______ _______ _______ _____ _____    ______ ____
ROOT
ATOM      1  N   UNL     1       4.448   5.787  17.619  0.00  0.00    +0.000 NA
ATOM      2  C   UNL     1       3.247   6.471  18.129  0.00  0.00    +0.000 C 
ATOM      3  C   UNL     1       2.112   5.433  18.310  0.00  0.00    +0.000 C 
ATOM      4  N   UNL     1       2.448   4.292  19.223  0.00  0.00    +0.000 NA
ATOM      5  C   UNL     1       3.735   3.723  18.696  0.00  0.00    +0.000 C 
ATOM      6  C   UNL     1       4.882   4.775  18.587  0.00  0.00    +0.000 C 
ENDROOT
BRANCH   4   7
ATOM      7  C   UNL     1       2.401   4.715  20.650  0.00  0.00    +0.000 C 
ATOM      8  C   UNL     1       1.401   5.878  20.858  0.00  0.00    +0.000 C 
ATOM      9  C   UNL     1       1.964   3.618  21.630  0.00  0.00    +0.000 C 
ENDBRANCH   4   7
BRANCH   1  10
ATOM     10  C   UNL     1       5.492   6.665  17.121  0.00  0.00    +0.000 C 
BRANCH  10  14
ATOM     11  C   UNL     1       6.606   3.832  13.037  0.00  0.00    +0.000 C 
ATOM     12  C   UNL     1       6.629   4.799  14.155  0.00  0.00    +0.000 A 
ATOM     13  C   UNL     1       5.522   5.333  14.859  0.00  0.00    +0.000 A 
ATOM     14  C   UNL     1       6.077   6.038  15.901  0.00  0.00    +0.000 A 
ATOM     15  N   UNL     1       7.431   5.977  15.709  0.00  0.00    +0.000 N 
ATOM     16  N   UNL     1       7.790   5.227  14.654  0.00  0.00    +0.000 NA
ATOM     17  H   UNL     1       8.152   6.347  16.318  0.00  0.00    +0.000 HD
ENDBRANCH  10  14
ENDBRANCH   1  10
BRANCH   5  18
ATOM     18  C   UNL     1       4.261   2.390  19.251  0.00  0.00    +0.000 C 
BRANCH  18  19
ATOM     19  C   UNL     1       3.543   1.180  18.666  0.00  0.00    +0.000 C 
BRANCH  19  20
ATOM     20  O   UNL     1       2.448   1.623  17.870  0.00  0.00    +0.000 OA
ATOM     21  H   UNL     1       2.227   0.907  17.250  0.00  0.00    +0.000 HD
ENDBRANCH  19  20
ENDBRANCH  18  19
ENDBRANCH   5  18
TORSDOF 6
ENDMDL
MODEL 4
REMARK VINA RESULT:      -6.9      1.612      1.764
REMARK  Name = 
REMARK  9 active torsions:
REMARK  status: ('A' for Active; 'I' for Inactive)
REMARK    1  A    between atoms: C_1  and  C_2
REMARK    2  A    between atoms: C_4  and  C_5
REMARK    3  A    between atoms: C_5  and  N_6
REMARK    4  A    between atoms: N_9  and  C_10
REMARK    5  A    between atoms: C_10  and  C_11
REMARK    6  A    between atoms: C_10  and  C_12
REMARK    7  A    between atoms: C_13  and  C_14
REMARK    8  A    between atoms: C_14  and  C_15
REMARK    9  A    between atoms: C_15  and  O_16
REMARK                            x       y       z     vdW  Elec       q    Type
REMARK                         _______ _______ _______ _____ _____    ______ ____
ROOT
ATOM      1  N   UNL     1       5.280   4.406  17.717  0.00  0.00    +0.000 NA
ATOM      2  C   UNL     1       4.482   5.593  17.362  0.00  0.00    +0.000 C 
ATOM      3  C   UNL     1       2.980   5.271  17.561  0.00  0.00    +0.000 C 
ATOM      4  N   UNL     1       2.613   4.833  18.947  0.00  0.00    +0.000 NA
ATOM      5  C   UNL     1       3.541   3.696  19.267  0.00  0.00    +0.000 C 
ATOM      6  C   UNL     1       5.050   4.065  19.124  0.00  0.00    +0.000 C 
ENDROOT
BRANCH   4   7
ATOM      7  C   UNL     1       2.573   5.991  19.882  0.00  0.00    +0.000 C 
ATOM      8  C   UNL     1       2.378   7.323  19.120  0.00  0.00    +0.000 C 
ATOM      9  C   UNL     1       1.440   5.941  20.917  0.00  0.00    +0.000 C 
ENDBRANCH   4   7
BRANCH   1  10
ATOM     10  C   UNL     1       6.671   4.452  17.302  0.00  0.00    +0.000 C 
BRANCH  10  14
ATOM     11  C   UNL     1       6.607   3.708  12.264  0.00  0.00    +0.000 C 
ATOM     12  C   UNL     1       6.741   4.272  13.623  0.00  0.00    +0.000 A 
ATOM     13  C   UNL     1       6.129   3.812  14.814  0.00  0.00    +0.000 A 
ATOM     14  C   UNL     1       6.704   4.559  15.816  0.00  0.00    +0.000 A 
ATOM     15  N   UNL     1       7.517   5.461  15.182  0.00  0.00    +0.000 N 
ATOM     16  N   UNL     1       7.557   5.304  13.849  0.00  0.00    +0.000 NA
ATOM     17  H   UNL     1       8.135   6.137  15.617  0.00  0.00    +0.000 HD
ENDBRANCH  10  14
ENDBRANCH   1  10
BRANCH   5  18
ATOM     18  C   UNL     1       3.298   2.847  20.525  0.00  0.00    +0.000 C 
BRANCH  18  19
ATOM     19  C   UNL     1       1.849   2.399  20.666  0.00  0.00    +0.000 C 
BRANCH  19  20
ATOM     20  O   UNL     1       1.449   2.520  22.027  0.00  0.00    +0.000 OA
ATOM     21  H   UNL     1       0.983   3.367  22.123  0.00  0.00    +0.000 HD
ENDBRANCH  19  20
ENDBRANCH  18  19
ENDBRANCH   5  18
TORSDOF 6
ENDMDL
MODEL 5
REMARK VINA RESULT:      -6.6      1.058      1.255
REMARK  Name = 
REMARK  9 active torsions:
REMARK  status: ('A' for Active; 'I' for Inactive)
REMARK    1  A    between atoms: C_1  and  C_2
REMARK    2  A    between atoms: C_4  and  C_5
REMARK    3  A    between atoms: C_5  and  N_6
REMARK    4  A    between atoms: N_9  and  C_10
REMARK    5  A    between atoms: C_10  and  C_11
REMARK    6  A    between atoms: C_10  and  C_12
REMARK    7  A    between atoms: C_13  and  C_14
REMARK    8  A    between atoms: C_14  and  C_15
REMARK    9  A    between atoms: C_15  and  O_16
REMARK                            x       y       z     vdW  Elec       q    Type
REMARK                         _______ _______ _______ _____ _____    ______ ____
ROOT
ATOM      1  N   UNL     1       4.929   5.396  17.295  0.00  0.00    +0.000 NA
ATOM      2  C   UNL     1       4.843   6.768  17.826  0.00  0.00    +0.000 C 
ATOM      3  C   UNL     1       3.384   7.270  17.696  0.00  0.00    +0.000 C 
ATOM      4  N   UNL     1       2.363   6.415  18.386  0.00  0.00    +0.000 NA
ATOM      5  C   UNL     1       2.592   5.023  17.869  0.00  0.00    +0.000 C 
ATOM      6  C   UNL     1       4.052   4.515  18.073  0.00  0.00    +0.000 C 
ENDROOT
BRANCH   4   7
ATOM      7  C   UNL     1       2.392   6.630  19.859  0.00  0.00    +0.000 C 
ATOM      8  C   UNL     1       1.797   8.007  20.238  0.00  0.00    +0.000 C 
ATOM      9  C   UNL     1       1.596   5.600  20.673  0.00  0.00    +0.000 C 
ENDBRANCH   4   7
BRANCH   1  10
ATOM     10  C   UNL     1       6.278   4.904  17.077  0.00  0.00    +0.000 C 
BRANCH  10  14
ATOM     11  C   UNL     1       6.728   3.690  12.151  0.00  0.00    +0.000 C 
ATOM     12  C   UNL     1       6.783   4.356  13.469  0.00  0.00    +0.000 A 
ATOM     13  C   UNL     1       5.955   4.117  14.592  0.00  0.00    +0.000 A 
ATOM     14  C   UNL     1       6.518   4.858  15.606  0.00  0.00    +0.000 A 
ATOM     15  N   UNL     1       7.546   5.553  15.028  0.00  0.00    +0.000 N 
ATOM     16  N   UNL     1       7.728   5.262  13.729  0.00  0.00    +0.000 NA
ATOM     17  H   UNL     1       8.210   6.162  15.493  0.00  0.00    +0.000 HD
ENDBRANCH  10  14
ENDBRANCH   1  10
BRANCH   5  18
ATOM     18  C   UNL     1       1.574   3.917  18.187  0.00  0.00    +0.000 C 
BRANCH  18  19
ATOM     19  C   UNL     1       2.234   2.595  18.561  0.00  0.00    +0.000 C 
BRANCH  19  20
ATOM     20  O   UNL     1       2.072   1.669  17.491  0.00  0.00    +0.000 OA
ATOM     21  H   UNL     1       2.242   2.144  16.661  0.00  0.00    +0.000 HD
ENDBRANCH  19  20
ENDBRANCH  18  19
ENDBRANCH   5  18
TORSDOF 6
ENDMDL
MODEL 6
REMARK VINA RESULT:      -6.6      2.241      3.322
REMARK  Name = 
REMARK  9 active torsions:
REMARK  status: ('A' for Active; 'I' for Inactive)
REMARK    1  A    between atoms: C_1  and  C_2
REMARK    2  A    between atoms: C_4  and  C_5
REMARK    3  A    between atoms: C_5  and  N_6
REMARK    4  A    between atoms: N_9  and  C_10
REMARK    5  A    between atoms: C_10  and  C_11
REMARK    6  A    between atoms: C_10  and  C_12
REMARK    7  A    between atoms: C_13  and  C_14
REMARK    8  A    between atoms: C_14  and  C_15
REMARK    9  A    between atoms: C_15  and  O_16
REMARK                            x       y       z     vdW  Elec       q    Type
REMARK                         _______ _______ _______ _____ _____    ______ ____
ROOT
ATOM      1  N   UNL     1       5.099   5.796  18.458  0.00  0.00    +0.000 NA
ATOM      2  C   UNL     1       5.257   4.377  18.093  0.00  0.00    +0.000 C 
ATOM      3  C   UNL     1       4.706   3.496  19.241  0.00  0.00    +0.000 C 
ATOM      4  N   UNL     1       3.272   3.752  19.594  0.00  0.00    +0.000 NA
ATOM      5  C   UNL     1       3.178   5.230  19.844  0.00  0.00    +0.000 C 
ATOM      6  C   UNL     1       3.676   6.096  18.646  0.00  0.00    +0.000 C 
ENDROOT
BRANCH   4   7
ATOM      7  C   UNL     1       2.356   3.152  18.584  0.00  0.00    +0.000 C 
ATOM      8  C   UNL     1       2.985   1.897  17.931  0.00  0.00    +0.000 C 
ATOM      9  C   UNL     1       1.002   2.690  19.140  0.00  0.00    +0.000 C 
ENDBRANCH   4   7
BRANCH   1  10
ATOM     10  C   UNL     1       5.831   6.732  17.622  0.00  0.00    +0.000 C 
BRANCH  10  14
ATOM     11  C   UNL     1       5.969   3.818  13.447  0.00  0.00    +0.000 C 
ATOM     12  C   UNL     1       6.276   4.767  14.539  0.00  0.00    +0.000 A 
ATOM     13  C   UNL     1       5.359   5.422  15.397  0.00  0.00    +0.000 A 
ATOM     14  C   UNL     1       6.145   6.050  16.335  0.00  0.00    +0.000 A 
ATOM     15  N   UNL     1       7.438   5.831  15.939  0.00  0.00    +0.000 N 
ATOM     16  N   UNL     1       7.542   5.052  14.850  0.00  0.00    +0.000 NA
ATOM     17  H   UNL     1       8.282   6.110  16.427  0.00  0.00    +0.000 HD
ENDBRANCH  10  14
ENDBRANCH   1  10
BRANCH   5  18
ATOM     18  C   UNL     1       1.897   5.819  20.455  0.00  0.00    +0.000 C 
BRANCH  18  19
ATOM     19  C   UNL     1       1.772   7.321  20.234  0.00  0.00    +0.000 C 
BRANCH  19  20
ATOM     20  O   UNL     1       1.705   7.979  21.496  0.00  0.00    +0.000 OA
ATOM     21  H   UNL     1       1.287   8.844  21.354  0.00  0.00    +0.000 HD
ENDBRANCH  19  20
ENDBRANCH  18  19
ENDBRANCH   5  18
TORSDOF 6
ENDMDL
MODEL 7
REMARK VINA RESULT:      -6.6      1.483      1.720
REMARK  Name = 
REMARK  9 active torsions:
REMARK  status: ('A' for Active; 'I' for Inactive)
REMARK    1  A    between atoms: C_1  and  C_2
REMARK    2  A    between atoms: C_4  and  C_5
REMARK    3  A    between atoms: C_5  and  N_6
REMARK    4  A    between atoms: N_9  and  C_10
REMARK    5  A    between atoms: C_10  and  C_11
REMARK    6  A    between atoms: C_10  and  C_12
REMARK    7  A    between atoms: C_13  and  C_14
REMARK    8  A    between atoms: C_14  and  C_15
REMARK    9  A    between atoms: C_15  and  O_16
REMARK                            x       y       z     vdW  Elec       q    Type
REMARK                         _______ _______ _______ _____ _____    ______ ____
ROOT
ATOM      1  N   UNL     1       4.615   4.757  17.861  0.00  0.00    +0.000 NA
ATOM      2  C   UNL     1       3.275   5.344  18.035  0.00  0.00    +0.000 C 
ATOM      3  C   UNL     1       2.228   4.204  18.092  0.00  0.00    +0.000 C 
ATOM      4  N   UNL     1       2.461   3.194  19.175  0.00  0.00    +0.000 NA
ATOM      5  C   UNL     1       3.878   2.729  18.990  0.00  0.00    +0.000 C 
ATOM      6  C   UNL     1       4.920   3.889  19.003  0.00  0.00    +0.000 C 
ENDROOT
BRANCH   4   7
ATOM      7  C   UNL     1       2.068   3.733  20.506  0.00  0.00    +0.000 C 
ATOM      8  C   UNL     1       0.833   4.659  20.394  0.00  0.00    +0.000 C 
ATOM      9  C   UNL     1       1.689   2.668  21.544  0.00  0.00    +0.000 C 
ENDBRANCH   4   7
BRANCH   1  10
ATOM     10  C   UNL     1       5.658   5.700  17.495  0.00  0.00    +0.000 C 
BRANCH  10  14
ATOM     11  C   UNL     1       6.455   3.760  12.853  0.00  0.00    +0.000 C 
ATOM     12  C   UNL     1       6.493   4.569  14.089  0.00  0.00    +0.000 A 
ATOM     13  C   UNL     1       5.489   4.677  15.082  0.00  0.00    +0.000 A 
ATOM     14  C   UNL     1       6.074   5.403  16.095  0.00  0.00    +0.000 A 
ATOM     15  N   UNL     1       7.308   5.763  15.624  0.00  0.00    +0.000 N 
ATOM     16  N   UNL     1       7.586   5.266  14.408  0.00  0.00    +0.000 NA
ATOM     17  H   UNL     1       8.031   6.264  16.128  0.00  0.00    +0.000 HD
ENDBRANCH  10  14
ENDBRANCH   1  10
BRANCH   5  18
ATOM     18  C   UNL     1       4.391   1.517  19.784  0.00  0.00    +0.000 C 
BRANCH  18  19
ATOM     19  C   UNL     1       5.330   1.909  20.918  0.00  0.00    +0.000 C 
BRANCH  19  20
ATOM     20  O   UNL     1       5.673   0.748  21.669  0.00  0.00    +0.000 OA
ATOM     21  H   UNL     1       6.380   0.286  21.189  0.00  0.00    +0.000 HD
ENDBRANCH  19  20
ENDBRANCH  18  19
ENDBRANCH   5  18
TORSDOF 6
ENDMDL
MODEL 8
REMARK VINA RESULT:      -6.5      1.191      1.352
REMARK  Name = 
REMARK  9 active torsions:
REMARK  status: ('A' for Active; 'I' for Inactive)
REMARK    1  A    between atoms: C_1  and  C_2
REMARK    2  A    between atoms: C_4  and  C_5
REMARK    3  A    between atoms: C_5  and  N_6
REMARK    4  A    between atoms: N_9  and  C_10
REMARK    5  A    between atoms: C_10  and  C_11
REMARK    6  A    between atoms: C_10  and  C_12
REMARK    7  A    between atoms: C_13  and  C_14
REMARK    8  A    between atoms: C_14  and  C_15
REMARK    9  A    between atoms: C_15  and  O_16
REMARK                            x       y       z     vdW  Elec       q    Type
REMARK                         _______ _______ _______ _____ _____    ______ ____
ROOT
ATOM      1  N   UNL     1       5.404   4.467  17.652  0.00  0.00    +0.000 NA
ATOM      2  C   UNL     1       4.551   5.635  17.367  0.00  0.00    +0.000 C 
ATOM      3  C   UNL     1       3.067   5.232  17.547  0.00  0.00    +0.000 C 
ATOM      4  N   UNL     1       2.724   4.698  18.905  0.00  0.00    +0.000 NA
ATOM      5  C   UNL     1       3.705   3.588  19.158  0.00  0.00    +0.000 C 
ATOM      6  C   UNL     1       5.194   4.035  19.037  0.00  0.00    +0.000 C 
ENDROOT
BRANCH   4   7
ATOM      7  C   UNL     1       2.633   5.796  19.906  0.00  0.00    +0.000 C 
ATOM      8  C   UNL     1       2.362   7.158  19.224  0.00  0.00    +0.000 C 
ATOM      9  C   UNL     1       1.514   5.627  20.944  0.00  0.00    +0.000 C 
ENDBRANCH   4   7
BRANCH   1  10
ATOM     10  C   UNL     1       6.791   4.603  17.241  0.00  0.00    +0.000 C 
BRANCH  10  14
ATOM     11  C   UNL     1       6.719   3.768  12.217  0.00  0.00    +0.000 C 
ATOM     12  C   UNL     1       6.857   4.357  13.566  0.00  0.00    +0.000 A 
ATOM     13  C   UNL     1       6.244   3.920  14.765  0.00  0.00    +0.000 A 
ATOM     14  C   UNL     1       6.823   4.683  15.753  0.00  0.00    +0.000 A 
ATOM     15  N   UNL     1       7.638   5.570  15.102  0.00  0.00    +0.000 N 
ATOM     16  N   UNL     1       7.677   5.389  13.772  0.00  0.00    +0.000 NA
ATOM     17  H   UNL     1       8.259   6.251  15.524  0.00  0.00    +0.000 HD
ENDBRANCH  10  14
ENDBRANCH   1  10
BRANCH   5  18
ATOM     18  C   UNL     1       3.505   2.656  20.364  0.00  0.00    +0.000 C 
BRANCH  18  19
ATOM     19  C   UNL     1       4.778   1.919  20.758  0.00  0.00    +0.000 C 
BRANCH  19  20
ATOM     20  O   UNL     1       5.097   0.959  19.755  0.00  0.00    +0.000 OA
ATOM     21  H   UNL     1       4.330   0.371  19.657  0.00  0.00    +0.000 HD
ENDBRANCH  19  20
ENDBRANCH  18  19
ENDBRANCH   5  18
TORSDOF 6
ENDMDL
MODEL 9
REMARK VINA RESULT:      -6.5      2.005      3.089
REMARK  Name = 
REMARK  9 active torsions:
REMARK  status: ('A' for Active; 'I' for Inactive)
REMARK    1  A    between atoms: C_1  and  C_2
REMARK    2  A    between atoms: C_4  and  C_5
REMARK    3  A    between atoms: C_5  and  N_6
REMARK    4  A    between atoms: N_9  and  C_10
REMARK    5  A    between atoms: C_10  and  C_11
REMARK    6  A    between atoms: C_10  and  C_12
REMARK    7  A    between atoms: C_13  and  C_14
REMARK    8  A    between atoms: C_14  and  C_15
REMARK    9  A    between atoms: C_15  and  O_16
REMARK                            x       y       z     vdW  Elec       q    Type
REMARK                         _______ _______ _______ _____ _____    ______ ____
ROOT
ATOM      1  N   UNL     1       5.676   4.726  18.472  0.00  0.00    +0.000 NA
ATOM      2  C   UNL     1       5.158   3.397  18.843  0.00  0.00    +0.000 C 
ATOM      3  C   UNL     1       3.933   3.573  19.774  0.00  0.00    +0.000 C 
ATOM      4  N   UNL     1       2.816   4.386  19.190  0.00  0.00    +0.000 NA
ATOM      5  C   UNL     1       3.448   5.673  18.742  0.00  0.00    +0.000 C 
ATOM      6  C   UNL     1       4.637   5.471  17.753  0.00  0.00    +0.000 C 
ENDROOT
BRANCH   4   7
ATOM      7  C   UNL     1       2.046   3.597  18.189  0.00  0.00    +0.000 C 
ATOM      8  C   UNL     1       2.792   2.298  17.802  0.00  0.00    +0.000 C 
ATOM      9  C   UNL     1       0.655   3.147  18.658  0.00  0.00    +0.000 C 
ENDBRANCH   4   7
BRANCH   1  10
ATOM     10  C   UNL     1       6.989   4.724  17.852  0.00  0.00    +0.000 C 
BRANCH  10  14
ATOM     11  C   UNL     1       6.216   3.610  12.942  0.00  0.00    +0.000 C 
ATOM     12  C   UNL     1       6.525   4.277  14.225  0.00  0.00    +0.000 A 
ATOM     13  C   UNL     1       6.115   3.885  15.522  0.00  0.00    +0.000 A 
ATOM     14  C   UNL     1       6.799   4.723  16.374  0.00  0.00    +0.000 A 
ATOM     15  N   UNL     1       7.470   5.601  15.566  0.00  0.00    +0.000 N 
ATOM     16  N   UNL     1       7.320   5.348  14.256  0.00  0.00    +0.000 NA
ATOM     17  H   UNL     1       8.115   6.327  15.856  0.00  0.00    +0.000 HD
ENDBRANCH  10  14
ENDBRANCH   1  10
BRANCH   5  18
ATOM     18  C   UNL     1       2.558   6.845  18.302  0.00  0.00    +0.000 C 
BRANCH  18  19
ATOM     19  C   UNL     1       2.109   7.718  19.467  0.00  0.00    +0.000 C 
BRANCH  19  20
ATOM     20  O   UNL     1       2.024   6.923  20.646  0.00  0.00    +0.000 OA
ATOM     21  H   UNL     1       2.741   7.200  21.240  0.00  0.00    +0.000 HD
ENDBRANCH  19  20
ENDBRANCH  18  19
ENDBRANCH   5  18
TORSDOF 6
ENDMDL
