MODEL 1
REMARK VINA RESULT:      -7.3      0.000      0.000
REMARK  Name = 
REMARK  8 active torsions:
REMARK  status: ('A' for Active; 'I' for Inactive)
REMARK    1  A    between atoms: C_1  and  C_2
REMARK    2  A    between atoms: C_5  and  O_6
REMARK    3  A    between atoms: O_6  and  C_7
REMARK    4  A    between atoms: C_13  and  C_14
REMARK    5  A    between atoms: C_14  and  N_15
REMARK    6  A    between atoms: N_15  and  C_16
REMARK    7  A    between atoms: N_15  and  C_17
REMARK    8  A    between atoms: C_18  and  N_19
REMARK                            x       y       z     vdW  Elec       q    Type
REMARK                         _______ _______ _______ _____ _____    ______ ____
ROOT
ATOM      1  O   UNL     1       2.881   6.625  19.667  0.00  0.00    +0.000 OA
ENDROOT
BRANCH   1   6
ATOM      2  C   UNL     1      -0.288  11.217  18.551  0.00  0.00    +0.000 C 
ATOM      3  C   UNL     1       0.579  10.023  18.824  0.00  0.00    +0.000 A 
ATOM      4  C   UNL     1       1.228   9.355  17.782  0.00  0.00    +0.000 A 
ATOM      5  C   UNL     1       2.034   8.250  18.054  0.00  0.00    +0.000 A 
ATOM      6  C   UNL     1       2.139   7.756  19.364  0.00  0.00    +0.000 A 
ATOM      7  C   UNL     1       1.490   8.408  20.424  0.00  0.00    +0.000 A 
ATOM      8  C   UNL     1       0.750   9.568  20.141  0.00  0.00    +0.000 A 
BRANCH   7   9
ATOM      9  N   UNL     1       1.733   8.055  21.764  0.00  0.00    +0.000 N 
ATOM     10  H   UNL     1       0.902   8.166  22.340  0.00  0.00    +0.000 HD
ATOM     11  H   UNL     1       2.556   8.493  22.161  0.00  0.00    +0.000 HD
ENDBRANCH   7   9
ENDBRANCH   1   6
BRANCH   1  12
ATOM     12  C   UNL     1       2.315   5.381  19.451  0.00  0.00    +0.000 A 
ATOM     13  C   UNL     1       1.378   4.824  20.339  0.00  0.00    +0.000 A 
ATOM     14  C   UNL     1       0.770   3.602  20.055  0.00  0.00    +0.000 A 
ATOM     15  C   UNL     1       1.141   2.907  18.915  0.00  0.00    +0.000 A 
ATOM     16  F   UNL     1       0.552   1.737  18.636  0.00  0.00    +0.000 F 
ATOM     17  C   UNL     1       2.120   3.406  18.063  0.00  0.00    +0.000 A 
ATOM     18  C   UNL     1       2.726   4.653  18.318  0.00  0.00    +0.000 A 
BRANCH  18  19
ATOM     19  C   UNL     1       3.804   5.146  17.369  0.00  0.00    +0.000 C 
BRANCH  19  20
ATOM     20  N   UNL     1       4.996   4.278  17.346  0.00  0.00    +0.000 NA
ATOM     21  C   UNL     1       5.694   4.363  16.060  0.00  0.00    +0.000 C 
ATOM     22  C   UNL     1       5.917   4.648  18.424  0.00  0.00    +0.000 C 
ENDBRANCH  19  20
ENDBRANCH  18  19
ENDBRANCH   1  12
TORSDOF 5
ENDMDL
MODEL 2
REMARK VINA RESULT:      -7.0      2.058      5.731
REMARK  Name = 
REMARK  8 active torsions:
REMARK  status: ('A' for Active; 'I' for Inactive)
REMARK    1  A    between atoms: C_1  and  C_2
REMARK    2  A    between atoms: C_5  and  O_6
REMARK    3  A    between atoms: O_6  and  C_7
REMARK    4  A    between atoms: C_13  and  C_14
REMARK    5  A    between atoms: C_14  and  N_15
REMARK    6  A    between atoms: N_15  and  C_16
REMARK    7  A    between atoms: N_15  and  C_17
REMARK    8  A    between atoms: C_18  and  N_19
REMARK                            x       y       z     vdW  Elec       q    Type
REMARK                         _______ _______ _______ _____ _____    ______ ____
ROOT
ATOM      1  O   UNL     1       5.218   4.034  18.499  0.00  0.00    +0.000 OA
ENDROOT
BRANCH   1   6
ATOM      2  C   UNL     1       7.313   5.060  13.309  0.00  0.00    +0.000 C 
ATOM      3  C   UNL     1       6.743   4.755  14.664  0.00  0.00    +0.000 A 
ATOM      4  C   UNL     1       5.380   4.491  14.824  0.00  0.00    +0.000 A 
ATOM      5  C   UNL     1       4.868   4.204  16.090  0.00  0.00    +0.000 A 
ATOM      6  C   UNL     1       5.701   4.253  17.218  0.00  0.00    +0.000 A 
ATOM      7  C   UNL     1       7.071   4.523  17.080  0.00  0.00    +0.000 A 
ATOM      8  C   UNL     1       7.584   4.728  15.788  0.00  0.00    +0.000 A 
BRANCH   7   9
ATOM      9  N   UNL     1       7.961   4.387  18.160  0.00  0.00    +0.000 N 
ATOM     10  H   UNL     1       8.807   4.935  18.024  0.00  0.00    +0.000 HD
ATOM     11  H   UNL     1       8.146   3.425  18.422  0.00  0.00    +0.000 HD
ENDBRANCH   7   9
ENDBRANCH   1   6
BRANCH   1  12
ATOM     12  C   UNL     1       3.905   3.626  18.654  0.00  0.00    +0.000 A 
ATOM     13  C   UNL     1       3.481   2.331  18.306  0.00  0.00    +0.000 A 
ATOM     14  C   UNL     1       2.168   1.927  18.544  0.00  0.00    +0.000 A 
ATOM     15  C   UNL     1       1.263   2.833  19.073  0.00  0.00    +0.000 A 
ATOM     16  F   UNL     1       0.004   2.444  19.309  0.00  0.00    +0.000 F 
ATOM     17  C   UNL     1       1.644   4.140  19.353  0.00  0.00    +0.000 A 
ATOM     18  C   UNL     1       2.974   4.560  19.147  0.00  0.00    +0.000 A 
BRANCH  18  19
ATOM     19  C   UNL     1       3.338   6.002  19.450  0.00  0.00    +0.000 C 
BRANCH  19  20
ATOM     20  N   UNL     1       2.305   6.963  19.016  0.00  0.00    +0.000 NA
ATOM     21  C   UNL     1       1.874   7.821  20.124  0.00  0.00    +0.000 C 
ATOM     22  C   UNL     1       2.813   7.797  17.923  0.00  0.00    +0.000 C 
ENDBRANCH  19  20
ENDBRANCH  18  19
ENDBRANCH   1  12
TORSDOF 5
ENDMDL
MODEL 3
REMARK VINA RESULT:      -7.0      1.056      1.217
REMARK  Name = 
REMARK  8 active torsions:
REMARK  status: ('A' for Active; 'I' for Inactive)
REMARK    1  A    between atoms: C_1  and  C_2
REMARK    2  A    between atoms: C_5  and  O_6
REMARK    3  A    between atoms: O_6  and  C_7
REMARK    4  A    between atoms: C_13  and  C_14
REMARK    5  A    between atoms: C_14  and  N_15
REMARK    6  A    between atoms: N_15  and  C_16
REMARK    7  A    between atoms: N_15  and  C_17
REMARK    8  A    between atoms: C_18  and  N_19
REMARK                            x       y       z     vdW  Elec       q    Type
REMARK                         _______ _______ _______ _____ _____    ______ ____
ROOT
ATOM      1  O   UNL     1       3.120   6.742  19.571  0.00  0.00    +0.000 OA
ENDROOT
BRANCH   1   6
ATOM      2  C   UNL     1      -0.566  10.926  18.436  0.00  0.00    +0.000 C 
ATOM      3  C   UNL     1       0.436   9.844  18.716  0.00  0.00    +0.000 A 
ATOM      4  C   UNL     1       1.189   9.281  17.682  0.00  0.00    +0.000 A 
ATOM      5  C   UNL     1       2.119   8.279  17.961  0.00  0.00    +0.000 A 
ATOM      6  C   UNL     1       2.251   7.778  19.265  0.00  0.00    +0.000 A 
ATOM      7  C   UNL     1       1.499   8.324  20.316  0.00  0.00    +0.000 A 
ATOM      8  C   UNL     1       0.627   9.389  20.031  0.00  0.00    +0.000 A 
BRANCH   7   9
ATOM      9  N   UNL     1       1.748   7.980  21.657  0.00  0.00    +0.000 N 
ATOM     10  H   UNL     1       2.744   7.895  21.846  0.00  0.00    +0.000 HD
ATOM     11  H   UNL     1       1.210   7.186  21.984  0.00  0.00    +0.000 HD
ENDBRANCH   7   9
ENDBRANCH   1   6
BRANCH   1  12
ATOM     12  C   UNL     1       2.899   5.500  19.003  0.00  0.00    +0.000 A 
ATOM     13  C   UNL     1       1.749   4.742  19.290  0.00  0.00    +0.000 A 
ATOM     14  C   UNL     1       1.521   3.528  18.644  0.00  0.00    +0.000 A 
ATOM     15  C   UNL     1       2.468   3.041  17.757  0.00  0.00    +0.000 A 
ATOM     16  F   UNL     1       2.246   1.879  17.131  0.00  0.00    +0.000 F 
ATOM     17  C   UNL     1       3.646   3.739  17.519  0.00  0.00    +0.000 A 
ATOM     18  C   UNL     1       3.883   4.982  18.139  0.00  0.00    +0.000 A 
BRANCH  18  19
ATOM     19  C   UNL     1       5.193   5.697  17.861  0.00  0.00    +0.000 C 
BRANCH  19  20
ATOM     20  N   UNL     1       6.377   4.908  18.251  0.00  0.00    +0.000 NA
ATOM     21  C   UNL     1       7.234   4.624  17.095  0.00  0.00    +0.000 C 
ATOM     22  C   UNL     1       7.153   5.622  19.268  0.00  0.00    +0.000 C 
ENDBRANCH  19  20
ENDBRANCH  18  19
ENDBRANCH   1  12
TORSDOF 5
ENDMDL
MODEL 4
REMARK VINA RESULT:      -6.8      2.749      6.193
REMARK  Name = 
REMARK  8 active torsions:
REMARK  status: ('A' for Active; 'I' for Inactive)
REMARK    1  A    between atoms: C_1  and  C_2
REMARK    2  A    between atoms: C_5  and  O_6
REMARK    3  A    between atoms: O_6  and  C_7
REMARK    4  A    between atoms: C_13  and  C_14
REMARK    5  A    between atoms: C_14  and  N_15
REMARK    6  A    between atoms: N_15  and  C_16
REMARK    7  A    between atoms: N_15  and  C_17
REMARK    8  A    between atoms: C_18  and  N_19
REMARK                            x       y       z     vdW  Elec       q    Type
REMARK                         _______ _______ _______ _____ _____    ______ ____
ROOT
ATOM      1  O   UNL     1       4.553   4.325  17.917  0.00  0.00    +0.000 OA
ENDROOT
BRANCH   1   6
ATOM      2  C   UNL     1       7.708   4.941  13.222  0.00  0.00    +0.000 C 
ATOM      3  C   UNL     1       6.859   4.745  14.444  0.00  0.00    +0.000 A 
ATOM      4  C   UNL     1       5.475   4.586  14.336  0.00  0.00    +0.000 A 
ATOM      5  C   UNL     1       4.701   4.399  15.483  0.00  0.00    +0.000 A 
ATOM      6  C   UNL     1       5.296   4.446  16.753  0.00  0.00    +0.000 A 
ATOM      7  C   UNL     1       6.683   4.612  16.884  0.00  0.00    +0.000 A 
ATOM      8  C   UNL     1       7.456   4.716  15.715  0.00  0.00    +0.000 A 
BRANCH   7   9
ATOM      9  N   UNL     1       7.328   4.469  18.125  0.00  0.00    +0.000 N 
ATOM     10  H   UNL     1       6.771   3.923  18.779  0.00  0.00    +0.000 HD
ATOM     11  H   UNL     1       7.665   5.341  18.517  0.00  0.00    +0.000 HD
ENDBRANCH   7   9
ENDBRANCH   1   6
BRANCH   1  12
ATOM     12  C   UNL     1       3.807   5.410  18.345  0.00  0.00    +0.000 A 
ATOM     13  C   UNL     1       3.862   6.656  17.695  0.00  0.00    +0.000 A 
ATOM     14  C   UNL     1       3.042   7.706  18.105  0.00  0.00    +0.000 A 
ATOM     15  C   UNL     1       2.211   7.532  19.201  0.00  0.00    +0.000 A 
ATOM     16  F   UNL     1       1.418   8.538  19.591  0.00  0.00    +0.000 F 
ATOM     17  C   UNL     1       2.199   6.333  19.903  0.00  0.00    +0.000 A 
ATOM     18  C   UNL     1       2.999   5.249  19.487  0.00  0.00    +0.000 A 
BRANCH  18  19
ATOM     19  C   UNL     1       2.965   3.966  20.298  0.00  0.00    +0.000 C 
BRANCH  19  20
ATOM     20  N   UNL     1       1.616   3.377  20.393  0.00  0.00    +0.000 NA
ATOM     21  C   UNL     1       1.344   2.478  19.267  0.00  0.00    +0.000 C 
ATOM     22  C   UNL     1       1.470   2.639  21.651  0.00  0.00    +0.000 C 
ENDBRANCH  19  20
ENDBRANCH  18  19
ENDBRANCH   1  12
TORSDOF 5
ENDMDL
MODEL 5
REMARK VINA RESULT:      -6.8      1.138      1.595
REMARK  Name = 
REMARK  8 active torsions:
REMARK  status: ('A' for Active; 'I' for Inactive)
REMARK    1  A    between atoms: C_1  and  C_2
REMARK    2  A    between atoms: C_5  and  O_6
REMARK    3  A    between atoms: O_6  and  C_7
REMARK    4  A    between atoms: C_13  and  C_14
REMARK    5  A    between atoms: C_14  and  N_15
REMARK    6  A    between atoms: N_15  and  C_16
REMARK    7  A    between atoms: N_15  and  C_17
REMARK    8  A    between atoms: C_18  and  N_19
REMARK                            x       y       z     vdW  Elec       q    Type
REMARK                         _______ _______ _______ _____ _____    ______ ____
ROOT
ATOM      1  O   UNL     1       2.815   6.740  19.728  0.00  0.00    +0.000 OA
ENDROOT
BRANCH   1   6
ATOM      2  C   UNL     1      -0.609  11.245  20.324  0.00  0.00    +0.000 C 
ATOM      3  C   UNL     1       0.264  10.033  20.180  0.00  0.00    +0.000 A 
ATOM      4  C   UNL     1       0.441   9.147  21.248  0.00  0.00    +0.000 A 
ATOM      5  C   UNL     1       1.252   8.022  21.095  0.00  0.00    +0.000 A 
ATOM      6  C   UNL     1       1.953   7.813  19.898  0.00  0.00    +0.000 A 
ATOM      7  C   UNL     1       1.795   8.693  18.817  0.00  0.00    +0.000 A 
ATOM      8  C   UNL     1       0.910   9.775  18.961  0.00  0.00    +0.000 A 
BRANCH   7   9
ATOM      9  N   UNL     1       2.328   8.405  17.548  0.00  0.00    +0.000 N 
ATOM     10  H   UNL     1       1.801   8.857  16.805  0.00  0.00    +0.000 HD
ATOM     11  H   UNL     1       2.485   7.417  17.382  0.00  0.00    +0.000 HD
ENDBRANCH   7   9
ENDBRANCH   1   6
BRANCH   1  12
ATOM     12  C   UNL     1       2.278   5.485  19.504  0.00  0.00    +0.000 A 
ATOM     13  C   UNL     1       1.359   4.897  20.391  0.00  0.00    +0.000 A 
ATOM     14  C   UNL     1       0.780   3.664  20.098  0.00  0.00    +0.000 A 
ATOM     15  C   UNL     1       1.162   2.988  18.950  0.00  0.00    +0.000 A 
ATOM     16  F   UNL     1       0.600   1.807  18.664  0.00  0.00    +0.000 F 
ATOM     17  C   UNL     1       2.125   3.518  18.099  0.00  0.00    +0.000 A 
ATOM     18  C   UNL     1       2.701   4.777  18.362  0.00  0.00    +0.000 A 
BRANCH  18  19
ATOM     19  C   UNL     1       3.762   5.305  17.413  0.00  0.00    +0.000 C 
BRANCH  19  20
ATOM     20  N   UNL     1       4.883   4.365  17.217  0.00  0.00    +0.000 NA
ATOM     21  C   UNL     1       5.493   4.530  15.895  0.00  0.00    +0.000 C 
ATOM     22  C   UNL     1       5.901   4.564  18.252  0.00  0.00    +0.000 C 
ENDBRANCH  19  20
ENDBRANCH  18  19
ENDBRANCH   1  12
TORSDOF 5
ENDMDL
MODEL 6
REMARK VINA RESULT:      -6.7      4.262      6.048
REMARK  Name = 
REMARK  8 active torsions:
REMARK  status: ('A' for Active; 'I' for Inactive)
REMARK    1  A    between atoms: C_1  and  C_2
REMARK    2  A    between atoms: C_5  and  O_6
REMARK    3  A    between atoms: O_6  and  C_7
REMARK    4  A    between atoms: C_13  and  C_14
REMARK    5  A    between atoms: C_14  and  N_15
REMARK    6  A    between atoms: N_15  and  C_16
REMARK    7  A    between atoms: N_15  and  C_17
REMARK    8  A    between atoms: C_18  and  N_19
REMARK                            x       y       z     vdW  Elec       q    Type
REMARK                         _______ _______ _______ _____ _____    ______ ____
ROOT
ATOM      1  O   UNL     1       5.225   4.776  18.055  0.00  0.00    +0.000 OA
ENDROOT
BRANCH   1   6
ATOM      2  C   UNL     1       0.269   2.137  18.977  0.00  0.00    +0.000 C 
ATOM      3  C   UNL     1       1.559   2.868  18.747  0.00  0.00    +0.000 A 
ATOM      4  C   UNL     1       1.594   4.036  17.979  0.00  0.00    +0.000 A 
ATOM      5  C   UNL     1       2.801   4.706  17.780  0.00  0.00    +0.000 A 
ATOM      6  C   UNL     1       3.998   4.173  18.283  0.00  0.00    +0.000 A 
ATOM      7  C   UNL     1       3.986   2.998  19.049  0.00  0.00    +0.000 A 
ATOM      8  C   UNL     1       2.750   2.382  19.309  0.00  0.00    +0.000 A 
BRANCH   7   9
ATOM      9  N   UNL     1       5.134   2.549  19.727  0.00  0.00    +0.000 N 
ATOM     10  H   UNL     1       4.915   2.219  20.663  0.00  0.00    +0.000 HD
ATOM     11  H   UNL     1       5.907   3.204  19.704  0.00  0.00    +0.000 HD
ENDBRANCH   7   9
ENDBRANCH   1   6
BRANCH   1  12
ATOM     12  C   UNL     1       5.753   4.746  16.776  0.00  0.00    +0.000 A 
ATOM     13  C   UNL     1       5.777   3.569  16.006  0.00  0.00    +0.000 A 
ATOM     14  C   UNL     1       6.248   3.590  14.694  0.00  0.00    +0.000 A 
ATOM     15  C   UNL     1       6.749   4.770  14.170  0.00  0.00    +0.000 A 
ATOM     16  F   UNL     1       7.194   4.793  12.907  0.00  0.00    +0.000 F 
ATOM     17  C   UNL     1       6.803   5.926  14.940  0.00  0.00    +0.000 A 
ATOM     18  C   UNL     1       6.306   5.934  16.259  0.00  0.00    +0.000 A 
BRANCH  18  19
ATOM     19  C   UNL     1       6.404   7.215  17.067  0.00  0.00    +0.000 C 
BRANCH  19  20
ATOM     20  N   UNL     1       7.780   7.522  17.501  0.00  0.00    +0.000 NA
ATOM     21  C   UNL     1       7.947   8.952  17.777  0.00  0.00    +0.000 C 
ATOM     22  C   UNL     1       8.119   6.753  18.701  0.00  0.00    +0.000 C 
ENDBRANCH  19  20
ENDBRANCH  18  19
ENDBRANCH   1  12
TORSDOF 5
ENDMDL
MODEL 7
REMARK VINA RESULT:      -6.7      4.413      6.000
REMARK  Name = 
REMARK  8 active torsions:
REMARK  status: ('A' for Active; 'I' for Inactive)
REMARK    1  A    between atoms: C_1  and  C_2
REMARK    2  A    between atoms: C_5  and  O_6
REMARK    3  A    between atoms: O_6  and  C_7
REMARK    4  A    between atoms: C_13  and  C_14
REMARK    5  A    between atoms: C_14  and  N_15
REMARK    6  A    between atoms: N_15  and  C_16
REMARK    7  A    between atoms: N_15  and  C_17
REMARK    8  A    between atoms: C_18  and  N_19
REMARK                            x       y       z     vdW  Elec       q    Type
REMARK                         _______ _______ _______ _____ _____    ______ ____
ROOT
ATOM      1  O   UNL     1       5.066   3.602  17.201  0.00  0.00    +0.000 OA
ENDROOT
BRANCH   1   6
ATOM      2  C   UNL     1      -0.058   3.077  19.619  0.00  0.00    +0.000 C 
ATOM      3  C   UNL     1       1.299   3.250  19.002  0.00  0.00    +0.000 A 
ATOM      4  C   UNL     1       1.654   4.449  18.376  0.00  0.00    +0.000 A 
ATOM      5  C   UNL     1       2.922   4.595  17.813  0.00  0.00    +0.000 A 
ATOM      6  C   UNL     1       3.820   3.516  17.804  0.00  0.00    +0.000 A 
ATOM      7  C   UNL     1       3.482   2.303  18.420  0.00  0.00    +0.000 A 
ATOM      8  C   UNL     1       2.232   2.202  19.055  0.00  0.00    +0.000 A 
BRANCH   7   9
ATOM      9  N   UNL     1       4.428   1.277  18.598  0.00  0.00    +0.000 N 
ATOM     10  H   UNL     1       5.280   1.621  19.035  0.00  0.00    +0.000 HD
ATOM     11  H   UNL     1       4.600   0.728  17.764  0.00  0.00    +0.000 HD
ENDBRANCH   7   9
ENDBRANCH   1   6
BRANCH   1  12
ATOM     12  C   UNL     1       5.930   4.607  17.600  0.00  0.00    +0.000 A 
ATOM     13  C   UNL     1       6.324   4.763  18.941  0.00  0.00    +0.000 A 
ATOM     14  C   UNL     1       7.254   5.738  19.298  0.00  0.00    +0.000 A 
ATOM     15  C   UNL     1       7.744   6.598  18.328  0.00  0.00    +0.000 A 
ATOM     16  F   UNL     1       8.642   7.531  18.669  0.00  0.00    +0.000 F 
ATOM     17  C   UNL     1       7.308   6.509  17.011  0.00  0.00    +0.000 A 
ATOM     18  C   UNL     1       6.391   5.511  16.624  0.00  0.00    +0.000 A 
BRANCH  18  19
ATOM     19  C   UNL     1       5.932   5.466  15.178  0.00  0.00    +0.000 C 
BRANCH  19  20
ATOM     20  N   UNL     1       6.714   4.528  14.351  0.00  0.00    +0.000 NA
ATOM     21  C   UNL     1       5.843   3.713  13.499  0.00  0.00    +0.000 C 
ATOM     22  C   UNL     1       7.667   5.260  13.513  0.00  0.00    +0.000 C 
ENDBRANCH  19  20
ENDBRANCH  18  19
ENDBRANCH   1  12
TORSDOF 5
ENDMDL
MODEL 8
REMARK VINA RESULT:      -6.7      4.404      5.948
REMARK  Name = 
REMARK  8 active torsions:
REMARK  status: ('A' for Active; 'I' for Inactive)
REMARK    1  A    between atoms: C_1  and  C_2
REMARK    2  A    between atoms: C_5  and  O_6
REMARK    3  A    between atoms: O_6  and  C_7
REMARK    4  A    between atoms: C_13  and  C_14
REMARK    5  A    between atoms: C_14  and  N_15
REMARK    6  A    between atoms: N_15  and  C_16
REMARK    7  A    between atoms: N_15  and  C_17
REMARK    8  A    between atoms: C_18  and  N_19
REMARK                            x       y       z     vdW  Elec       q    Type
REMARK                         _______ _______ _______ _____ _____    ______ ____
ROOT
ATOM      1  O   UNL     1       5.399   3.850  17.575  0.00  0.00    +0.000 OA
ENDROOT
BRANCH   1   6
ATOM      2  C   UNL     1       0.378   3.254  20.184  0.00  0.00    +0.000 C 
ATOM      3  C   UNL     1       1.700   3.452  19.503  0.00  0.00    +0.000 A 
ATOM      4  C   UNL     1       1.843   4.385  18.472  0.00  0.00    +0.000 A 
ATOM      5  C   UNL     1       3.081   4.560  17.853  0.00  0.00    +0.000 A 
ATOM      6  C   UNL     1       4.170   3.749  18.208  0.00  0.00    +0.000 A 
ATOM      7  C   UNL     1       4.046   2.801  19.234  0.00  0.00    +0.000 A 
ATOM      8  C   UNL     1       2.815   2.696  19.902  0.00  0.00    +0.000 A 
BRANCH   7   9
ATOM      9  N   UNL     1       5.164   2.115  19.741  0.00  0.00    +0.000 N 
ATOM     10  H   UNL     1       4.978   1.121  19.855  0.00  0.00    +0.000 HD
ATOM     11  H   UNL     1       5.570   2.542  20.566  0.00  0.00    +0.000 HD
ENDBRANCH   7   9
ENDBRANCH   1   6
BRANCH   1  12
ATOM     12  C   UNL     1       6.217   4.924  17.880  0.00  0.00    +0.000 A 
ATOM     13  C   UNL     1       6.946   4.988  19.082  0.00  0.00    +0.000 A 
ATOM     14  C   UNL     1       7.818   6.047  19.326  0.00  0.00    +0.000 A 
ATOM     15  C   UNL     1       7.921   7.072  18.399  0.00  0.00    +0.000 A 
ATOM     16  F   UNL     1       8.764   8.086  18.629  0.00  0.00    +0.000 F 
ATOM     17  C   UNL     1       7.152   7.064  17.241  0.00  0.00    +0.000 A 
ATOM     18  C   UNL     1       6.285   5.988  16.961  0.00  0.00    +0.000 A 
BRANCH  18  19
ATOM     19  C   UNL     1       5.453   6.034  15.692  0.00  0.00    +0.000 C 
BRANCH  19  20
ATOM     20  N   UNL     1       6.095   5.349  14.554  0.00  0.00    +0.000 NA
ATOM     21  C   UNL     1       7.465   4.940  14.881  0.00  0.00    +0.000 C 
ATOM     22  C   UNL     1       5.316   4.171  14.163  0.00  0.00    +0.000 C 
ENDBRANCH  19  20
ENDBRANCH  18  19
ENDBRANCH   1  12
TORSDOF 5
ENDMDL
MODEL 9
REMARK VINA RESULT:      -6.6      1.912      5.672
REMARK  Name = 
REMARK  8 active torsions:
REMARK  status: ('A' for Active; 'I' for Inactive)
REMARK    1  A    between atoms: C_1  and  C_2
REMARK    2  A    between atoms: C_5  and  O_6
REMARK    3  A    between atoms: O_6  and  C_7
REMARK    4  A    between atoms: C_13  and  C_14
REMARK    5  A    between atoms: C_14  and  N_15
REMARK    6  A    between atoms: N_15  and  C_16
REMARK    7  A    between atoms: N_15  and  C_17
REMARK    8  A    between atoms: C_18  and  N_19
REMARK                            x       y       z     vdW  Elec       q    Type
REMARK                         _______ _______ _______ _____ _____    ______ ____
ROOT
ATOM      1  O   UNL     1       4.838   4.643  18.196  0.00  0.00    +0.000 OA
ENDROOT
BRANCH   1   6
ATOM      2  C   UNL     1       7.702   5.028  13.295  0.00  0.00    +0.000 C 
ATOM      3  C   UNL     1       6.924   4.896  14.571  0.00  0.00    +0.000 A 
ATOM      4  C   UNL     1       5.527   4.936  14.565  0.00  0.00    +0.000 A 
ATOM      5  C   UNL     1       4.819   4.806  15.761  0.00  0.00    +0.000 A 
ATOM      6  C   UNL     1       5.504   4.713  16.982  0.00  0.00    +0.000 A 
ATOM      7  C   UNL     1       6.906   4.679  17.011  0.00  0.00    +0.000 A 
ATOM      8  C   UNL     1       7.601   4.726  15.790  0.00  0.00    +0.000 A 
BRANCH   7   9
ATOM      9  N   UNL     1       7.612   4.390  18.193  0.00  0.00    +0.000 N 
ATOM     10  H   UNL     1       8.128   5.199  18.531  0.00  0.00    +0.000 HD
ATOM     11  H   UNL     1       8.176   3.549  18.140  0.00  0.00    +0.000 HD
ENDBRANCH   7   9
ENDBRANCH   1   6
BRANCH   1  12
ATOM     12  C   UNL     1       3.691   3.874  18.281  0.00  0.00    +0.000 A 
ATOM     13  C   UNL     1       3.735   2.468  18.291  0.00  0.00    +0.000 A 
ATOM     14  C   UNL     1       2.568   1.723  18.454  0.00  0.00    +0.000 A 
ATOM     15  C   UNL     1       1.350   2.378  18.547  0.00  0.00    +0.000 A 
ATOM     16  F   UNL     1       0.230   1.664  18.711  0.00  0.00    +0.000 F 
ATOM     17  C   UNL     1       1.278   3.764  18.463  0.00  0.00    +0.000 A 
ATOM     18  C   UNL     1       2.449   4.537  18.328  0.00  0.00    +0.000 A 
BRANCH  18  19
ATOM     19  C   UNL     1       2.318   6.046  18.222  0.00  0.00    +0.000 C 
BRANCH  19  20
ATOM     20  N   UNL     1       2.519   6.736  19.510  0.00  0.00    +0.000 NA
ATOM     21  C   UNL     1       1.998   8.106  19.469  0.00  0.00    +0.000 C 
ATOM     22  C   UNL     1       1.863   5.998  20.592  0.00  0.00    +0.000 C 
ENDBRANCH  19  20
ENDBRANCH  18  19
ENDBRANCH   1  12
TORSDOF 5
ENDMDL
