MODEL 1
REMARK VINA RESULT:      -7.3      0.000      0.000
REMARK  Name = 
REMARK  1 active torsions:
REMARK  status: ('A' for Active; 'I' for Inactive)
REMARK    1  A    between atoms: N_1  and  C_2
REMARK                            x       y       z     vdW  Elec       q    Type
REMARK                         _______ _______ _______ _____ _____    ______ ____
ROOT
ATOM      1  C   UNL     1       7.557   6.047  19.051  0.00  0.00    +0.000 A 
ATOM      2  N   UNL     1       8.346   7.028  18.578  0.00  0.00    +0.000 NA
ATOM      3  C   UNL     1       7.857   7.835  17.618  0.00  0.00    +0.000 A 
ATOM      4  N   UNL     1       6.651   7.793  17.041  0.00  0.00    +0.000 NA
ATOM      5  C   UNL     1       5.894   6.794  17.526  0.00  0.00    +0.000 A 
ATOM      6  S   UNL     1       4.291   6.537  16.947  0.00  0.00    +0.000 S 
ATOM      7  C   UNL     1       4.115   5.238  17.971  0.00  0.00    +0.000 A 
ATOM      8  C   UNL     1       5.215   4.963  18.746  0.00  0.00    +0.000 A 
ATOM      9  C   UNL     1       6.273   5.881  18.511  0.00  0.00    +0.000 A 
ATOM     10  C   UNL     1       5.027   3.777  19.641  0.00  0.00    +0.000 C 
ATOM     11  C   UNL     1       3.599   3.426  19.229  0.00  0.00    +0.000 A 
ATOM     12  C   UNL     1       2.832   2.384  19.724  0.00  0.00    +0.000 A 
ATOM     13  C   UNL     1       1.535   2.229  19.229  0.00  0.00    +0.000 A 
ATOM     14  C   UNL     1       1.020   3.106  18.256  0.00  0.00    +0.000 A 
ATOM     15  C   UNL     1       1.793   4.158  17.752  0.00  0.00    +0.000 A 
ATOM     16  C   UNL     1       3.072   4.300  18.245  0.00  0.00    +0.000 A 
ENDROOT
BRANCH   1  17
ATOM     17  N   UNL     1       8.074   5.256  20.064  0.00  0.00    +0.000 N 
ATOM     18  H   UNL     1       7.366   5.008  20.744  0.00  0.00    +0.000 HD
ATOM     19  H   UNL     1       8.984   5.502  20.419  0.00  0.00    +0.000 HD
ENDBRANCH   1  17
TORSDOF 1
ENDMDL
MODEL 2
REMARK VINA RESULT:      -7.2      3.566      5.612
REMARK  Name = 
REMARK  1 active torsions:
REMARK  status: ('A' for Active; 'I' for Inactive)
REMARK    1  A    between atoms: N_1  and  C_2
REMARK                            x       y       z     vdW  Elec       q    Type
REMARK                         _______ _______ _______ _____ _____    ______ ____
ROOT
ATOM      1  C   UNL     1       2.108   4.940  20.308  0.00  0.00    +0.000 A 
ATOM      2  N   UNL     1       1.340   4.258  21.175  0.00  0.00    +0.000 NA
ATOM      3  C   UNL     1       1.258   2.922  21.044  0.00  0.00    +0.000 A 
ATOM      4  N   UNL     1       1.852   2.145  20.131  0.00  0.00    +0.000 NA
ATOM      5  C   UNL     1       2.601   2.858  19.273  0.00  0.00    +0.000 A 
ATOM      6  S   UNL     1       3.477   2.083  18.006  0.00  0.00    +0.000 S 
ATOM      7  C   UNL     1       4.051   3.554  17.485  0.00  0.00    +0.000 A 
ATOM      8  C   UNL     1       3.616   4.633  18.213  0.00  0.00    +0.000 A 
ATOM      9  C   UNL     1       2.770   4.244  19.286  0.00  0.00    +0.000 A 
ATOM     10  C   UNL     1       4.138   5.941  17.704  0.00  0.00    +0.000 C 
ATOM     11  C   UNL     1       4.965   5.399  16.540  0.00  0.00    +0.000 A 
ATOM     12  C   UNL     1       5.721   6.145  15.650  0.00  0.00    +0.000 A 
ATOM     13  C   UNL     1       6.421   5.464  14.651  0.00  0.00    +0.000 A 
ATOM     14  C   UNL     1       6.361   4.061  14.550  0.00  0.00    +0.000 A 
ATOM     15  C   UNL     1       5.596   3.306  15.444  0.00  0.00    +0.000 A 
ATOM     16  C   UNL     1       4.907   3.988  16.425  0.00  0.00    +0.000 A 
ENDROOT
BRANCH   1  17
ATOM     17  N   UNL     1       2.202   6.310  20.491  0.00  0.00    +0.000 N 
ATOM     18  H   UNL     1       2.769   6.543  21.298  0.00  0.00    +0.000 HD
ATOM     19  H   UNL     1       1.364   6.850  20.350  0.00  0.00    +0.000 HD
ENDBRANCH   1  17
TORSDOF 1
ENDMDL
MODEL 3
REMARK VINA RESULT:      -6.9      2.225      2.610
REMARK  Name = 
REMARK  1 active torsions:
REMARK  status: ('A' for Active; 'I' for Inactive)
REMARK    1  A    between atoms: N_1  and  C_2
REMARK                            x       y       z     vdW  Elec       q    Type
REMARK                         _______ _______ _______ _____ _____    ______ ____
ROOT
ATOM      1  C   UNL     1       6.700   5.940  16.828  0.00  0.00    +0.000 A 
ATOM      2  N   UNL     1       7.501   5.825  15.755  0.00  0.00    +0.000 NA
ATOM      3  C   UNL     1       7.217   4.876  14.844  0.00  0.00    +0.000 A 
ATOM      4  N   UNL     1       6.214   3.991  14.861  0.00  0.00    +0.000 NA
ATOM      5  C   UNL     1       5.441   4.125  15.952  0.00  0.00    +0.000 A 
ATOM      6  S   UNL     1       4.075   3.103  16.200  0.00  0.00    +0.000 S 
ATOM      7  C   UNL     1       3.744   3.872  17.637  0.00  0.00    +0.000 A 
ATOM      8  C   UNL     1       4.619   4.878  17.967  0.00  0.00    +0.000 A 
ATOM      9  C   UNL     1       5.622   5.055  16.976  0.00  0.00    +0.000 A 
ATOM     10  C   UNL     1       4.302   5.534  19.275  0.00  0.00    +0.000 C 
ATOM     11  C   UNL     1       3.066   4.709  19.630  0.00  0.00    +0.000 A 
ATOM     12  C   UNL     1       2.286   4.844  20.767  0.00  0.00    +0.000 A 
ATOM     13  C   UNL     1       1.183   3.999  20.911  0.00  0.00    +0.000 A 
ATOM     14  C   UNL     1       0.872   3.038  19.930  0.00  0.00    +0.000 A 
ATOM     15  C   UNL     1       1.659   2.898  18.783  0.00  0.00    +0.000 A 
ATOM     16  C   UNL     1       2.747   3.735  18.652  0.00  0.00    +0.000 A 
ENDROOT
BRANCH   1  17
ATOM     17  N   UNL     1       6.995   6.950  17.730  0.00  0.00    +0.000 N 
ATOM     18  H   UNL     1       6.509   6.822  18.609  0.00  0.00    +0.000 HD
ATOM     19  H   UNL     1       7.045   7.889  17.367  0.00  0.00    +0.000 HD
ENDBRANCH   1  17
TORSDOF 1
ENDMDL
MODEL 4
REMARK VINA RESULT:      -6.8      2.147      2.392
REMARK  Name = 
REMARK  1 active torsions:
REMARK  status: ('A' for Active; 'I' for Inactive)
REMARK    1  A    between atoms: N_1  and  C_2
REMARK                            x       y       z     vdW  Elec       q    Type
REMARK                         _______ _______ _______ _____ _____    ______ ____
ROOT
ATOM      1  C   UNL     1       7.070   4.538  17.378  0.00  0.00    +0.000 A 
ATOM      2  N   UNL     1       7.717   4.749  16.219  0.00  0.00    +0.000 NA
ATOM      3  C   UNL     1       7.021   4.659  15.072  0.00  0.00    +0.000 A 
ATOM      4  N   UNL     1       5.724   4.371  14.915  0.00  0.00    +0.000 NA
ATOM      5  C   UNL     1       5.110   4.154  16.090  0.00  0.00    +0.000 A 
ATOM      6  S   UNL     1       3.430   3.773  16.154  0.00  0.00    +0.000 S 
ATOM      7  C   UNL     1       3.503   3.667  17.812  0.00  0.00    +0.000 A 
ATOM      8  C   UNL     1       4.745   3.900  18.350  0.00  0.00    +0.000 A 
ATOM      9  C   UNL     1       5.707   4.206  17.351  0.00  0.00    +0.000 A 
ATOM     10  C   UNL     1       4.777   3.778  19.842  0.00  0.00    +0.000 C 
ATOM     11  C   UNL     1       3.305   3.433  20.057  0.00  0.00    +0.000 A 
ATOM     12  C   UNL     1       2.685   3.194  21.273  0.00  0.00    +0.000 A 
ATOM     13  C   UNL     1       1.318   2.903  21.267  0.00  0.00    +0.000 A 
ATOM     14  C   UNL     1       0.591   2.854  20.063  0.00  0.00    +0.000 A 
ATOM     15  C   UNL     1       1.215   3.092  18.834  0.00  0.00    +0.000 A 
ATOM     16  C   UNL     1       2.564   3.376  18.850  0.00  0.00    +0.000 A 
ENDROOT
BRANCH   1  17
ATOM     17  N   UNL     1       7.805   4.674  18.545  0.00  0.00    +0.000 N 
ATOM     18  H   UNL     1       7.902   5.645  18.816  0.00  0.00    +0.000 HD
ATOM     19  H   UNL     1       8.617   4.087  18.646  0.00  0.00    +0.000 HD
ENDBRANCH   1  17
TORSDOF 1
ENDMDL
MODEL 5
REMARK VINA RESULT:      -6.8      3.963      5.385
REMARK  Name = 
REMARK  1 active torsions:
REMARK  status: ('A' for Active; 'I' for Inactive)
REMARK    1  A    between atoms: N_1  and  C_2
REMARK                            x       y       z     vdW  Elec       q    Type
REMARK                         _______ _______ _______ _____ _____    ______ ____
ROOT
ATOM      1  C   UNL     1       2.821   3.414  20.767  0.00  0.00    +0.000 A 
ATOM      2  N   UNL     1       3.381   2.233  20.451  0.00  0.00    +0.000 NA
ATOM      3  C   UNL     1       4.011   2.120  19.268  0.00  0.00    +0.000 A 
ATOM      4  N   UNL     1       4.158   3.052  18.319  0.00  0.00    +0.000 NA
ATOM      5  C   UNL     1       3.576   4.215  18.661  0.00  0.00    +0.000 A 
ATOM      6  S   UNL     1       3.635   5.577  17.606  0.00  0.00    +0.000 S 
ATOM      7  C   UNL     1       2.755   6.474  18.695  0.00  0.00    +0.000 A 
ATOM      8  C   UNL     1       2.397   5.804  19.838  0.00  0.00    +0.000 A 
ATOM      9  C   UNL     1       2.886   4.470  19.847  0.00  0.00    +0.000 A 
ATOM     10  C   UNL     1       1.590   6.636  20.786  0.00  0.00    +0.000 C 
ATOM     11  C   UNL     1       1.558   7.922  19.962  0.00  0.00    +0.000 A 
ATOM     12  C   UNL     1       0.941   9.111  20.316  0.00  0.00    +0.000 A 
ATOM     13  C   UNL     1       1.031  10.187  19.430  0.00  0.00    +0.000 A 
ATOM     14  C   UNL     1       1.729  10.069  18.213  0.00  0.00    +0.000 A 
ATOM     15  C   UNL     1       2.351   8.870  17.852  0.00  0.00    +0.000 A 
ATOM     16  C   UNL     1       2.253   7.813  18.732  0.00  0.00    +0.000 A 
ENDROOT
BRANCH   1  17
ATOM     17  N   UNL     1       2.212   3.511  22.008  0.00  0.00    +0.000 N 
ATOM     18  H   UNL     1       2.456   4.374  22.478  0.00  0.00    +0.000 HD
ATOM     19  H   UNL     1       2.182   2.676  22.571  0.00  0.00    +0.000 HD
ENDBRANCH   1  17
TORSDOF 1
ENDMDL
MODEL 6
REMARK VINA RESULT:      -6.8      2.097      2.853
REMARK  Name = 
REMARK  1 active torsions:
REMARK  status: ('A' for Active; 'I' for Inactive)
REMARK    1  A    between atoms: N_1  and  C_2
REMARK                            x       y       z     vdW  Elec       q    Type
REMARK                         _______ _______ _______ _____ _____    ______ ____
ROOT
ATOM      1  C   UNL     1       5.848   4.800  15.509  0.00  0.00    +0.000 A 
ATOM      2  N   UNL     1       6.995   5.447  15.240  0.00  0.00    +0.000 NA
ATOM      3  C   UNL     1       7.632   6.069  16.249  0.00  0.00    +0.000 A 
ATOM      4  N   UNL     1       7.266   6.142  17.534  0.00  0.00    +0.000 NA
ATOM      5  C   UNL     1       6.110   5.497  17.766  0.00  0.00    +0.000 A 
ATOM      6  S   UNL     1       5.431   5.440  19.350  0.00  0.00    +0.000 S 
ATOM      7  C   UNL     1       4.146   4.550  18.782  0.00  0.00    +0.000 A 
ATOM      8  C   UNL     1       4.182   4.283  17.436  0.00  0.00    +0.000 A 
ATOM      9  C   UNL     1       5.342   4.820  16.818  0.00  0.00    +0.000 A 
ATOM     10  C   UNL     1       3.000   3.497  16.956  0.00  0.00    +0.000 C 
ATOM     11  C   UNL     1       2.281   3.360  18.297  0.00  0.00    +0.000 A 
ATOM     12  C   UNL     1       1.080   2.707  18.523  0.00  0.00    +0.000 A 
ATOM     13  C   UNL     1       0.582   2.680  19.828  0.00  0.00    +0.000 A 
ATOM     14  C   UNL     1       1.279   3.298  20.884  0.00  0.00    +0.000 A 
ATOM     15  C   UNL     1       2.490   3.961  20.658  0.00  0.00    +0.000 A 
ATOM     16  C   UNL     1       2.971   3.984  19.366  0.00  0.00    +0.000 A 
ENDROOT
BRANCH   1  17
ATOM     17  N   UNL     1       5.235   4.139  14.457  0.00  0.00    +0.000 N 
ATOM     18  H   UNL     1       4.233   4.067  14.593  0.00  0.00    +0.000 HD
ATOM     19  H   UNL     1       5.705   3.329  14.088  0.00  0.00    +0.000 HD
ENDBRANCH   1  17
TORSDOF 1
ENDMDL
MODEL 7
REMARK VINA RESULT:      -6.5      3.645      4.806
REMARK  Name = 
REMARK  1 active torsions:
REMARK  status: ('A' for Active; 'I' for Inactive)
REMARK    1  A    between atoms: N_1  and  C_2
REMARK                            x       y       z     vdW  Elec       q    Type
REMARK                         _______ _______ _______ _____ _____    ______ ____
ROOT
ATOM      1  C   UNL     1       5.030   6.039  16.318  0.00  0.00    +0.000 A 
ATOM      2  N   UNL     1       5.842   4.989  16.104  0.00  0.00    +0.000 NA
ATOM      3  C   UNL     1       5.888   4.017  17.033  0.00  0.00    +0.000 A 
ATOM      4  N   UNL     1       5.218   3.948  18.190  0.00  0.00    +0.000 NA
ATOM      5  C   UNL     1       4.427   5.019  18.378  0.00  0.00    +0.000 A 
ATOM      6  S   UNL     1       3.454   5.161  19.793  0.00  0.00    +0.000 S 
ATOM      7  C   UNL     1       2.875   6.627  19.264  0.00  0.00    +0.000 A 
ATOM      8  C   UNL     1       3.379   7.043  18.057  0.00  0.00    +0.000 A 
ATOM      9  C   UNL     1       4.288   6.100  17.507  0.00  0.00    +0.000 A 
ATOM     10  C   UNL     1       2.851   8.375  17.621  0.00  0.00    +0.000 C 
ATOM     11  C   UNL     1       1.937   8.640  18.816  0.00  0.00    +0.000 A 
ATOM     12  C   UNL     1       1.138   9.755  19.009  0.00  0.00    +0.000 A 
ATOM     13  C   UNL     1       0.359   9.813  20.168  0.00  0.00    +0.000 A 
ATOM     14  C   UNL     1       0.384   8.769  21.112  0.00  0.00    +0.000 A 
ATOM     15  C   UNL     1       1.192   7.644  20.921  0.00  0.00    +0.000 A 
ATOM     16  C   UNL     1       1.959   7.598  19.776  0.00  0.00    +0.000 A 
ENDROOT
BRANCH   1  17
ATOM     17  N   UNL     1       4.976   7.007  15.328  0.00  0.00    +0.000 N 
ATOM     18  H   UNL     1       5.125   6.610  14.408  0.00  0.00    +0.000 HD
ATOM     19  H   UNL     1       5.422   7.888  15.523  0.00  0.00    +0.000 HD
ENDBRANCH   1  17
TORSDOF 1
ENDMDL
MODEL 8
REMARK VINA RESULT:      -6.5      3.540      5.604
REMARK  Name = 
REMARK  1 active torsions:
REMARK  status: ('A' for Active; 'I' for Inactive)
REMARK    1  A    between atoms: N_1  and  C_2
REMARK                            x       y       z     vdW  Elec       q    Type
REMARK                         _______ _______ _______ _____ _____    ______ ____
ROOT
ATOM      1  C   UNL     1       1.909   2.578  19.367  0.00  0.00    +0.000 A 
ATOM      2  N   UNL     1       1.209   2.683  20.510  0.00  0.00    +0.000 NA
ATOM      3  C   UNL     1       1.434   3.747  21.303  0.00  0.00    +0.000 A 
ATOM      4  N   UNL     1       2.294   4.753  21.109  0.00  0.00    +0.000 NA
ATOM      5  C   UNL     1       2.986   4.611  19.965  0.00  0.00    +0.000 A 
ATOM      6  S   UNL     1       4.154   5.785  19.485  0.00  0.00    +0.000 S 
ATOM      7  C   UNL     1       4.492   4.907  18.114  0.00  0.00    +0.000 A 
ATOM      8  C   UNL     1       3.771   3.746  17.980  0.00  0.00    +0.000 A 
ATOM      9  C   UNL     1       2.862   3.559  19.056  0.00  0.00    +0.000 A 
ATOM     10  C   UNL     1       4.115   2.973  16.745  0.00  0.00    +0.000 C 
ATOM     11  C   UNL     1       5.175   3.923  16.191  0.00  0.00    +0.000 A 
ATOM     12  C   UNL     1       5.895   3.759  15.018  0.00  0.00    +0.000 A 
ATOM     13  C   UNL     1       6.819   4.748  14.671  0.00  0.00    +0.000 A 
ATOM     14  C   UNL     1       7.014   5.878  15.486  0.00  0.00    +0.000 A 
ATOM     15  C   UNL     1       6.292   6.045  16.672  0.00  0.00    +0.000 A 
ATOM     16  C   UNL     1       5.384   5.062  17.007  0.00  0.00    +0.000 A 
ENDROOT
BRANCH   1  17
ATOM     17  N   UNL     1       1.630   1.491  18.554  0.00  0.00    +0.000 N 
ATOM     18  H   UNL     1       2.414   1.260  17.956  0.00  0.00    +0.000 HD
ATOM     19  H   UNL     1       0.712   1.450  18.142  0.00  0.00    +0.000 HD
ENDBRANCH   1  17
TORSDOF 1
ENDMDL
MODEL 9
REMARK VINA RESULT:      -6.5      3.924      5.469
REMARK  Name = 
REMARK  1 active torsions:
REMARK  status: ('A' for Active; 'I' for Inactive)
REMARK    1  A    between atoms: N_1  and  C_2
REMARK                            x       y       z     vdW  Elec       q    Type
REMARK                         _______ _______ _______ _____ _____    ______ ____
ROOT
ATOM      1  C   UNL     1       3.979   3.797  17.770  0.00  0.00    +0.000 A 
ATOM      2  N   UNL     1       4.255   2.535  18.145  0.00  0.00    +0.000 NA
ATOM      3  C   UNL     1       3.849   2.126  19.360  0.00  0.00    +0.000 A 
ATOM      4  N   UNL     1       3.188   2.827  20.289  0.00  0.00    +0.000 NA
ATOM      5  C   UNL     1       2.939   4.085  19.888  0.00  0.00    +0.000 A 
ATOM      6  S   UNL     1       2.090   5.187  20.906  0.00  0.00    +0.000 S 
ATOM      7  C   UNL     1       2.223   6.377  19.752  0.00  0.00    +0.000 A 
ATOM      8  C   UNL     1       2.889   6.001  18.611  0.00  0.00    +0.000 A 
ATOM      9  C   UNL     1       3.307   4.645  18.663  0.00  0.00    +0.000 A 
ATOM     10  C   UNL     1       3.006   7.102  17.603  0.00  0.00    +0.000 C 
ATOM     11  C   UNL     1       2.270   8.186  18.389  0.00  0.00    +0.000 A 
ATOM     12  C   UNL     1       2.033   9.486  17.973  0.00  0.00    +0.000 A 
ATOM     13  C   UNL     1       1.329  10.333  18.833  0.00  0.00    +0.000 A 
ATOM     14  C   UNL     1       0.872   9.880  20.084  0.00  0.00    +0.000 A 
ATOM     15  C   UNL     1       1.112   8.568  20.508  0.00  0.00    +0.000 A 
ATOM     16  C   UNL     1       1.810   7.742  19.654  0.00  0.00    +0.000 A 
ENDROOT
BRANCH   1  17
ATOM     17  N   UNL     1       4.377   4.178  16.499  0.00  0.00    +0.000 N 
ATOM     18  H   UNL     1       5.339   3.919  16.314  0.00  0.00    +0.000 HD
ATOM     19  H   UNL     1       4.079   5.085  16.178  0.00  0.00    +0.000 HD
ENDBRANCH   1  17
TORSDOF 1
ENDMDL
