MODEL 1
REMARK VINA RESULT:      -8.1      0.000      0.000
REMARK  Name = 
REMARK  6 active torsions:
REMARK  status: ('A' for Active; 'I' for Inactive)
REMARK    1  A    between atoms: C_1  and  N_2
REMARK    2  A    between atoms: C_4  and  C_5
REMARK    3  A    between atoms: N_7  and  C_8
REMARK    4  A    between atoms: C_8  and  C_9
REMARK    5  A    between atoms: C_9  and  C_10
REMARK    6  A    between atoms: C_9  and  N_15
REMARK                            x       y       z     vdW  Elec       q    Type
REMARK                         _______ _______ _______ _____ _____    ______ ____
ROOT
ATOM      1  C   UNL     1       1.461   9.360  18.558  0.00  0.00    +0.000 C 
ATOM      2  O   UNL     1       2.094   9.674  17.564  0.00  0.00    +0.000 OA
ATOM      3  N   UNL     1       1.724   8.242  19.320  0.00  0.00    +0.000 N 
ATOM      4  H   UNL     1       1.020   7.977  19.997  0.00  0.00    +0.000 HD
ENDROOT
BRANCH   1   8
ATOM      5  C   UNL     1      -0.349  12.157  22.019  0.00  0.00    +0.000 C 
ATOM      6  N   UNL     1      -0.560  11.570  20.711  0.00  0.00    +0.000 N 
ATOM      7  N   UNL     1       0.457  10.802  20.197  0.00  0.00    +0.000 NA
ATOM      8  C   UNL     1       0.272  10.192  19.061  0.00  0.00    +0.000 A 
ATOM      9  C   UNL     1      -0.979  10.288  18.275  0.00  0.00    +0.000 A 
ATOM     10  C   UNL     1      -1.201   9.628  17.059  0.00  0.00    +0.000 A 
ATOM     11  C   UNL     1      -2.427   9.751  16.399  0.00  0.00    +0.000 A 
ATOM     12  C   UNL     1      -3.433  10.554  16.929  0.00  0.00    +0.000 A 
ATOM     13  C   UNL     1      -3.213  11.230  18.127  0.00  0.00    +0.000 A 
ATOM     14  C   UNL     1      -1.989  11.089  18.799  0.00  0.00    +0.000 A 
ATOM     15  C   UNL     1      -1.783  11.780  20.083  0.00  0.00    +0.000 A 
ATOM     16  O   UNL     1      -2.677  12.487  20.545  0.00  0.00    +0.000 OA
ENDBRANCH   1   8
BRANCH   3  17
ATOM     17  C   UNL     1       2.857   7.388  19.015  0.00  0.00    +0.000 C 
BRANCH  17  18
ATOM     18  C   UNL     1       2.575   5.985  18.420  0.00  0.00    +0.000 C 
BRANCH  18  19
ATOM     19  N   UNL     1       2.193   4.894  19.317  0.00  0.00    +0.000 NA
ATOM     20  C   UNL     1       1.978   5.164  20.738  0.00  0.00    +0.000 C 
ATOM     21  C   UNL     1       2.102   3.825  21.486  0.00  0.00    +0.000 C 
ATOM     22  O   UNL     1       1.132   2.874  21.020  0.00  0.00    +0.000 OA
ATOM     23  C   UNL     1       1.263   2.669  19.604  0.00  0.00    +0.000 C 
ATOM     24  C   UNL     1       1.140   3.994  18.831  0.00  0.00    +0.000 C 
ENDBRANCH  18  19
BRANCH  18  25
ATOM     25  C   UNL     1       3.671   5.488  17.478  0.00  0.00    +0.000 A 
ATOM     26  C   UNL     1       3.928   4.218  16.992  0.00  0.00    +0.000 A 
ATOM     27  C   UNL     1       5.012   4.184  16.069  0.00  0.00    +0.000 A 
ATOM     28  C   UNL     1       5.560   5.429  15.874  0.00  0.00    +0.000 A 
ATOM     29  S   UNL     1       4.770   6.630  16.796  0.00  0.00    +0.000 S 
ENDBRANCH  18  25
ENDBRANCH  17  18
ENDBRANCH   3  17
TORSDOF 5
ENDMDL
MODEL 2
REMARK VINA RESULT:      -8.0      2.815      4.293
REMARK  Name = 
REMARK  6 active torsions:
REMARK  status: ('A' for Active; 'I' for Inactive)
REMARK    1  A    between atoms: C_1  and  N_2
REMARK    2  A    between atoms: C_4  and  C_5
REMARK    3  A    between atoms: N_7  and  C_8
REMARK    4  A    between atoms: C_8  and  C_9
REMARK    5  A    between atoms: C_9  and  C_10
REMARK    6  A    between atoms: C_9  and  N_15
REMARK                            x       y       z     vdW  Elec       q    Type
REMARK                         _______ _______ _______ _____ _____    ______ ____
ROOT
ATOM      1  C   UNL     1       1.544   9.143  18.198  0.00  0.00    +0.000 C 
ATOM      2  O   UNL     1       0.711   8.648  17.458  0.00  0.00    +0.000 OA
ATOM      3  N   UNL     1       2.844   8.699  18.304  0.00  0.00    +0.000 N 
ATOM      4  H   UNL     1       3.384   9.052  19.083  0.00  0.00    +0.000 HD
ENDROOT
BRANCH   1   8
ATOM      5  C   UNL     1       1.725  13.891  18.906  0.00  0.00    +0.000 C 
ATOM      6  N   UNL     1       1.269  12.613  19.416  0.00  0.00    +0.000 N 
ATOM      7  N   UNL     1       1.537  11.503  18.653  0.00  0.00    +0.000 NA
ATOM      8  C   UNL     1       1.214  10.329  19.116  0.00  0.00    +0.000 A 
ATOM      9  C   UNL     1       0.555  10.119  20.426  0.00  0.00    +0.000 A 
ATOM     10  C   UNL     1       0.214   8.864  20.946  0.00  0.00    +0.000 A 
ATOM     11  C   UNL     1      -0.379   8.757  22.209  0.00  0.00    +0.000 A 
ATOM     12  C   UNL     1      -0.661   9.900  22.951  0.00  0.00    +0.000 A 
ATOM     13  C   UNL     1      -0.343  11.153  22.432  0.00  0.00    +0.000 A 
ATOM     14  C   UNL     1       0.270  11.258  21.174  0.00  0.00    +0.000 A 
ATOM     15  C   UNL     1       0.634  12.586  20.653  0.00  0.00    +0.000 A 
ATOM     16  O   UNL     1       0.382  13.590  21.316  0.00  0.00    +0.000 OA
ENDBRANCH   1   8
BRANCH   3  17
ATOM     17  C   UNL     1       3.332   7.628  17.454  0.00  0.00    +0.000 C 
BRANCH  17  18
ATOM     18  C   UNL     1       3.910   6.362  18.134  0.00  0.00    +0.000 C 
BRANCH  18  19
ATOM     19  N   UNL     1       5.058   5.687  17.528  0.00  0.00    +0.000 NA
ATOM     20  C   UNL     1       5.280   5.785  16.087  0.00  0.00    +0.000 C 
ATOM     21  C   UNL     1       6.192   4.616  15.678  0.00  0.00    +0.000 C 
ATOM     22  O   UNL     1       7.452   4.671  16.367  0.00  0.00    +0.000 OA
ATOM     23  C   UNL     1       7.250   4.674  17.790  0.00  0.00    +0.000 C 
ATOM     24  C   UNL     1       6.341   5.838  18.226  0.00  0.00    +0.000 C 
ENDBRANCH  18  19
BRANCH  18  25
ATOM     25  C   UNL     1       2.851   5.316  18.481  0.00  0.00    +0.000 A 
ATOM     26  C   UNL     1       2.239   4.361  17.687  0.00  0.00    +0.000 A 
ATOM     27  C   UNL     1       1.348   3.521  18.414  0.00  0.00    +0.000 A 
ATOM     28  C   UNL     1       1.298   3.856  19.746  0.00  0.00    +0.000 A 
ATOM     29  S   UNL     1       2.319   5.173  20.116  0.00  0.00    +0.000 S 
ENDBRANCH  18  25
ENDBRANCH  17  18
ENDBRANCH   3  17
TORSDOF 5
ENDMDL
MODEL 3
REMARK VINA RESULT:      -8.0      1.883      3.163
REMARK  Name = 
REMARK  6 active torsions:
REMARK  status: ('A' for Active; 'I' for Inactive)
REMARK    1  A    between atoms: C_1  and  N_2
REMARK    2  A    between atoms: C_4  and  C_5
REMARK    3  A    between atoms: N_7  and  C_8
REMARK    4  A    between atoms: C_8  and  C_9
REMARK    5  A    between atoms: C_9  and  C_10
REMARK    6  A    between atoms: C_9  and  N_15
REMARK                            x       y       z     vdW  Elec       q    Type
REMARK                         _______ _______ _______ _____ _____    ______ ____
ROOT
ATOM      1  C   UNL     1       1.322   9.723  18.101  0.00  0.00    +0.000 C 
ATOM      2  O   UNL     1       2.167  10.282  17.423  0.00  0.00    +0.000 OA
ATOM      3  N   UNL     1       1.288   8.364  18.327  0.00  0.00    +0.000 N 
ATOM      4  H   UNL     1       0.440   7.992  18.736  0.00  0.00    +0.000 HD
ENDROOT
BRANCH   1   8
ATOM      5  C   UNL     1      -0.114  12.431  21.801  0.00  0.00    +0.000 C 
ATOM      6  N   UNL     1      -0.479  11.832  20.532  0.00  0.00    +0.000 N 
ATOM      7  N   UNL     1       0.491  11.115  19.875  0.00  0.00    +0.000 NA
ATOM      8  C   UNL     1       0.177  10.495  18.773  0.00  0.00    +0.000 A 
ATOM      9  C   UNL     1      -1.176  10.529  18.173  0.00  0.00    +0.000 A 
ATOM     10  C   UNL     1      -1.536   9.858  16.997  0.00  0.00    +0.000 A 
ATOM     11  C   UNL     1      -2.848   9.919  16.518  0.00  0.00    +0.000 A 
ATOM     12  C   UNL     1      -3.807  10.672  17.191  0.00  0.00    +0.000 A 
ATOM     13  C   UNL     1      -3.452  11.359  18.349  0.00  0.00    +0.000 A 
ATOM     14  C   UNL     1      -2.140  11.279  18.840  0.00  0.00    +0.000 A 
ATOM     15  C   UNL     1      -1.787  11.981  20.086  0.00  0.00    +0.000 A 
ATOM     16  O   UNL     1      -2.641  12.643  20.674  0.00  0.00    +0.000 OA
ENDBRANCH   1   8
BRANCH   3  17
ATOM     17  C   UNL     1       2.338   7.502  17.816  0.00  0.00    +0.000 C 
BRANCH  17  18
ATOM     18  C   UNL     1       3.104   6.609  18.824  0.00  0.00    +0.000 C 
BRANCH  18  19
ATOM     19  N   UNL     1       4.481   6.215  18.525  0.00  0.00    +0.000 NA
ATOM     20  C   UNL     1       5.126   5.172  19.321  0.00  0.00    +0.000 C 
ATOM     21  C   UNL     1       6.647   5.330  19.145  0.00  0.00    +0.000 C 
ATOM     22  O   UNL     1       7.029   5.195  17.766  0.00  0.00    +0.000 OA
ATOM     23  C   UNL     1       6.330   6.151  16.952  0.00  0.00    +0.000 C 
ATOM     24  C   UNL     1       4.805   6.012  17.108  0.00  0.00    +0.000 C 
ENDBRANCH  18  19
BRANCH  18  25
ATOM     25  C   UNL     1       2.322   5.371  19.262  0.00  0.00    +0.000 A 
ATOM     26  C   UNL     1       1.876   4.989  20.517  0.00  0.00    +0.000 A 
ATOM     27  C   UNL     1       1.111   3.788  20.493  0.00  0.00    +0.000 A 
ATOM     28  C   UNL     1       0.992   3.280  19.222  0.00  0.00    +0.000 A 
ATOM     29  S   UNL     1       1.797   4.245  18.066  0.00  0.00    +0.000 S 
ENDBRANCH  18  25
ENDBRANCH  17  18
ENDBRANCH   3  17
TORSDOF 5
ENDMDL
MODEL 4
REMARK VINA RESULT:      -8.0      2.951      4.248
REMARK  Name = 
REMARK  6 active torsions:
REMARK  status: ('A' for Active; 'I' for Inactive)
REMARK    1  A    between atoms: C_1  and  N_2
REMARK    2  A    between atoms: C_4  and  C_5
REMARK    3  A    between atoms: N_7  and  C_8
REMARK    4  A    between atoms: C_8  and  C_9
REMARK    5  A    between atoms: C_9  and  C_10
REMARK    6  A    between atoms: C_9  and  N_15
REMARK                            x       y       z     vdW  Elec       q    Type
REMARK                         _______ _______ _______ _____ _____    ______ ____
ROOT
ATOM      1  C   UNL     1       1.827   9.050  18.410  0.00  0.00    +0.000 C 
ATOM      2  O   UNL     1       1.734   9.417  17.251  0.00  0.00    +0.000 OA
ATOM      3  N   UNL     1       2.463   7.893  18.805  0.00  0.00    +0.000 N 
ATOM      4  H   UNL     1       2.308   7.592  19.759  0.00  0.00    +0.000 HD
ENDROOT
BRANCH   1   8
ATOM      5  C   UNL     1      -0.559   8.969  22.579  0.00  0.00    +0.000 C 
ATOM      6  N   UNL     1       0.112   9.790  21.590  0.00  0.00    +0.000 N 
ATOM      7  N   UNL     1       0.676   9.143  20.518  0.00  0.00    +0.000 NA
ATOM      8  C   UNL     1       1.216   9.853  19.568  0.00  0.00    +0.000 A 
ATOM      9  C   UNL     1       1.271  11.332  19.583  0.00  0.00    +0.000 A 
ATOM     10  C   UNL     1       1.835  12.112  18.566  0.00  0.00    +0.000 A 
ATOM     11  C   UNL     1       1.816  13.508  18.648  0.00  0.00    +0.000 A 
ATOM     12  C   UNL     1       1.259  14.138  19.757  0.00  0.00    +0.000 A 
ATOM     13  C   UNL     1       0.715  13.370  20.783  0.00  0.00    +0.000 A 
ATOM     14  C   UNL     1       0.716  11.969  20.689  0.00  0.00    +0.000 A 
ATOM     15  C   UNL     1       0.105  11.169  21.764  0.00  0.00    +0.000 A 
ATOM     16  O   UNL     1      -0.385  11.734  22.740  0.00  0.00    +0.000 OA
ENDBRANCH   1   8
BRANCH   3  17
ATOM     17  C   UNL     1       3.149   7.057  17.837  0.00  0.00    +0.000 C 
BRANCH  17  18
ATOM     18  C   UNL     1       3.891   5.799  18.354  0.00  0.00    +0.000 C 
BRANCH  18  19
ATOM     19  N   UNL     1       5.101   5.351  17.665  0.00  0.00    +0.000 NA
ATOM     20  C   UNL     1       5.235   5.559  16.224  0.00  0.00    +0.000 C 
ATOM     21  C   UNL     1       6.300   4.575  15.711  0.00  0.00    +0.000 C 
ATOM     22  O   UNL     1       7.566   4.795  16.353  0.00  0.00    +0.000 OA
ATOM     23  C   UNL     1       7.435   4.691  17.781  0.00  0.00    +0.000 C 
ATOM     24  C   UNL     1       6.375   5.668  18.320  0.00  0.00    +0.000 C 
ENDBRANCH  18  19
BRANCH  18  25
ATOM     25  C   UNL     1       2.974   4.596  18.574  0.00  0.00    +0.000 A 
ATOM     26  C   UNL     1       1.750   4.285  18.007  0.00  0.00    +0.000 A 
ATOM     27  C   UNL     1       1.247   3.021  18.427  0.00  0.00    +0.000 A 
ATOM     28  C   UNL     1       2.098   2.397  19.308  0.00  0.00    +0.000 A 
ATOM     29  S   UNL     1       3.492   3.329  19.624  0.00  0.00    +0.000 S 
ENDBRANCH  18  25
ENDBRANCH  17  18
ENDBRANCH   3  17
TORSDOF 5
ENDMDL
MODEL 5
REMARK VINA RESULT:      -8.0      2.900      8.323
REMARK  Name = 
REMARK  6 active torsions:
REMARK  status: ('A' for Active; 'I' for Inactive)
REMARK    1  A    between atoms: C_1  and  N_2
REMARK    2  A    between atoms: C_4  and  C_5
REMARK    3  A    between atoms: N_7  and  C_8
REMARK    4  A    between atoms: C_8  and  C_9
REMARK    5  A    between atoms: C_9  and  C_10
REMARK    6  A    between atoms: C_9  and  N_15
REMARK                            x       y       z     vdW  Elec       q    Type
REMARK                         _______ _______ _______ _____ _____    ______ ____
ROOT
ATOM      1  C   UNL     1       2.089   7.291  19.490  0.00  0.00    +0.000 C 
ATOM      2  O   UNL     1       1.855   7.078  20.668  0.00  0.00    +0.000 OA
ATOM      3  N   UNL     1       1.718   8.439  18.824  0.00  0.00    +0.000 N 
ATOM      4  H   UNL     1       1.788   8.422  17.814  0.00  0.00    +0.000 HD
ENDROOT
BRANCH   1   8
ATOM      5  C   UNL     1       5.546   6.476  16.254  0.00  0.00    +0.000 C 
ATOM      6  N   UNL     1       4.518   5.892  17.093  0.00  0.00    +0.000 N 
ATOM      7  N   UNL     1       3.809   6.746  17.902  0.00  0.00    +0.000 NA
ATOM      8  C   UNL     1       2.824   6.269  18.610  0.00  0.00    +0.000 A 
ATOM      9  C   UNL     1       2.427   4.843  18.602  0.00  0.00    +0.000 A 
ATOM     10  C   UNL     1       1.362   4.316  19.344  0.00  0.00    +0.000 A 
ATOM     11  C   UNL     1       1.037   2.958  19.253  0.00  0.00    +0.000 A 
ATOM     12  C   UNL     1       1.786   2.110  18.443  0.00  0.00    +0.000 A 
ATOM     13  C   UNL     1       2.859   2.622  17.718  0.00  0.00    +0.000 A 
ATOM     14  C   UNL     1       3.171   3.989  17.795  0.00  0.00    +0.000 A 
ATOM     15  C   UNL     1       4.286   4.524  16.995  0.00  0.00    +0.000 A 
ATOM     16  O   UNL     1       4.942   3.768  16.281  0.00  0.00    +0.000 OA
ENDBRANCH   1   8
BRANCH   3  17
ATOM     17  C   UNL     1       1.074   9.530  19.531  0.00  0.00    +0.000 C 
BRANCH  17  18
ATOM     18  C   UNL     1       0.647  10.777  18.717  0.00  0.00    +0.000 C 
BRANCH  18  19
ATOM     19  N   UNL     1       0.976  12.109  19.225  0.00  0.00    +0.000 NA
ATOM     20  C   UNL     1       1.333  12.280  20.632  0.00  0.00    +0.000 C 
ATOM     21  C   UNL     1       1.121  13.762  20.986  0.00  0.00    +0.000 C 
ATOM     22  O   UNL     1       1.939  14.616  20.170  0.00  0.00    +0.000 OA
ATOM     23  C   UNL     1       1.672  14.392  18.776  0.00  0.00    +0.000 C 
ATOM     24  C   UNL     1       1.879  12.914  18.396  0.00  0.00    +0.000 C 
ENDBRANCH  18  19
BRANCH  18  25
ATOM     25  C   UNL     1      -0.822  10.759  18.296  0.00  0.00    +0.000 A 
ATOM     26  C   UNL     1      -1.502   9.903  17.446  0.00  0.00    +0.000 A 
ATOM     27  C   UNL     1      -2.896  10.183  17.373  0.00  0.00    +0.000 A 
ATOM     28  C   UNL     1      -3.249  11.248  18.167  0.00  0.00    +0.000 A 
ATOM     29  S   UNL     1      -1.908  11.904  18.994  0.00  0.00    +0.000 S 
ENDBRANCH  18  25
ENDBRANCH  17  18
ENDBRANCH   3  17
TORSDOF 5
ENDMDL
MODEL 6
REMARK VINA RESULT:      -7.9      1.137      1.205
REMARK  Name = 
REMARK  6 active torsions:
REMARK  status: ('A' for Active; 'I' for Inactive)
REMARK    1  A    between atoms: C_1  and  N_2
REMARK    2  A    between atoms: C_4  and  C_5
REMARK    3  A    between atoms: N_7  and  C_8
REMARK    4  A    between atoms: C_8  and  C_9
REMARK    5  A    between atoms: C_9  and  C_10
REMARK    6  A    between atoms: C_9  and  N_15
REMARK                            x       y       z     vdW  Elec       q    Type
REMARK                         _______ _______ _______ _____ _____    ______ ____
ROOT
ATOM      1  C   UNL     1       1.220   9.316  19.342  0.00  0.00    +0.000 C 
ATOM      2  O   UNL     1       2.005   9.490  18.426  0.00  0.00    +0.000 OA
ATOM      3  N   UNL     1       1.285   8.261  20.226  0.00  0.00    +0.000 N 
ATOM      4  H   UNL     1       0.477   8.111  20.816  0.00  0.00    +0.000 HD
ENDROOT
BRANCH   1   8
ATOM      5  C   UNL     1      -0.855  12.486  22.296  0.00  0.00    +0.000 C 
ATOM      6  N   UNL     1      -0.910  11.824  21.008  0.00  0.00    +0.000 N 
ATOM      7  N   UNL     1       0.103  10.946  20.711  0.00  0.00    +0.000 NA
ATOM      8  C   UNL     1       0.045  10.271  19.598  0.00  0.00    +0.000 A 
ATOM      9  C   UNL     1      -1.055  10.407  18.616  0.00  0.00    +0.000 A 
ATOM     10  C   UNL     1      -1.142   9.681  17.421  0.00  0.00    +0.000 A 
ATOM     11  C   UNL     1      -2.235   9.851  16.565  0.00  0.00    +0.000 A 
ATOM     12  C   UNL     1      -3.237  10.765  16.879  0.00  0.00    +0.000 A 
ATOM     13  C   UNL     1      -3.148  11.506  18.055  0.00  0.00    +0.000 A 
ATOM     14  C   UNL     1      -2.061  11.319  18.922  0.00  0.00    +0.000 A 
ATOM     15  C   UNL     1      -1.997  12.083  20.180  0.00  0.00    +0.000 A 
ATOM     16  O   UNL     1      -2.887  12.888  20.449  0.00  0.00    +0.000 OA
ENDBRANCH   1   8
BRANCH   3  17
ATOM     17  C   UNL     1       2.376   7.306  20.160  0.00  0.00    +0.000 C 
BRANCH  17  18
ATOM     18  C   UNL     1       2.397   6.302  18.981  0.00  0.00    +0.000 C 
BRANCH  18  19
ATOM     19  N   UNL     1       1.963   4.924  19.209  0.00  0.00    +0.000 NA
ATOM     20  C   UNL     1       1.116   4.611  20.359  0.00  0.00    +0.000 C 
ATOM     21  C   UNL     1       1.247   3.103  20.634  0.00  0.00    +0.000 C 
ATOM     22  O   UNL     1       0.831   2.327  19.499  0.00  0.00    +0.000 OA
ATOM     23  C   UNL     1       1.587   2.690  18.332  0.00  0.00    +0.000 C 
ATOM     24  C   UNL     1       1.470   4.196  18.034  0.00  0.00    +0.000 C 
ENDBRANCH  18  19
BRANCH  18  25
ATOM     25  C   UNL     1       3.722   6.281  18.218  0.00  0.00    +0.000 A 
ATOM     26  C   UNL     1       4.123   6.988  17.097  0.00  0.00    +0.000 A 
ATOM     27  C   UNL     1       5.477   6.735  16.735  0.00  0.00    +0.000 A 
ATOM     28  C   UNL     1       6.078   5.839  17.586  0.00  0.00    +0.000 A 
ATOM     29  S   UNL     1       5.016   5.308  18.813  0.00  0.00    +0.000 S 
ENDBRANCH  18  25
ENDBRANCH  17  18
ENDBRANCH   3  17
TORSDOF 5
ENDMDL
MODEL 7
REMARK VINA RESULT:      -7.9      2.321      3.699
REMARK  Name = 
REMARK  6 active torsions:
REMARK  status: ('A' for Active; 'I' for Inactive)
REMARK    1  A    between atoms: C_1  and  N_2
REMARK    2  A    between atoms: C_4  and  C_5
REMARK    3  A    between atoms: N_7  and  C_8
REMARK    4  A    between atoms: C_8  and  C_9
REMARK    5  A    between atoms: C_9  and  C_10
REMARK    6  A    between atoms: C_9  and  N_15
REMARK                            x       y       z     vdW  Elec       q    Type
REMARK                         _______ _______ _______ _____ _____    ______ ____
ROOT
ATOM      1  C   UNL     1       1.814   8.778  18.463  0.00  0.00    +0.000 C 
ATOM      2  O   UNL     1       2.071   9.339  17.411  0.00  0.00    +0.000 OA
ATOM      3  N   UNL     1       2.263   7.519  18.797  0.00  0.00    +0.000 N 
ATOM      4  H   UNL     1       1.830   7.080  19.599  0.00  0.00    +0.000 HD
ENDROOT
BRANCH   1   8
ATOM      5  C   UNL     1       0.919   9.396  23.143  0.00  0.00    +0.000 C 
ATOM      6  N   UNL     1       0.548   9.752  21.787  0.00  0.00    +0.000 N 
ATOM      7  N   UNL     1       1.286   9.198  20.769  0.00  0.00    +0.000 NA
ATOM      8  C   UNL     1       0.932   9.431  19.537  0.00  0.00    +0.000 A 
ATOM      9  C   UNL     1      -0.225  10.277  19.164  0.00  0.00    +0.000 A 
ATOM     10  C   UNL     1      -0.628  10.526  17.847  0.00  0.00    +0.000 A 
ATOM     11  C   UNL     1      -1.754  11.315  17.587  0.00  0.00    +0.000 A 
ATOM     12  C   UNL     1      -2.471  11.883  18.636  0.00  0.00    +0.000 A 
ATOM     13  C   UNL     1      -2.064  11.656  19.948  0.00  0.00    +0.000 A 
ATOM     14  C   UNL     1      -0.946  10.849  20.208  0.00  0.00    +0.000 A 
ATOM     15  C   UNL     1      -0.548  10.588  21.602  0.00  0.00    +0.000 A 
ATOM     16  O   UNL     1      -1.187  11.093  22.523  0.00  0.00    +0.000 OA
ENDBRANCH   1   8
BRANCH   3  17
ATOM     17  C   UNL     1       3.161   6.795  17.916  0.00  0.00    +0.000 C 
BRANCH  17  18
ATOM     18  C   UNL     1       3.957   5.602  18.504  0.00  0.00    +0.000 C 
BRANCH  18  19
ATOM     19  N   UNL     1       5.176   5.157  17.831  0.00  0.00    +0.000 NA
ATOM     20  C   UNL     1       5.242   5.161  16.370  0.00  0.00    +0.000 C 
ATOM     21  C   UNL     1       6.370   4.200  15.955  0.00  0.00    +0.000 C 
ATOM     22  O   UNL     1       7.634   4.614  16.499  0.00  0.00    +0.000 OA
ATOM     23  C   UNL     1       7.561   4.711  17.931  0.00  0.00    +0.000 C 
ATOM     24  C   UNL     1       6.440   5.668  18.373  0.00  0.00    +0.000 C 
ENDBRANCH  18  19
BRANCH  18  25
ATOM     25  C   UNL     1       3.090   4.382  18.813  0.00  0.00    +0.000 A 
ATOM     26  C   UNL     1       3.208   3.426  19.807  0.00  0.00    +0.000 A 
ATOM     27  C   UNL     1       2.143   2.481  19.800  0.00  0.00    +0.000 A 
ATOM     28  C   UNL     1       1.236   2.736  18.799  0.00  0.00    +0.000 A 
ATOM     29  S   UNL     1       1.667   4.106  17.876  0.00  0.00    +0.000 S 
ENDBRANCH  18  25
ENDBRANCH  17  18
ENDBRANCH   3  17
TORSDOF 5
ENDMDL
MODEL 8
REMARK VINA RESULT:      -7.8      1.448      2.687
REMARK  Name = 
REMARK  6 active torsions:
REMARK  status: ('A' for Active; 'I' for Inactive)
REMARK    1  A    between atoms: C_1  and  N_2
REMARK    2  A    between atoms: C_4  and  C_5
REMARK    3  A    between atoms: N_7  and  C_8
REMARK    4  A    between atoms: C_8  and  C_9
REMARK    5  A    between atoms: C_9  and  C_10
REMARK    6  A    between atoms: C_9  and  N_15
REMARK                            x       y       z     vdW  Elec       q    Type
REMARK                         _______ _______ _______ _____ _____    ______ ____
ROOT
ATOM      1  C   UNL     1       1.250   9.316  18.313  0.00  0.00    +0.000 C 
ATOM      2  O   UNL     1       2.149   9.642  17.556  0.00  0.00    +0.000 OA
ATOM      3  N   UNL     1       1.337   8.276  19.212  0.00  0.00    +0.000 N 
ATOM      4  H   UNL     1       0.473   7.974  19.644  0.00  0.00    +0.000 HD
ENDROOT
BRANCH   1   8
ATOM      5  C   UNL     1      -2.962  10.078  16.132  0.00  0.00    +0.000 C 
ATOM      6  N   UNL     1      -2.136  10.358  17.290  0.00  0.00    +0.000 N 
ATOM      7  N   UNL     1      -0.905   9.751  17.343  0.00  0.00    +0.000 NA
ATOM      8  C   UNL     1      -0.103  10.043  18.328  0.00  0.00    +0.000 A 
ATOM      9  C   UNL     1      -0.448  10.990  19.412  0.00  0.00    +0.000 A 
ATOM     10  C   UNL     1       0.406  11.326  20.470  0.00  0.00    +0.000 A 
ATOM     11  C   UNL     1       0.009  12.256  21.435  0.00  0.00    +0.000 A 
ATOM     12  C   UNL     1      -1.253  12.839  21.371  0.00  0.00    +0.000 A 
ATOM     13  C   UNL     1      -2.117  12.495  20.334  0.00  0.00    +0.000 A 
ATOM     14  C   UNL     1      -1.709  11.577  19.354  0.00  0.00    +0.000 A 
ATOM     15  C   UNL     1      -2.618  11.249  18.243  0.00  0.00    +0.000 A 
ATOM     16  O   UNL     1      -3.731  11.770  18.193  0.00  0.00    +0.000 OA
ENDBRANCH   1   8
BRANCH   3  17
ATOM     17  C   UNL     1       2.573   7.532  19.367  0.00  0.00    +0.000 C 
BRANCH  17  18
ATOM     18  C   UNL     1       2.699   6.166  18.647  0.00  0.00    +0.000 C 
BRANCH  18  19
ATOM     19  N   UNL     1       2.339   4.944  19.366  0.00  0.00    +0.000 NA
ATOM     20  C   UNL     1       1.868   5.027  20.748  0.00  0.00    +0.000 C 
ATOM     21  C   UNL     1       2.061   3.641  21.386  0.00  0.00    +0.000 C 
ATOM     22  O   UNL     1       1.319   2.633  20.680  0.00  0.00    +0.000 OA
ATOM     23  C   UNL     1       1.699   2.603  19.295  0.00  0.00    +0.000 C 
ATOM     24  C   UNL     1       1.513   3.979  18.631  0.00  0.00    +0.000 C 
ENDBRANCH  18  19
BRANCH  18  25
ATOM     25  C   UNL     1       4.051   5.956  17.965  0.00  0.00    +0.000 A 
ATOM     26  C   UNL     1       4.572   6.521  16.813  0.00  0.00    +0.000 A 
ATOM     27  C   UNL     1       5.911   6.114  16.551  0.00  0.00    +0.000 A 
ATOM     28  C   UNL     1       6.381   5.246  17.507  0.00  0.00    +0.000 A 
ATOM     29  S   UNL     1       5.215   4.925  18.712  0.00  0.00    +0.000 S 
ENDBRANCH  18  25
ENDBRANCH  17  18
ENDBRANCH   3  17
TORSDOF 5
ENDMDL
MODEL 9
REMARK VINA RESULT:      -7.8      2.461      4.418
REMARK  Name = 
REMARK  6 active torsions:
REMARK  status: ('A' for Active; 'I' for Inactive)
REMARK    1  A    between atoms: C_1  and  N_2
REMARK    2  A    between atoms: C_4  and  C_5
REMARK    3  A    between atoms: N_7  and  C_8
REMARK    4  A    between atoms: C_8  and  C_9
REMARK    5  A    between atoms: C_9  and  C_10
REMARK    6  A    between atoms: C_9  and  N_15
REMARK                            x       y       z     vdW  Elec       q    Type
REMARK                         _______ _______ _______ _____ _____    ______ ____
ROOT
ATOM      1  C   UNL     1       1.854   8.744  18.036  0.00  0.00    +0.000 C 
ATOM      2  O   UNL     1       2.647   9.242  17.254  0.00  0.00    +0.000 OA
ATOM      3  N   UNL     1       1.796   7.398  18.324  0.00  0.00    +0.000 N 
ATOM      4  H   UNL     1       0.981   7.075  18.829  0.00  0.00    +0.000 HD
ENDROOT
BRANCH   1   8
ATOM      5  C   UNL     1      -1.677  11.991  17.762  0.00  0.00    +0.000 C 
ATOM      6  N   UNL     1      -0.913  11.110  18.624  0.00  0.00    +0.000 N 
ATOM      7  N   UNL     1       0.049  10.330  18.030  0.00  0.00    +0.000 NA
ATOM      8  C   UNL     1       0.810   9.587  18.782  0.00  0.00    +0.000 A 
ATOM      9  C   UNL     1       0.689   9.523  20.257  0.00  0.00    +0.000 A 
ATOM     10  C   UNL     1       1.507   8.741  21.083  0.00  0.00    +0.000 A 
ATOM     11  C   UNL     1       1.343   8.765  22.471  0.00  0.00    +0.000 A 
ATOM     12  C   UNL     1       0.345   9.547  23.047  0.00  0.00    +0.000 A 
ATOM     13  C   UNL     1      -0.485  10.311  22.231  0.00  0.00    +0.000 A 
ATOM     14  C   UNL     1      -0.306  10.302  20.839  0.00  0.00    +0.000 A 
ATOM     15  C   UNL     1      -1.167  11.142  19.991  0.00  0.00    +0.000 A 
ATOM     16  O   UNL     1      -2.046  11.831  20.508  0.00  0.00    +0.000 OA
ENDBRANCH   1   8
BRANCH   3  17
ATOM     17  C   UNL     1       2.759   6.476  17.750  0.00  0.00    +0.000 C 
BRANCH  17  18
ATOM     18  C   UNL     1       3.854   5.893  18.679  0.00  0.00    +0.000 C 
BRANCH  18  19
ATOM     19  N   UNL     1       5.090   5.380  18.089  0.00  0.00    +0.000 NA
ATOM     20  C   UNL     1       5.207   5.261  16.637  0.00  0.00    +0.000 C 
ATOM     21  C   UNL     1       6.336   4.258  16.344  0.00  0.00    +0.000 C 
ATOM     22  O   UNL     1       7.586   4.703  16.896  0.00  0.00    +0.000 OA
ATOM     23  C   UNL     1       7.465   4.920  18.312  0.00  0.00    +0.000 C 
ATOM     24  C   UNL     1       6.341   5.922  18.632  0.00  0.00    +0.000 C 
ENDBRANCH  18  19
BRANCH  18  25
ATOM     25  C   UNL     1       3.324   4.868  19.681  0.00  0.00    +0.000 A 
ATOM     26  C   UNL     1       2.384   5.003  20.690  0.00  0.00    +0.000 A 
ATOM     27  C   UNL     1       2.112   3.778  21.364  0.00  0.00    +0.000 A 
ATOM     28  C   UNL     1       2.851   2.737  20.856  0.00  0.00    +0.000 A 
ATOM     29  S   UNL     1       3.865   3.234  19.575  0.00  0.00    +0.000 S 
ENDBRANCH  18  25
ENDBRANCH  17  18
ENDBRANCH   3  17
TORSDOF 5
ENDMDL
