MODEL 1
REMARK VINA RESULT:      -8.5      0.000      0.000
REMARK  Name = 
REMARK  6 active torsions:
REMARK  status: ('A' for Active; 'I' for Inactive)
REMARK    1  A    between atoms: C_1  and  C_2
REMARK    2  A    between atoms: C_2  and  C_3
REMARK    3  A    between atoms: C_2  and  C_4
REMARK    4  A    between atoms: C_7  and  C_8
REMARK    5  A    between atoms: C_8  and  C_9
REMARK    6  A    between atoms: C_8  and  N_10
REMARK                            x       y       z     vdW  Elec       q    Type
REMARK                         _______ _______ _______ _____ _____    ______ ____
ROOT
ATOM      1  C   UNL     1       5.840   4.761  17.564  0.00  0.00    +0.000 C 
ATOM      2  C   UNL     1       6.719   5.694  18.405  0.00  0.00    +0.000 C 
ENDROOT
BRANCH   1   3
ATOM      3  N   UNL     1       4.401   5.026  17.791  0.00  0.00    +0.000 NA
ATOM      4  C   UNL     1       3.450   4.001  17.362  0.00  0.00    +0.000 C 
ATOM      5  C   UNL     1       3.131   3.142  18.592  0.00  0.00    +0.000 C 
ATOM      6  C   UNL     1       1.742   2.506  18.519  0.00  0.00    +0.000 C 
ATOM      7  C   UNL     1       0.753   2.979  19.528  0.00  0.00    +0.000 C 
ATOM      8  C   UNL     1       1.052   3.761  20.566  0.00  0.00    +0.000 C 
ATOM      9  C   UNL     1       2.423   4.277  20.866  0.00  0.00    +0.000 C 
ATOM     10  C   UNL     1       3.493   4.026  19.795  0.00  0.00    +0.000 C 
ATOM     11  C   UNL     1       4.041   5.325  19.182  0.00  0.00    +0.000 C 
ENDBRANCH   1   3
BRANCH   1  15
ATOM     12  C   UNL     1       6.679   4.337  14.116  0.00  0.00    +0.000 A 
ATOM     13  N   UNL     1       7.502   5.358  14.389  0.00  0.00    +0.000 NA
ATOM     14  O   UNL     1       7.276   5.594  15.748  0.00  0.00    +0.000 OA
ATOM     15  C   UNL     1       6.313   4.708  16.142  0.00  0.00    +0.000 A 
ATOM     16  N   UNL     1       5.927   3.902  15.177  0.00  0.00    +0.000 NA
BRANCH  12  18
ATOM     17  C   UNL     1       5.124   3.493  12.369  0.00  0.00    +0.000 C 
ATOM     18  C   UNL     1       6.586   3.704  12.770  0.00  0.00    +0.000 C 
ATOM     19  C   UNL     1       7.307   4.544  11.714  0.00  0.00    +0.000 C 
ENDBRANCH  12  18
ENDBRANCH   1  15
TORSDOF 3
ENDMDL
MODEL 2
REMARK VINA RESULT:      -8.1      0.942      1.741
REMARK  Name = 
REMARK  6 active torsions:
REMARK  status: ('A' for Active; 'I' for Inactive)
REMARK    1  A    between atoms: C_1  and  C_2
REMARK    2  A    between atoms: C_2  and  C_3
REMARK    3  A    between atoms: C_2  and  C_4
REMARK    4  A    between atoms: C_7  and  C_8
REMARK    5  A    between atoms: C_8  and  C_9
REMARK    6  A    between atoms: C_8  and  N_10
REMARK                            x       y       z     vdW  Elec       q    Type
REMARK                         _______ _______ _______ _____ _____    ______ ____
ROOT
ATOM      1  C   UNL     1       5.322   5.890  17.353  0.00  0.00    +0.000 C 
ATOM      2  C   UNL     1       4.247   6.940  17.045  0.00  0.00    +0.000 C 
ENDROOT
BRANCH   1   3
ATOM      3  N   UNL     1       4.817   4.861  18.290  0.00  0.00    +0.000 NA
ATOM      4  C   UNL     1       4.183   5.323  19.524  0.00  0.00    +0.000 C 
ATOM      5  C   UNL     1       2.671   5.339  19.272  0.00  0.00    +0.000 C 
ATOM      6  C   UNL     1       1.860   5.141  20.554  0.00  0.00    +0.000 C 
ATOM      7  C   UNL     1       1.071   3.879  20.640  0.00  0.00    +0.000 C 
ATOM      8  C   UNL     1       0.895   3.032  19.626  0.00  0.00    +0.000 C 
ATOM      9  C   UNL     1       1.463   3.225  18.257  0.00  0.00    +0.000 C 
ATOM     10  C   UNL     1       2.457   4.382  18.090  0.00  0.00    +0.000 C 
ATOM     11  C   UNL     1       3.867   3.907  17.704  0.00  0.00    +0.000 C 
ENDBRANCH   1   3
BRANCH   1  15
ATOM     12  C   UNL     1       6.537   4.564  14.266  0.00  0.00    +0.000 A 
ATOM     13  N   UNL     1       7.628   5.257  14.617  0.00  0.00    +0.000 NA
ATOM     14  O   UNL     1       7.269   5.807  15.852  0.00  0.00    +0.000 OA
ATOM     15  C   UNL     1       5.985   5.410  16.097  0.00  0.00    +0.000 A 
ATOM     16  N   UNL     1       5.498   4.629  15.158  0.00  0.00    +0.000 NA
BRANCH  12  18
ATOM     17  C   UNL     1       4.997   3.630  12.552  0.00  0.00    +0.000 C 
ATOM     18  C   UNL     1       6.450   3.766  13.010  0.00  0.00    +0.000 C 
ATOM     19  C   UNL     1       7.297   4.391  11.900  0.00  0.00    +0.000 C 
ENDBRANCH  12  18
ENDBRANCH   1  15
TORSDOF 3
ENDMDL
MODEL 3
REMARK VINA RESULT:      -8.1      0.991      1.279
REMARK  Name = 
REMARK  6 active torsions:
REMARK  status: ('A' for Active; 'I' for Inactive)
REMARK    1  A    between atoms: C_1  and  C_2
REMARK    2  A    between atoms: C_2  and  C_3
REMARK    3  A    between atoms: C_2  and  C_4
REMARK    4  A    between atoms: C_7  and  C_8
REMARK    5  A    between atoms: C_8  and  C_9
REMARK    6  A    between atoms: C_8  and  N_10
REMARK                            x       y       z     vdW  Elec       q    Type
REMARK                         _______ _______ _______ _____ _____    ______ ____
ROOT
ATOM      1  C   UNL     1       6.492   4.340  17.139  0.00  0.00    +0.000 C 
ATOM      2  C   UNL     1       7.550   5.138  17.910  0.00  0.00    +0.000 C 
ENDROOT
BRANCH   1   3
ATOM      3  N   UNL     1       5.130   4.615  17.651  0.00  0.00    +0.000 NA
ATOM      4  C   UNL     1       4.012   3.934  16.997  0.00  0.00    +0.000 C 
ATOM      5  C   UNL     1       3.699   2.685  17.829  0.00  0.00    +0.000 C 
ATOM      6  C   UNL     1       2.236   2.255  17.712  0.00  0.00    +0.000 C 
ATOM      7  C   UNL     1       1.420   2.367  18.954  0.00  0.00    +0.000 C 
ATOM      8  C   UNL     1       1.919   2.637  20.160  0.00  0.00    +0.000 C 
ATOM      9  C   UNL     1       3.369   2.869  20.441  0.00  0.00    +0.000 C 
ATOM     10  C   UNL     1       4.289   2.977  19.217  0.00  0.00    +0.000 C 
ATOM     11  C   UNL     1       4.948   4.360  19.085  0.00  0.00    +0.000 C 
ENDBRANCH   1   3
BRANCH   1  15
ATOM     12  C   UNL     1       6.686   4.326  13.571  0.00  0.00    +0.000 A 
ATOM     13  N   UNL     1       7.610   5.266  13.808  0.00  0.00    +0.000 NA
ATOM     14  O   UNL     1       7.640   5.335  15.204  0.00  0.00    +0.000 OA
ATOM     15  C   UNL     1       6.704   4.449  15.658  0.00  0.00    +0.000 A 
ATOM     16  N   UNL     1       6.103   3.791  14.691  0.00  0.00    +0.000 NA
BRANCH  12  18
ATOM     17  C   UNL     1       7.322   2.846  11.676  0.00  0.00    +0.000 C 
ATOM     18  C   UNL     1       6.317   3.875  12.199  0.00  0.00    +0.000 C 
ATOM     19  C   UNL     1       4.902   3.293  12.171  0.00  0.00    +0.000 C 
ENDBRANCH  12  18
ENDBRANCH   1  15
TORSDOF 3
ENDMDL
MODEL 4
REMARK VINA RESULT:      -7.6      1.158      1.895
REMARK  Name = 
REMARK  6 active torsions:
REMARK  status: ('A' for Active; 'I' for Inactive)
REMARK    1  A    between atoms: C_1  and  C_2
REMARK    2  A    between atoms: C_2  and  C_3
REMARK    3  A    between atoms: C_2  and  C_4
REMARK    4  A    between atoms: C_7  and  C_8
REMARK    5  A    between atoms: C_8  and  C_9
REMARK    6  A    between atoms: C_8  and  N_10
REMARK                            x       y       z     vdW  Elec       q    Type
REMARK                         _______ _______ _______ _____ _____    ______ ____
ROOT
ATOM      1  C   UNL     1       6.920   4.802  17.670  0.00  0.00    +0.000 C 
ATOM      2  C   UNL     1       7.389   6.193  18.118  0.00  0.00    +0.000 C 
ENDROOT
BRANCH   1   3
ATOM      3  N   UNL     1       5.903   4.253  18.596  0.00  0.00    +0.000 NA
ATOM      4  C   UNL     1       5.218   5.194  19.483  0.00  0.00    +0.000 C 
ATOM      5  C   UNL     1       3.896   5.568  18.804  0.00  0.00    +0.000 C 
ATOM      6  C   UNL     1       2.812   5.964  19.808  0.00  0.00    +0.000 C 
ATOM      7  C   UNL     1       1.638   5.050  19.897  0.00  0.00    +0.000 C 
ATOM      8  C   UNL     1       1.401   4.045  19.054  0.00  0.00    +0.000 C 
ATOM      9  C   UNL     1       2.280   3.689  17.898  0.00  0.00    +0.000 C 
ATOM     10  C   UNL     1       3.623   4.427  17.812  0.00  0.00    +0.000 C 
ATOM     11  C   UNL     1       4.831   3.486  17.949  0.00  0.00    +0.000 C 
ENDBRANCH   1   3
BRANCH   1  15
ATOM     12  C   UNL     1       6.275   4.364  14.183  0.00  0.00    +0.000 A 
ATOM     13  N   UNL     1       5.812   5.615  14.307  0.00  0.00    +0.000 NA
ATOM     14  O   UNL     1       6.045   5.908  15.654  0.00  0.00    +0.000 OA
ATOM     15  C   UNL     1       6.596   4.786  16.206  0.00  0.00    +0.000 A 
ATOM     16  N   UNL     1       6.774   3.815  15.336  0.00  0.00    +0.000 NA
BRANCH  12  18
ATOM     17  C   UNL     1       4.860   3.579  12.295  0.00  0.00    +0.000 C 
ATOM     18  C   UNL     1       6.268   3.617  12.893  0.00  0.00    +0.000 C 
ATOM     19  C   UNL     1       7.249   4.233  11.894  0.00  0.00    +0.000 C 
ENDBRANCH  12  18
ENDBRANCH   1  15
TORSDOF 3
ENDMDL
MODEL 5
REMARK VINA RESULT:      -7.6      1.274      1.674
REMARK  Name = 
REMARK  6 active torsions:
REMARK  status: ('A' for Active; 'I' for Inactive)
REMARK    1  A    between atoms: C_1  and  C_2
REMARK    2  A    between atoms: C_2  and  C_3
REMARK    3  A    between atoms: C_2  and  C_4
REMARK    4  A    between atoms: C_7  and  C_8
REMARK    5  A    between atoms: C_8  and  C_9
REMARK    6  A    between atoms: C_8  and  N_10
REMARK                            x       y       z     vdW  Elec       q    Type
REMARK                         _______ _______ _______ _____ _____    ______ ____
ROOT
ATOM      1  C   UNL     1       6.813   4.821  18.124  0.00  0.00    +0.000 C 
ATOM      2  C   UNL     1       7.599   6.039  18.625  0.00  0.00    +0.000 C 
ENDROOT
BRANCH   1   3
ATOM      3  N   UNL     1       5.603   4.585  18.944  0.00  0.00    +0.000 NA
ATOM      4  C   UNL     1       4.407   5.363  18.622  0.00  0.00    +0.000 C 
ATOM      5  C   UNL     1       3.537   4.490  17.711  0.00  0.00    +0.000 C 
ATOM      6  C   UNL     1       2.049   4.825  17.823  0.00  0.00    +0.000 C 
ATOM      7  C   UNL     1       1.181   3.762  18.406  0.00  0.00    +0.000 C 
ATOM      8  C   UNL     1       1.584   2.516  18.656  0.00  0.00    +0.000 C 
ATOM      9  C   UNL     1       2.963   2.005  18.389  0.00  0.00    +0.000 C 
ATOM     10  C   UNL     1       4.007   3.051  17.974  0.00  0.00    +0.000 C 
ATOM     11  C   UNL     1       5.152   3.189  18.991  0.00  0.00    +0.000 C 
ENDBRANCH   1   3
BRANCH   1  15
ATOM     12  C   UNL     1       6.434   4.512  14.585  0.00  0.00    +0.000 A 
ATOM     13  N   UNL     1       6.221   5.830  14.684  0.00  0.00    +0.000 NA
ATOM     14  O   UNL     1       6.377   6.074  16.052  0.00  0.00    +0.000 OA
ATOM     15  C   UNL     1       6.636   4.866  16.636  0.00  0.00    +0.000 A 
ATOM     16  N   UNL     1       6.699   3.877  15.771  0.00  0.00    +0.000 NA
BRANCH  12  18
ATOM     17  C   UNL     1       4.976   3.709  12.737  0.00  0.00    +0.000 C 
ATOM     18  C   UNL     1       6.402   3.778  13.287  0.00  0.00    +0.000 C 
ATOM     19  C   UNL     1       7.332   4.430  12.262  0.00  0.00    +0.000 C 
ENDBRANCH  12  18
ENDBRANCH   1  15
TORSDOF 3
ENDMDL
MODEL 6
REMARK VINA RESULT:      -7.5      1.678      6.621
REMARK  Name = 
REMARK  6 active torsions:
REMARK  status: ('A' for Active; 'I' for Inactive)
REMARK    1  A    between atoms: C_1  and  C_2
REMARK    2  A    between atoms: C_2  and  C_3
REMARK    3  A    between atoms: C_2  and  C_4
REMARK    4  A    between atoms: C_7  and  C_8
REMARK    5  A    between atoms: C_8  and  C_9
REMARK    6  A    between atoms: C_8  and  N_10
REMARK                            x       y       z     vdW  Elec       q    Type
REMARK                         _______ _______ _______ _____ _____    ______ ____
ROOT
ATOM      1  C   UNL     1       5.796   4.927  17.688  0.00  0.00    +0.000 C 
ATOM      2  C   UNL     1       6.836   5.646  18.557  0.00  0.00    +0.000 C 
ENDROOT
BRANCH   1   3
ATOM      3  N   UNL     1       6.445   4.109  16.638  0.00  0.00    +0.000 NA
ATOM      4  C   UNL     1       5.575   3.428  15.679  0.00  0.00    +0.000 C 
ATOM      5  C   UNL     1       5.487   4.326  14.439  0.00  0.00    +0.000 C 
ATOM      6  C   UNL     1       5.213   3.533  13.159  0.00  0.00    +0.000 C 
ATOM      7  C   UNL     1       6.308   3.526  12.148  0.00  0.00    +0.000 C 
ATOM      8  C   UNL     1       7.397   4.291  12.213  0.00  0.00    +0.000 C 
ATOM      9  C   UNL     1       7.679   5.266  13.311  0.00  0.00    +0.000 C 
ATOM     10  C   UNL     1       6.728   5.228  14.515  0.00  0.00    +0.000 C 
ATOM     11  C   UNL     1       7.432   4.825  15.820  0.00  0.00    +0.000 C 
ENDBRANCH   1   3
BRANCH   1  15
ATOM     12  C   UNL     1       3.030   3.557  19.488  0.00  0.00    +0.000 A 
ATOM     13  N   UNL     1       4.004   2.831  20.053  0.00  0.00    +0.000 NA
ATOM     14  O   UNL     1       5.160   3.313  19.433  0.00  0.00    +0.000 OA
ATOM     15  C   UNL     1       4.754   4.259  18.533  0.00  0.00    +0.000 A 
ATOM     16  N   UNL     1       3.453   4.456  18.543  0.00  0.00    +0.000 NA
BRANCH  12  18
ATOM     17  C   UNL     1       0.865   2.500  18.869  0.00  0.00    +0.000 C 
ATOM     18  C   UNL     1       1.593   3.417  19.856  0.00  0.00    +0.000 C 
ATOM     19  C   UNL     1       1.438   2.886  21.282  0.00  0.00    +0.000 C 
ENDBRANCH  12  18
ENDBRANCH   1  15
TORSDOF 3
ENDMDL
MODEL 7
REMARK VINA RESULT:      -7.4      1.239      2.032
REMARK  Name = 
REMARK  6 active torsions:
REMARK  status: ('A' for Active; 'I' for Inactive)
REMARK    1  A    between atoms: C_1  and  C_2
REMARK    2  A    between atoms: C_2  and  C_3
REMARK    3  A    between atoms: C_2  and  C_4
REMARK    4  A    between atoms: C_7  and  C_8
REMARK    5  A    between atoms: C_8  and  C_9
REMARK    6  A    between atoms: C_8  and  N_10
REMARK                            x       y       z     vdW  Elec       q    Type
REMARK                         _______ _______ _______ _____ _____    ______ ____
ROOT
ATOM      1  C   UNL     1       5.242   6.094  17.831  0.00  0.00    +0.000 C 
ATOM      2  C   UNL     1       4.098   7.042  17.450  0.00  0.00    +0.000 C 
ENDROOT
BRANCH   1   3
ATOM      3  N   UNL     1       4.791   5.066  18.797  0.00  0.00    +0.000 NA
ATOM      4  C   UNL     1       3.648   5.396  19.649  0.00  0.00    +0.000 C 
ATOM      5  C   UNL     1       2.402   4.811  18.974  0.00  0.00    +0.000 C 
ATOM      6  C   UNL     1       1.297   4.472  19.975  0.00  0.00    +0.000 C 
ATOM      7  C   UNL     1       0.971   3.025  20.125  0.00  0.00    +0.000 C 
ATOM      8  C   UNL     1       1.443   2.062  19.334  0.00  0.00    +0.000 C 
ATOM      9  C   UNL     1       2.368   2.294  18.182  0.00  0.00    +0.000 C 
ATOM     10  C   UNL     1       2.936   3.713  18.042  0.00  0.00    +0.000 C 
ATOM     11  C   UNL     1       4.464   3.764  18.204  0.00  0.00    +0.000 C 
ENDBRANCH   1   3
BRANCH   1  15
ATOM     12  C   UNL     1       6.675   5.111  14.709  0.00  0.00    +0.000 A 
ATOM     13  N   UNL     1       7.682   4.735  15.508  0.00  0.00    +0.000 NA
ATOM     14  O   UNL     1       7.209   5.052  16.785  0.00  0.00    +0.000 OA
ATOM     15  C   UNL     1       5.977   5.617  16.614  0.00  0.00    +0.000 A 
ATOM     16  N   UNL     1       5.597   5.659  15.356  0.00  0.00    +0.000 NA
BRANCH  12  18
ATOM     17  C   UNL     1       8.093   5.258  12.672  0.00  0.00    +0.000 C 
ATOM     18  C   UNL     1       6.703   4.941  13.228  0.00  0.00    +0.000 C 
ATOM     19  C   UNL     1       6.284   3.526  12.827  0.00  0.00    +0.000 C 
ENDBRANCH  12  18
ENDBRANCH   1  15
TORSDOF 3
ENDMDL
MODEL 8
REMARK VINA RESULT:      -7.4      1.308      1.361
REMARK  Name = 
REMARK  6 active torsions:
REMARK  status: ('A' for Active; 'I' for Inactive)
REMARK    1  A    between atoms: C_1  and  C_2
REMARK    2  A    between atoms: C_2  and  C_3
REMARK    3  A    between atoms: C_2  and  C_4
REMARK    4  A    between atoms: C_7  and  C_8
REMARK    5  A    between atoms: C_8  and  C_9
REMARK    6  A    between atoms: C_8  and  N_10
REMARK                            x       y       z     vdW  Elec       q    Type
REMARK                         _______ _______ _______ _____ _____    ______ ____
ROOT
ATOM      1  C   UNL     1       4.686   6.060  17.241  0.00  0.00    +0.000 C 
ATOM      2  C   UNL     1       4.401   7.525  16.885  0.00  0.00    +0.000 C 
ENDROOT
BRANCH   1   3
ATOM      3  N   UNL     1       3.433   5.316  17.506  0.00  0.00    +0.000 NA
ATOM      4  C   UNL     1       3.544   3.883  17.775  0.00  0.00    +0.000 C 
ATOM      5  C   UNL     1       3.559   3.713  19.299  0.00  0.00    +0.000 C 
ATOM      6  C   UNL     1       3.011   2.356  19.743  0.00  0.00    +0.000 C 
ATOM      7  C   UNL     1       1.737   2.387  20.515  0.00  0.00    +0.000 C 
ATOM      8  C   UNL     1       1.165   3.498  20.979  0.00  0.00    +0.000 C 
ATOM      9  C   UNL     1       1.719   4.874  20.792  0.00  0.00    +0.000 C 
ATOM     10  C   UNL     1       2.922   4.999  19.846  0.00  0.00    +0.000 C 
ATOM     11  C   UNL     1       2.619   5.852  18.604  0.00  0.00    +0.000 C 
ENDBRANCH   1   3
BRANCH   1  15
ATOM     12  C   UNL     1       6.697   4.633  14.655  0.00  0.00    +0.000 A 
ATOM     13  N   UNL     1       7.623   4.662  15.622  0.00  0.00    +0.000 NA
ATOM     14  O   UNL     1       6.925   5.187  16.714  0.00  0.00    +0.000 OA
ATOM     15  C   UNL     1       5.657   5.449  16.276  0.00  0.00    +0.000 A 
ATOM     16  N   UNL     1       5.464   5.108  15.020  0.00  0.00    +0.000 NA
BRANCH  12  18
ATOM     17  C   UNL     1       5.676   3.642  12.616  0.00  0.00    +0.000 C 
ATOM     18  C   UNL     1       6.969   4.115  13.284  0.00  0.00    +0.000 C 
ATOM     19  C   UNL     1       7.652   5.176  12.419  0.00  0.00    +0.000 C 
ENDBRANCH  12  18
ENDBRANCH   1  15
TORSDOF 3
ENDMDL
MODEL 9
REMARK VINA RESULT:      -7.2      1.068      1.932
REMARK  Name = 
REMARK  6 active torsions:
REMARK  status: ('A' for Active; 'I' for Inactive)
REMARK    1  A    between atoms: C_1  and  C_2
REMARK    2  A    between atoms: C_2  and  C_3
REMARK    3  A    between atoms: C_2  and  C_4
REMARK    4  A    between atoms: C_7  and  C_8
REMARK    5  A    between atoms: C_8  and  C_9
REMARK    6  A    between atoms: C_8  and  N_10
REMARK                            x       y       z     vdW  Elec       q    Type
REMARK                         _______ _______ _______ _____ _____    ______ ____
ROOT
ATOM      1  C   UNL     1       5.710   5.312  16.697  0.00  0.00    +0.000 C 
ATOM      2  C   UNL     1       4.893   6.610  16.725  0.00  0.00    +0.000 C 
ENDROOT
BRANCH   1   3
ATOM      3  N   UNL     1       5.035   4.234  17.455  0.00  0.00    +0.000 NA
ATOM      4  C   UNL     1       4.862   4.427  18.895  0.00  0.00    +0.000 C 
ATOM      5  C   UNL     1       3.450   4.986  19.105  0.00  0.00    +0.000 C 
ATOM      6  C   UNL     1       2.876   4.627  20.477  0.00  0.00    +0.000 C 
ATOM      7  C   UNL     1       1.700   3.712  20.475  0.00  0.00    +0.000 C 
ATOM      8  C   UNL     1       1.032   3.349  19.380  0.00  0.00    +0.000 C 
ATOM      9  C   UNL     1       1.367   3.805  17.996  0.00  0.00    +0.000 C 
ATOM     10  C   UNL     1       2.676   4.591  17.839  0.00  0.00    +0.000 C 
ATOM     11  C   UNL     1       3.704   3.868  16.954  0.00  0.00    +0.000 C 
ENDBRANCH   1   3
BRANCH   1  15
ATOM     12  C   UNL     1       6.424   4.367  13.326  0.00  0.00    +0.000 A 
ATOM     13  N   UNL     1       7.551   5.045  13.576  0.00  0.00    +0.000 NA
ATOM     14  O   UNL     1       7.392   5.446  14.906  0.00  0.00    +0.000 OA
ATOM     15  C   UNL     1       6.166   4.991  15.305  0.00  0.00    +0.000 A 
ATOM     16  N   UNL     1       5.541   4.306  14.373  0.00  0.00    +0.000 NA
BRANCH  12  18
ATOM     17  C   UNL     1       7.054   2.499  11.809  0.00  0.00    +0.000 C 
ATOM     18  C   UNL     1       6.143   3.710  12.017  0.00  0.00    +0.000 C 
ATOM     19  C   UNL     1       4.675   3.290  11.916  0.00  0.00    +0.000 C 
ENDBRANCH  12  18
ENDBRANCH   1  15
TORSDOF 3
ENDMDL
