MODEL 1
REMARK VINA RESULT:      -6.4      0.000      0.000
REMARK  Name = 
REMARK  7 active torsions:
REMARK  status: ('A' for Active; 'I' for Inactive)
REMARK    1  A    between atoms: C_1  and  C_2
REMARK    2  A    between atoms: C_2  and  C_3
REMARK    3  A    between atoms: C_6  and  C_7
REMARK    4  A    between atoms: C_10  and  N_11
REMARK    5  A    between atoms: N_12  and  N_13
REMARK    6  A    between atoms: N_13  and  C_14
REMARK    7  A    between atoms: N_13  and  C_15
REMARK                            x       y       z     vdW  Elec       q    Type
REMARK                         _______ _______ _______ _____ _____    ______ ____
ROOT
ATOM      1  C   UNL     1       5.978   4.385  14.444  0.00  0.00    +0.000 A 
ATOM      2  N   UNL     1       7.055   5.210  14.281  0.00  0.00    +0.000 N 
ATOM      3  N   UNL     1       7.593   5.652  15.432  0.00  0.00    +0.000 NA
ATOM      4  C   UNL     1       6.818   5.093  16.392  0.00  0.00    +0.000 A 
ATOM      5  C   UNL     1       5.788   4.319  15.808  0.00  0.00    +0.000 A 
ATOM      6  H   UNL     1       7.496   5.487  13.409  0.00  0.00    +0.000 HD
ENDROOT
BRANCH   4   7
ATOM      7  C   UNL     1       7.104   5.293  17.817  0.00  0.00    +0.000 C 
ATOM      8  N   UNL     1       6.719   4.248  18.614  0.00  0.00    +0.000 N 
ATOM      9  O   UNL     1       7.627   6.292  18.301  0.00  0.00    +0.000 OA
ATOM     10  H   UNL     1       6.262   3.452  18.185  0.00  0.00    +0.000 HD
ATOM     11  H   UNL     1       6.843   4.309  19.613  0.00  0.00    +0.000 HD
ENDBRANCH   4   7
BRANCH   1  13
ATOM     12  C   UNL     1       6.270   3.355  12.190  0.00  0.00    +0.000 C 
ATOM     13  C   UNL     1       5.296   3.730  13.296  0.00  0.00    +0.000 C 
ENDBRANCH   1  13
BRANCH   5  14
ATOM     14  N   UNL     1       4.868   3.532  16.503  0.00  0.00    +0.000 NA
ATOM     15  N   UNL     1       3.897   4.176  16.943  0.00  0.00    +0.000 NA
BRANCH  15  16
ATOM     16  N   UNL     1       2.891   3.387  17.431  0.00  0.00    +0.000 N 
ATOM     17  C   UNL     1       3.127   2.056  17.966  0.00  0.00    +0.000 C 
ATOM     18  C   UNL     1       1.691   4.080  17.854  0.00  0.00    +0.000 C 
ENDBRANCH  15  16
ENDBRANCH   5  14
TORSDOF 4
ENDMDL
MODEL 2
REMARK VINA RESULT:      -6.3      1.144      1.284
REMARK  Name = 
REMARK  7 active torsions:
REMARK  status: ('A' for Active; 'I' for Inactive)
REMARK    1  A    between atoms: C_1  and  C_2
REMARK    2  A    between atoms: C_2  and  C_3
REMARK    3  A    between atoms: C_6  and  C_7
REMARK    4  A    between atoms: C_10  and  N_11
REMARK    5  A    between atoms: N_12  and  N_13
REMARK    6  A    between atoms: N_13  and  C_14
REMARK    7  A    between atoms: N_13  and  C_15
REMARK                            x       y       z     vdW  Elec       q    Type
REMARK                         _______ _______ _______ _____ _____    ______ ____
ROOT
ATOM      1  C   UNL     1       6.023   4.480  15.420  0.00  0.00    +0.000 A 
ATOM      2  N   UNL     1       7.360   4.556  15.685  0.00  0.00    +0.000 N 
ATOM      3  N   UNL     1       7.660   4.685  16.991  0.00  0.00    +0.000 NA
ATOM      4  C   UNL     1       6.451   4.704  17.603  0.00  0.00    +0.000 A 
ATOM      5  C   UNL     1       5.412   4.603  16.649  0.00  0.00    +0.000 A 
ATOM      6  H   UNL     1       8.128   4.494  15.023  0.00  0.00    +0.000 HD
ENDROOT
BRANCH   4   7
ATOM      7  C   UNL     1       6.336   4.786  19.063  0.00  0.00    +0.000 C 
ATOM      8  N   UNL     1       5.351   3.995  19.590  0.00  0.00    +0.000 N 
ATOM      9  O   UNL     1       7.027   5.494  19.789  0.00  0.00    +0.000 OA
ATOM     10  H   UNL     1       4.778   3.447  18.958  0.00  0.00    +0.000 HD
ATOM     11  H   UNL     1       5.173   4.012  20.582  0.00  0.00    +0.000 HD
ENDBRANCH   4   7
BRANCH   1  13
ATOM     12  C   UNL     1       6.592   3.860  13.071  0.00  0.00    +0.000 C 
ATOM     13  C   UNL     1       5.495   4.254  14.047  0.00  0.00    +0.000 C 
ENDBRANCH   1  13
BRANCH   5  14
ATOM     14  N   UNL     1       4.050   4.499  16.938  0.00  0.00    +0.000 NA
ATOM     15  N   UNL     1       3.677   3.331  17.156  0.00  0.00    +0.000 NA
BRANCH  15  16
ATOM     16  N   UNL     1       2.404   3.245  17.650  0.00  0.00    +0.000 N 
ATOM     17  C   UNL     1       1.941   2.111  18.435  0.00  0.00    +0.000 C 
ATOM     18  C   UNL     1       1.695   4.500  17.799  0.00  0.00    +0.000 C 
ENDBRANCH  15  16
ENDBRANCH   5  14
TORSDOF 4
ENDMDL
MODEL 3
REMARK VINA RESULT:      -6.1      0.528      1.046
REMARK  Name = 
REMARK  7 active torsions:
REMARK  status: ('A' for Active; 'I' for Inactive)
REMARK    1  A    between atoms: C_1  and  C_2
REMARK    2  A    between atoms: C_2  and  C_3
REMARK    3  A    between atoms: C_6  and  C_7
REMARK    4  A    between atoms: C_10  and  N_11
REMARK    5  A    between atoms: N_12  and  N_13
REMARK    6  A    between atoms: N_13  and  C_14
REMARK    7  A    between atoms: N_13  and  C_15
REMARK                            x       y       z     vdW  Elec       q    Type
REMARK                         _______ _______ _______ _____ _____    ______ ____
ROOT
ATOM      1  C   UNL     1       6.067   4.648  14.909  0.00  0.00    +0.000 A 
ATOM      2  N   UNL     1       7.138   5.479  14.740  0.00  0.00    +0.000 N 
ATOM      3  N   UNL     1       7.654   5.956  15.887  0.00  0.00    +0.000 NA
ATOM      4  C   UNL     1       6.870   5.414  16.850  0.00  0.00    +0.000 A 
ATOM      5  C   UNL     1       5.857   4.615  16.270  0.00  0.00    +0.000 A 
ATOM      6  H   UNL     1       7.589   5.739  13.868  0.00  0.00    +0.000 HD
ENDROOT
BRANCH   4   7
ATOM      7  C   UNL     1       7.132   5.653  18.273  0.00  0.00    +0.000 C 
ATOM      8  N   UNL     1       6.525   4.755  19.110  0.00  0.00    +0.000 N 
ATOM      9  O   UNL     1       7.816   6.567  18.723  0.00  0.00    +0.000 OA
ATOM     10  H   UNL     1       5.942   4.032  18.706  0.00  0.00    +0.000 HD
ATOM     11  H   UNL     1       6.619   4.860  20.108  0.00  0.00    +0.000 HD
ENDBRANCH   4   7
BRANCH   1  13
ATOM     12  C   UNL     1       6.386   3.649  12.644  0.00  0.00    +0.000 C 
ATOM     13  C   UNL     1       5.408   3.957  13.768  0.00  0.00    +0.000 C 
ENDBRANCH   1  13
BRANCH   5  14
ATOM     14  N   UNL     1       4.934   3.836  16.972  0.00  0.00    +0.000 NA
ATOM     15  N   UNL     1       3.933   4.474  17.349  0.00  0.00    +0.000 NA
BRANCH  15  16
ATOM     16  N   UNL     1       2.932   3.682  17.841  0.00  0.00    +0.000 N 
ATOM     17  C   UNL     1       1.535   4.088  17.835  0.00  0.00    +0.000 C 
ATOM     18  C   UNL     1       3.220   2.263  17.907  0.00  0.00    +0.000 C 
ENDBRANCH  15  16
ENDBRANCH   5  14
TORSDOF 4
ENDMDL
MODEL 4
REMARK VINA RESULT:      -5.9      1.103      1.186
REMARK  Name = 
REMARK  7 active torsions:
REMARK  status: ('A' for Active; 'I' for Inactive)
REMARK    1  A    between atoms: C_1  and  C_2
REMARK    2  A    between atoms: C_2  and  C_3
REMARK    3  A    between atoms: C_6  and  C_7
REMARK    4  A    between atoms: C_10  and  N_11
REMARK    5  A    between atoms: N_12  and  N_13
REMARK    6  A    between atoms: N_13  and  C_14
REMARK    7  A    between atoms: N_13  and  C_15
REMARK                            x       y       z     vdW  Elec       q    Type
REMARK                         _______ _______ _______ _____ _____    ______ ____
ROOT
ATOM      1  C   UNL     1       6.137   4.770  15.351  0.00  0.00    +0.000 A 
ATOM      2  N   UNL     1       7.223   5.595  15.286  0.00  0.00    +0.000 N 
ATOM      3  N   UNL     1       7.680   6.005  16.483  0.00  0.00    +0.000 NA
ATOM      4  C   UNL     1       6.839   5.422  17.371  0.00  0.00    +0.000 A 
ATOM      5  C   UNL     1       5.852   4.668  16.696  0.00  0.00    +0.000 A 
ATOM      6  H   UNL     1       7.724   5.895  14.455  0.00  0.00    +0.000 HD
ENDROOT
BRANCH   4   7
ATOM      7  C   UNL     1       7.025   5.583  18.818  0.00  0.00    +0.000 C 
ATOM      8  N   UNL     1       8.145   6.291  19.160  0.00  0.00    +0.000 N 
ATOM      9  O   UNL     1       6.280   5.131  19.682  0.00  0.00    +0.000 OA
ATOM     10  H   UNL     1       8.755   6.622  18.421  0.00  0.00    +0.000 HD
ATOM     11  H   UNL     1       8.376   6.422  20.132  0.00  0.00    +0.000 HD
ENDBRANCH   4   7
BRANCH   1  13
ATOM     12  C   UNL     1       6.572   3.881  13.061  0.00  0.00    +0.000 C 
ATOM     13  C   UNL     1       5.536   4.148  14.141  0.00  0.00    +0.000 C 
ENDBRANCH   1  13
BRANCH   5  14
ATOM     14  N   UNL     1       4.885   3.865  17.303  0.00  0.00    +0.000 NA
ATOM     15  N   UNL     1       3.725   4.300  17.171  0.00  0.00    +0.000 NA
BRANCH  15  16
ATOM     16  N   UNL     1       2.759   3.416  17.569  0.00  0.00    +0.000 N 
ATOM     17  C   UNL     1       3.057   2.042  17.940  0.00  0.00    +0.000 C 
ATOM     18  C   UNL     1       1.537   4.002  18.083  0.00  0.00    +0.000 C 
ENDBRANCH  15  16
ENDBRANCH   5  14
TORSDOF 4
ENDMDL
MODEL 5
REMARK VINA RESULT:      -5.9      4.199      5.762
REMARK  Name = 
REMARK  7 active torsions:
REMARK  status: ('A' for Active; 'I' for Inactive)
REMARK    1  A    between atoms: C_1  and  C_2
REMARK    2  A    between atoms: C_2  and  C_3
REMARK    3  A    between atoms: C_6  and  C_7
REMARK    4  A    between atoms: C_10  and  N_11
REMARK    5  A    between atoms: N_12  and  N_13
REMARK    6  A    between atoms: N_13  and  C_14
REMARK    7  A    between atoms: N_13  and  C_15
REMARK                            x       y       z     vdW  Elec       q    Type
REMARK                         _______ _______ _______ _____ _____    ______ ____
ROOT
ATOM      1  C   UNL     1       4.695   3.899  19.029  0.00  0.00    +0.000 A 
ATOM      2  N   UNL     1       5.004   2.699  19.604  0.00  0.00    +0.000 N 
ATOM      3  N   UNL     1       4.031   2.190  20.381  0.00  0.00    +0.000 NA
ATOM      4  C   UNL     1       3.043   3.114  20.314  0.00  0.00    +0.000 A 
ATOM      5  C   UNL     1       3.436   4.202  19.501  0.00  0.00    +0.000 A 
ATOM      6  H   UNL     1       5.853   2.154  19.482  0.00  0.00    +0.000 HD
ENDROOT
BRANCH   4   7
ATOM      7  C   UNL     1       1.761   2.912  20.999  0.00  0.00    +0.000 C 
ATOM      8  N   UNL     1       0.666   3.168  20.218  0.00  0.00    +0.000 N 
ATOM      9  O   UNL     1       1.630   2.559  22.167  0.00  0.00    +0.000 OA
ATOM     10  H   UNL     1       0.811   3.488  19.268  0.00  0.00    +0.000 HD
ATOM     11  H   UNL     1      -0.259   3.091  20.614  0.00  0.00    +0.000 HD
ENDBRANCH   4   7
BRANCH   1  13
ATOM     12  C   UNL     1       6.584   5.511  18.780  0.00  0.00    +0.000 C 
ATOM     13  C   UNL     1       5.608   4.583  18.074  0.00  0.00    +0.000 C 
ENDBRANCH   1  13
BRANCH   5  14
ATOM     14  N   UNL     1       2.629   5.283  19.142  0.00  0.00    +0.000 NA
ATOM     15  N   UNL     1       2.744   6.262  19.904  0.00  0.00    +0.000 NA
BRANCH  15  16
ATOM     16  N   UNL     1       2.129   7.393  19.441  0.00  0.00    +0.000 N 
ATOM     17  C   UNL     1       1.535   8.383  20.326  0.00  0.00    +0.000 C 
ATOM     18  C   UNL     1       2.510   7.822  18.110  0.00  0.00    +0.000 C 
ENDBRANCH  15  16
ENDBRANCH   5  14
TORSDOF 4
ENDMDL
MODEL 6
REMARK VINA RESULT:      -5.9      1.217      1.461
REMARK  Name = 
REMARK  7 active torsions:
REMARK  status: ('A' for Active; 'I' for Inactive)
REMARK    1  A    between atoms: C_1  and  C_2
REMARK    2  A    between atoms: C_2  and  C_3
REMARK    3  A    between atoms: C_6  and  C_7
REMARK    4  A    between atoms: C_10  and  N_11
REMARK    5  A    between atoms: N_12  and  N_13
REMARK    6  A    between atoms: N_13  and  C_14
REMARK    7  A    between atoms: N_13  and  C_15
REMARK                            x       y       z     vdW  Elec       q    Type
REMARK                         _______ _______ _______ _____ _____    ______ ____
ROOT
ATOM      1  C   UNL     1       6.075   4.668  15.282  0.00  0.00    +0.000 A 
ATOM      2  N   UNL     1       7.403   4.381  15.422  0.00  0.00    +0.000 N 
ATOM      3  N   UNL     1       7.887   4.595  16.659  0.00  0.00    +0.000 NA
ATOM      4  C   UNL     1       6.819   5.054  17.354  0.00  0.00    +0.000 A 
ATOM      5  C   UNL     1       5.682   5.134  16.517  0.00  0.00    +0.000 A 
ATOM      6  H   UNL     1       8.033   4.005  14.720  0.00  0.00    +0.000 HD
ENDROOT
BRANCH   4   7
ATOM      7  C   UNL     1       6.916   5.367  18.784  0.00  0.00    +0.000 C 
ATOM      8  N   UNL     1       5.953   4.768  19.552  0.00  0.00    +0.000 N 
ATOM      9  O   UNL     1       7.756   6.102  19.293  0.00  0.00    +0.000 OA
ATOM     10  H   UNL     1       5.256   4.192  19.095  0.00  0.00    +0.000 HD
ATOM     11  H   UNL     1       5.917   4.952  20.543  0.00  0.00    +0.000 HD
ENDBRANCH   4   7
BRANCH   1  13
ATOM     12  C   UNL     1       6.168   3.634  13.013  0.00  0.00    +0.000 C 
ATOM     13  C   UNL     1       5.337   4.421  14.013  0.00  0.00    +0.000 C 
ENDBRANCH   1  13
BRANCH   5  14
ATOM     14  N   UNL     1       4.392   5.478  16.928  0.00  0.00    +0.000 NA
ATOM     15  N   UNL     1       3.719   4.504  17.314  0.00  0.00    +0.000 NA
BRANCH  15  16
ATOM     16  N   UNL     1       2.542   4.855  17.918  0.00  0.00    +0.000 N 
ATOM     17  C   UNL     1       1.428   3.932  18.063  0.00  0.00    +0.000 C 
ATOM     18  C   UNL     1       2.610   5.978  18.832  0.00  0.00    +0.000 C 
ENDBRANCH  15  16
ENDBRANCH   5  14
TORSDOF 4
ENDMDL
MODEL 7
REMARK VINA RESULT:      -5.8      2.368      3.629
REMARK  Name = 
REMARK  7 active torsions:
REMARK  status: ('A' for Active; 'I' for Inactive)
REMARK    1  A    between atoms: C_1  and  C_2
REMARK    2  A    between atoms: C_2  and  C_3
REMARK    3  A    between atoms: C_6  and  C_7
REMARK    4  A    between atoms: C_10  and  N_11
REMARK    5  A    between atoms: N_12  and  N_13
REMARK    6  A    between atoms: N_13  and  C_14
REMARK    7  A    between atoms: N_13  and  C_15
REMARK                            x       y       z     vdW  Elec       q    Type
REMARK                         _______ _______ _______ _____ _____    ______ ____
ROOT
ATOM      1  C   UNL     1       3.891   6.659  17.681  0.00  0.00    +0.000 A 
ATOM      2  N   UNL     1       4.734   7.414  16.916  0.00  0.00    +0.000 N 
ATOM      3  N   UNL     1       5.781   6.736  16.411  0.00  0.00    +0.000 NA
ATOM      4  C   UNL     1       5.613   5.477  16.883  0.00  0.00    +0.000 A 
ATOM      5  C   UNL     1       4.459   5.404  17.698  0.00  0.00    +0.000 A 
ATOM      6  H   UNL     1       4.636   8.395  16.670  0.00  0.00    +0.000 HD
ENDROOT
BRANCH   4   7
ATOM      7  C   UNL     1       6.535   4.396  16.519  0.00  0.00    +0.000 C 
ATOM      8  N   UNL     1       5.913   3.263  16.065  0.00  0.00    +0.000 N 
ATOM      9  O   UNL     1       7.757   4.448  16.606  0.00  0.00    +0.000 OA
ATOM     10  H   UNL     1       4.900   3.243  16.036  0.00  0.00    +0.000 HD
ATOM     11  H   UNL     1       6.464   2.453  15.824  0.00  0.00    +0.000 HD
ENDBRANCH   4   7
BRANCH   1  13
ATOM     12  C   UNL     1       2.337   8.611  17.754  0.00  0.00    +0.000 C 
ATOM     13  C   UNL     1       2.635   7.208  18.259  0.00  0.00    +0.000 C 
ENDBRANCH   1  13
BRANCH   5  14
ATOM     14  N   UNL     1       3.938   4.241  18.268  0.00  0.00    +0.000 NA
ATOM     15  N   UNL     1       3.040   3.713  17.586  0.00  0.00    +0.000 NA
BRANCH  15  16
ATOM     16  N   UNL     1       2.680   2.467  18.023  0.00  0.00    +0.000 N 
ATOM     17  C   UNL     1       3.655   1.453  18.394  0.00  0.00    +0.000 C 
ATOM     18  C   UNL     1       1.344   2.349  18.571  0.00  0.00    +0.000 C 
ENDBRANCH  15  16
ENDBRANCH   5  14
TORSDOF 4
ENDMDL
MODEL 8
REMARK VINA RESULT:      -5.8      3.268      5.772
REMARK  Name = 
REMARK  7 active torsions:
REMARK  status: ('A' for Active; 'I' for Inactive)
REMARK    1  A    between atoms: C_1  and  C_2
REMARK    2  A    between atoms: C_2  and  C_3
REMARK    3  A    between atoms: C_6  and  C_7
REMARK    4  A    between atoms: C_10  and  N_11
REMARK    5  A    between atoms: N_12  and  N_13
REMARK    6  A    between atoms: N_13  and  C_14
REMARK    7  A    between atoms: N_13  and  C_15
REMARK                            x       y       z     vdW  Elec       q    Type
REMARK                         _______ _______ _______ _____ _____    ______ ____
ROOT
ATOM      1  C   UNL     1       2.653   5.629  19.458  0.00  0.00    +0.000 A 
ATOM      2  N   UNL     1       1.700   4.838  20.034  0.00  0.00    +0.000 N 
ATOM      3  N   UNL     1       1.986   3.523  20.015  0.00  0.00    +0.000 NA
ATOM      4  C   UNL     1       3.183   3.458  19.384  0.00  0.00    +0.000 A 
ATOM      5  C   UNL     1       3.613   4.751  19.003  0.00  0.00    +0.000 A 
ATOM      6  H   UNL     1       0.842   5.134  20.488  0.00  0.00    +0.000 HD
ENDROOT
BRANCH   4   7
ATOM      7  C   UNL     1       3.879   2.180  19.198  0.00  0.00    +0.000 C 
ATOM      8  N   UNL     1       5.046   2.073  19.906  0.00  0.00    +0.000 N 
ATOM      9  O   UNL     1       3.498   1.265  18.475  0.00  0.00    +0.000 OA
ATOM     10  H   UNL     1       5.347   2.860  20.468  0.00  0.00    +0.000 HD
ATOM     11  H   UNL     1       5.613   1.244  19.813  0.00  0.00    +0.000 HD
ENDBRANCH   4   7
BRANCH   1  13
ATOM     12  C   UNL     1       2.385   7.670  18.048  0.00  0.00    +0.000 C 
ATOM     13  C   UNL     1       2.558   7.114  19.452  0.00  0.00    +0.000 C 
ENDBRANCH   1  13
BRANCH   5  14
ATOM     14  N   UNL     1       4.842   5.059  18.418  0.00  0.00    +0.000 NA
ATOM     15  N   UNL     1       5.805   4.951  19.200  0.00  0.00    +0.000 NA
BRANCH  15  16
ATOM     16  N   UNL     1       7.024   5.038  18.585  0.00  0.00    +0.000 N 
ATOM     17  C   UNL     1       7.253   4.571  17.227  0.00  0.00    +0.000 C 
ATOM     18  C   UNL     1       7.933   6.034  19.117  0.00  0.00    +0.000 C 
ENDBRANCH  15  16
ENDBRANCH   5  14
TORSDOF 4
ENDMDL
MODEL 9
REMARK VINA RESULT:      -5.7      2.469      3.757
REMARK  Name = 
REMARK  7 active torsions:
REMARK  status: ('A' for Active; 'I' for Inactive)
REMARK    1  A    between atoms: C_1  and  C_2
REMARK    2  A    between atoms: C_2  and  C_3
REMARK    3  A    between atoms: C_6  and  C_7
REMARK    4  A    between atoms: C_10  and  N_11
REMARK    5  A    between atoms: N_12  and  N_13
REMARK    6  A    between atoms: N_13  and  C_14
REMARK    7  A    between atoms: N_13  and  C_15
REMARK                            x       y       z     vdW  Elec       q    Type
REMARK                         _______ _______ _______ _____ _____    ______ ____
ROOT
ATOM      1  C   UNL     1       3.977   6.426  17.595  0.00  0.00    +0.000 A 
ATOM      2  N   UNL     1       4.802   7.289  16.931  0.00  0.00    +0.000 N 
ATOM      3  N   UNL     1       5.882   6.709  16.378  0.00  0.00    +0.000 NA
ATOM      4  C   UNL     1       5.756   5.401  16.709  0.00  0.00    +0.000 A 
ATOM      5  C   UNL     1       4.593   5.197  17.488  0.00  0.00    +0.000 A 
ATOM      6  H   UNL     1       4.671   8.286  16.790  0.00  0.00    +0.000 HD
ENDROOT
BRANCH   4   7
ATOM      7  C   UNL     1       6.725   4.400  16.249  0.00  0.00    +0.000 C 
ATOM      8  N   UNL     1       6.159   3.328  15.612  0.00  0.00    +0.000 N 
ATOM      9  O   UNL     1       7.940   4.465  16.408  0.00  0.00    +0.000 OA
ATOM     10  H   UNL     1       5.150   3.292  15.526  0.00  0.00    +0.000 HD
ATOM     11  H   UNL     1       6.743   2.571  15.292  0.00  0.00    +0.000 HD
ENDBRANCH   4   7
BRANCH   1  13
ATOM     12  C   UNL     1       2.360   8.307  17.865  0.00  0.00    +0.000 C 
ATOM     13  C   UNL     1       2.692   6.862  18.204  0.00  0.00    +0.000 C 
ENDBRANCH   1  13
BRANCH   5  14
ATOM     14  N   UNL     1       4.110   3.961  17.921  0.00  0.00    +0.000 NA
ATOM     15  N   UNL     1       4.400   3.701  19.104  0.00  0.00    +0.000 NA
BRANCH  15  16
ATOM     16  N   UNL     1       3.752   2.603  19.599  0.00  0.00    +0.000 N 
ATOM     17  C   UNL     1       2.966   2.641  20.823  0.00  0.00    +0.000 C 
ATOM     18  C   UNL     1       3.458   1.555  18.643  0.00  0.00    +0.000 C 
ENDBRANCH  15  16
ENDBRANCH   5  14
TORSDOF 4
ENDMDL
