MODEL 1
REMARK VINA RESULT:      -9.1      0.000      0.000
REMARK  Name = 
REMARK  5 active torsions:
REMARK  status: ('A' for Active; 'I' for Inactive)
REMARK    1  A    between atoms: C_1  and  N_2
REMARK    2  A    between atoms: C_5  and  S_6
REMARK    3  A    between atoms: S_6  and  C_9
REMARK    4  A    between atoms: C_9  and  C_10
REMARK    5  A    between atoms: N_22  and  C_23
REMARK                            x       y       z     vdW  Elec       q    Type
REMARK                         _______ _______ _______ _____ _____    ______ ____
ROOT
ATOM      1  C   UNL     1       0.680   7.680  21.750  0.00  0.00    +0.000 C 
ATOM      2  N   UNL     1       1.415   7.464  20.507  0.00  0.00    +0.000 N 
ATOM      3  C   UNL     1       1.946   6.213  20.211  0.00  0.00    +0.000 A 
ATOM      4  O   UNL     1       1.856   5.271  20.990  0.00  0.00    +0.000 OA
ATOM      5  C   UNL     1       2.642   6.074  18.898  0.00  0.00    +0.000 A 
ATOM      6  C   UNL     1       2.724   7.116  18.049  0.00  0.00    +0.000 A 
ATOM      7  C   UNL     1       2.172   8.409  18.427  0.00  0.00    +0.000 A 
ATOM      8  C   UNL     1       2.228   9.541  17.642  0.00  0.00    +0.000 A 
ATOM      9  N   UNL     1       1.717  10.738  18.004  0.00  0.00    +0.000 NA
ATOM     10  C   UNL     1       1.096  10.794  19.189  0.00  0.00    +0.000 A 
ATOM     11  N   UNL     1       0.544  12.011  19.583  0.00  0.00    +0.000 N 
ATOM     12  N   UNL     1       1.002   9.743  20.013  0.00  0.00    +0.000 NA
ATOM     13  C   UNL     1       1.529   8.571  19.633  0.00  0.00    +0.000 A 
ATOM     14  H   UNL     1       0.702  12.735  18.897  0.00  0.00    +0.000 HD
ENDROOT
BRANCH  11  15
ATOM     15  C   UNL     1      -0.551  12.208  20.444  0.00  0.00    +0.000 A 
ATOM     16  C   UNL     1      -0.368  12.126  21.828  0.00  0.00    +0.000 A 
ATOM     17  C   UNL     1      -1.442  12.230  22.725  0.00  0.00    +0.000 A 
ATOM     18  C   UNL     1      -2.719  12.436  22.188  0.00  0.00    +0.000 A 
ATOM     19  N   UNL     1      -3.945  12.563  22.803  0.00  0.00    +0.000 N 
ATOM     20  C   UNL     1      -4.927  12.757  21.868  0.00  0.00    +0.000 A 
ATOM     21  C   UNL     1      -4.336  12.749  20.626  0.00  0.00    +0.000 A 
ATOM     22  C   UNL     1      -2.943  12.543  20.817  0.00  0.00    +0.000 A 
ATOM     23  C   UNL     1      -1.848  12.428  19.945  0.00  0.00    +0.000 A 
ATOM     24  H   UNL     1      -4.092  12.516  23.801  0.00  0.00    +0.000 HD
ENDBRANCH  11  15
BRANCH   5  25
ATOM     25  S   UNL     1       3.258   4.529  18.359  0.00  0.00    +0.000 S 
ATOM     26  O   UNL     1       4.094   3.900  19.360  0.00  0.00    +0.000 OA
ATOM     27  O   UNL     1       2.133   3.798  17.790  0.00  0.00    +0.000 OA
BRANCH  25  28
ATOM     28  C   UNL     1       4.327   4.991  16.993  0.00  0.00    +0.000 C 
BRANCH  28  29
ATOM     29  C   UNL     1       5.570   5.674  17.519  0.00  0.00    +0.000 A 
ATOM     30  C   UNL     1       6.320   5.110  18.566  0.00  0.00    +0.000 A 
ATOM     31  C   UNL     1       7.467   5.757  19.042  0.00  0.00    +0.000 A 
ATOM     32  C   UNL     1       7.863   6.963  18.480  0.00  0.00    +0.000 A 
ATOM     33  F   UNL     1       8.959   7.577  18.938  0.00  0.00    +0.000 F 
ATOM     34  C   UNL     1       7.132   7.539  17.448  0.00  0.00    +0.000 A 
ATOM     35  C   UNL     1       5.989   6.896  16.968  0.00  0.00    +0.000 A 
ENDBRANCH  28  29
ENDBRANCH  25  28
ENDBRANCH   5  25
TORSDOF 4
ENDMDL
MODEL 2
REMARK VINA RESULT:      -9.1      0.803      1.559
REMARK  Name = 
REMARK  5 active torsions:
REMARK  status: ('A' for Active; 'I' for Inactive)
REMARK    1  A    between atoms: C_1  and  N_2
REMARK    2  A    between atoms: C_5  and  S_6
REMARK    3  A    between atoms: S_6  and  C_9
REMARK    4  A    between atoms: C_9  and  C_10
REMARK    5  A    between atoms: N_22  and  C_23
REMARK                            x       y       z     vdW  Elec       q    Type
REMARK                         _______ _______ _______ _____ _____    ______ ____
ROOT
ATOM      1  C   UNL     1       0.844   7.375  21.511  0.00  0.00    +0.000 C 
ATOM      2  N   UNL     1       1.655   7.077  20.335  0.00  0.00    +0.000 N 
ATOM      3  C   UNL     1       2.236   5.822  20.179  0.00  0.00    +0.000 A 
ATOM      4  O   UNL     1       2.123   4.948  21.031  0.00  0.00    +0.000 OA
ATOM      5  C   UNL     1       3.011   5.593  18.925  0.00  0.00    +0.000 A 
ATOM      6  C   UNL     1       3.117   6.561  17.995  0.00  0.00    +0.000 A 
ATOM      7  C   UNL     1       2.510   7.863  18.228  0.00  0.00    +0.000 A 
ATOM      8  C   UNL     1       2.584   8.926  17.352  0.00  0.00    +0.000 A 
ATOM      9  N   UNL     1       2.022  10.133  17.579  0.00  0.00    +0.000 NA
ATOM     10  C   UNL     1       1.330  10.271  18.717  0.00  0.00    +0.000 A 
ATOM     11  N   UNL     1       0.725  11.500  18.972  0.00  0.00    +0.000 N 
ATOM     12  N   UNL     1       1.215   9.291  19.623  0.00  0.00    +0.000 NA
ATOM     13  C   UNL     1       1.794   8.109  19.376  0.00  0.00    +0.000 A 
ATOM     14  H   UNL     1       0.905  12.167  18.237  0.00  0.00    +0.000 HD
ENDROOT
BRANCH  11  15
ATOM     15  C   UNL     1      -0.424  11.735  19.749  0.00  0.00    +0.000 A 
ATOM     16  C   UNL     1      -1.618  12.110  19.125  0.00  0.00    +0.000 A 
ATOM     17  C   UNL     1      -2.767  12.438  19.860  0.00  0.00    +0.000 A 
ATOM     18  C   UNL     1      -2.688  12.363  21.257  0.00  0.00    +0.000 A 
ATOM     19  N   UNL     1      -3.629  12.630  22.227  0.00  0.00    +0.000 N 
ATOM     20  C   UNL     1      -3.100  12.413  23.472  0.00  0.00    +0.000 A 
ATOM     21  C   UNL     1      -1.796  12.005  23.312  0.00  0.00    +0.000 A 
ATOM     22  C   UNL     1      -1.526  11.975  21.918  0.00  0.00    +0.000 A 
ATOM     23  C   UNL     1      -0.389  11.659  21.153  0.00  0.00    +0.000 A 
ATOM     24  H   UNL     1      -4.570  12.944  22.041  0.00  0.00    +0.000 HD
ENDBRANCH  11  15
BRANCH   5  25
ATOM     25  S   UNL     1       3.697   4.028  18.559  0.00  0.00    +0.000 S 
ATOM     26  O   UNL     1       4.532   3.535  19.635  0.00  0.00    +0.000 OA
ATOM     27  O   UNL     1       2.615   3.199  18.043  0.00  0.00    +0.000 OA
BRANCH  25  28
ATOM     28  C   UNL     1       4.781   4.392  17.175  0.00  0.00    +0.000 C 
BRANCH  28  29
ATOM     29  C   UNL     1       5.884   5.330  17.616  0.00  0.00    +0.000 A 
ATOM     30  C   UNL     1       6.145   6.522  16.917  0.00  0.00    +0.000 A 
ATOM     31  C   UNL     1       7.171   7.377  17.337  0.00  0.00    +0.000 A 
ATOM     32  C   UNL     1       7.936   7.044  18.447  0.00  0.00    +0.000 A 
ATOM     33  F   UNL     1       8.915   7.864  18.845  0.00  0.00    +0.000 F 
ATOM     34  C   UNL     1       7.696   5.868  19.147  0.00  0.00    +0.000 A 
ATOM     35  C   UNL     1       6.673   5.013  18.733  0.00  0.00    +0.000 A 
ENDBRANCH  28  29
ENDBRANCH  25  28
ENDBRANCH   5  25
TORSDOF 4
ENDMDL
MODEL 3
REMARK VINA RESULT:      -8.9      5.376     10.582
REMARK  Name = 
REMARK  5 active torsions:
REMARK  status: ('A' for Active; 'I' for Inactive)
REMARK    1  A    between atoms: C_1  and  N_2
REMARK    2  A    between atoms: C_5  and  S_6
REMARK    3  A    between atoms: S_6  and  C_9
REMARK    4  A    between atoms: C_9  and  C_10
REMARK    5  A    between atoms: N_22  and  C_23
REMARK                            x       y       z     vdW  Elec       q    Type
REMARK                         _______ _______ _______ _____ _____    ______ ____
ROOT
ATOM      1  C   UNL     1      -0.784  10.137  18.139  0.00  0.00    +0.000 C 
ATOM      2  N   UNL     1      -1.151  10.791  19.391  0.00  0.00    +0.000 N 
ATOM      3  C   UNL     1      -2.105  11.804  19.404  0.00  0.00    +0.000 A 
ATOM      4  O   UNL     1      -2.633  12.207  18.375  0.00  0.00    +0.000 OA
ATOM      5  C   UNL     1      -2.450  12.383  20.736  0.00  0.00    +0.000 A 
ATOM      6  C   UNL     1      -1.868  11.922  21.859  0.00  0.00    +0.000 A 
ATOM      7  C   UNL     1      -0.856  10.878  21.778  0.00  0.00    +0.000 A 
ATOM      8  C   UNL     1      -0.184  10.358  22.865  0.00  0.00    +0.000 A 
ATOM      9  N   UNL     1       0.757   9.392  22.779  0.00  0.00    +0.000 NA
ATOM     10  C   UNL     1       1.013   8.907  21.558  0.00  0.00    +0.000 A 
ATOM     11  N   UNL     1       1.968   7.899  21.439  0.00  0.00    +0.000 N 
ATOM     12  N   UNL     1       0.409   9.361  20.451  0.00  0.00    +0.000 NA
ATOM     13  C   UNL     1      -0.511  10.327  20.565  0.00  0.00    +0.000 A 
ATOM     14  H   UNL     1       2.375   7.661  22.331  0.00  0.00    +0.000 HD
ENDROOT
BRANCH  11  15
ATOM     15  C   UNL     1       2.033   6.903  20.447  0.00  0.00    +0.000 A 
ATOM     16  C   UNL     1       2.480   7.232  19.164  0.00  0.00    +0.000 A 
ATOM     17  C   UNL     1       2.482   6.296  18.118  0.00  0.00    +0.000 A 
ATOM     18  C   UNL     1       2.033   5.001  18.404  0.00  0.00    +0.000 A 
ATOM     19  N   UNL     1       1.911   3.891  17.597  0.00  0.00    +0.000 N 
ATOM     20  C   UNL     1       1.426   2.832  18.318  0.00  0.00    +0.000 A 
ATOM     21  C   UNL     1       1.223   3.257  19.610  0.00  0.00    +0.000 A 
ATOM     22  C   UNL     1       1.599   4.626  19.673  0.00  0.00    +0.000 A 
ATOM     23  C   UNL     1       1.603   5.588  20.698  0.00  0.00    +0.000 A 
ATOM     24  H   UNL     1       2.144   3.870  16.615  0.00  0.00    +0.000 HD
ENDBRANCH  11  15
BRANCH   5  25
ATOM     25  S   UNL     1      -3.709  13.584  20.901  0.00  0.00    +0.000 S 
ATOM     26  O   UNL     1      -3.172  14.926  20.985  0.00  0.00    +0.000 OA
ATOM     27  O   UNL     1      -4.728  13.271  19.907  0.00  0.00    +0.000 OA
BRANCH  25  28
ATOM     28  C   UNL     1      -4.410  13.194  22.508  0.00  0.00    +0.000 C 
BRANCH  28  29
ATOM     29  C   UNL     1      -4.460  14.440  23.364  0.00  0.00    +0.000 A 
ATOM     30  C   UNL     1      -5.548  15.328  23.291  0.00  0.00    +0.000 A 
ATOM     31  C   UNL     1      -5.576  16.478  24.089  0.00  0.00    +0.000 A 
ATOM     32  C   UNL     1      -4.523  16.745  24.954  0.00  0.00    +0.000 A 
ATOM     33  F   UNL     1      -4.555  17.844  25.715  0.00  0.00    +0.000 F 
ATOM     34  C   UNL     1      -3.437  15.882  25.037  0.00  0.00    +0.000 A 
ATOM     35  C   UNL     1      -3.405  14.733  24.245  0.00  0.00    +0.000 A 
ENDBRANCH  28  29
ENDBRANCH  25  28
ENDBRANCH   5  25
TORSDOF 4
ENDMDL
MODEL 4
REMARK VINA RESULT:      -8.9      4.450      9.706
REMARK  Name = 
REMARK  5 active torsions:
REMARK  status: ('A' for Active; 'I' for Inactive)
REMARK    1  A    between atoms: C_1  and  N_2
REMARK    2  A    between atoms: C_5  and  S_6
REMARK    3  A    between atoms: S_6  and  C_9
REMARK    4  A    between atoms: C_9  and  C_10
REMARK    5  A    between atoms: N_22  and  C_23
REMARK                            x       y       z     vdW  Elec       q    Type
REMARK                         _______ _______ _______ _____ _____    ______ ____
ROOT
ATOM      1  C   UNL     1       0.566   7.702  21.702  0.00  0.00    +0.000 C 
ATOM      2  N   UNL     1       0.352   9.077  21.262  0.00  0.00    +0.000 N 
ATOM      3  C   UNL     1      -0.365   9.967  22.056  0.00  0.00    +0.000 A 
ATOM      4  O   UNL     1      -0.871   9.623  23.118  0.00  0.00    +0.000 OA
ATOM      5  C   UNL     1      -0.495  11.364  21.548  0.00  0.00    +0.000 A 
ATOM      6  C   UNL     1       0.075  11.729  20.384  0.00  0.00    +0.000 A 
ATOM      7  C   UNL     1       0.790  10.745  19.584  0.00  0.00    +0.000 A 
ATOM      8  C   UNL     1       1.385  11.011  18.368  0.00  0.00    +0.000 A 
ATOM      9  N   UNL     1       2.041  10.090  17.630  0.00  0.00    +0.000 NA
ATOM     10  C   UNL     1       2.133   8.858  18.147  0.00  0.00    +0.000 A 
ATOM     11  N   UNL     1       2.818   7.890  17.416  0.00  0.00    +0.000 N 
ATOM     12  N   UNL     1       1.579   8.515  19.317  0.00  0.00    +0.000 NA
ATOM     13  C   UNL     1       0.923   9.447  20.021  0.00  0.00    +0.000 A 
ATOM     14  H   UNL     1       3.164   8.254  16.541  0.00  0.00    +0.000 HD
ENDROOT
BRANCH  11  15
ATOM     15  C   UNL     1       3.491   6.762  17.922  0.00  0.00    +0.000 A 
ATOM     16  C   UNL     1       4.884   6.688  17.829  0.00  0.00    +0.000 A 
ATOM     17  C   UNL     1       5.594   5.549  18.241  0.00  0.00    +0.000 A 
ATOM     18  C   UNL     1       4.859   4.482  18.771  0.00  0.00    +0.000 A 
ATOM     19  N   UNL     1       5.267   3.252  19.240  0.00  0.00    +0.000 N 
ATOM     20  C   UNL     1       4.187   2.526  19.669  0.00  0.00    +0.000 A 
ATOM     21  C   UNL     1       3.059   3.289  19.471  0.00  0.00    +0.000 A 
ATOM     22  C   UNL     1       3.473   4.523  18.900  0.00  0.00    +0.000 A 
ATOM     23  C   UNL     1       2.790   5.674  18.472  0.00  0.00    +0.000 A 
ATOM     24  H   UNL     1       6.226   2.937  19.259  0.00  0.00    +0.000 HD
ENDBRANCH  11  15
BRANCH   5  25
ATOM     25  S   UNL     1      -1.276  12.604  22.500  0.00  0.00    +0.000 S 
ATOM     26  O   UNL     1      -2.395  12.082  23.258  0.00  0.00    +0.000 OA
ATOM     27  O   UNL     1      -0.222  13.346  23.180  0.00  0.00    +0.000 OA
BRANCH  25  28
ATOM     28  C   UNL     1      -1.953  13.692  21.242  0.00  0.00    +0.000 C 
BRANCH  28  29
ATOM     29  C   UNL     1      -3.329  13.215  20.833  0.00  0.00    +0.000 A 
ATOM     30  C   UNL     1      -4.465  13.536  21.596  0.00  0.00    +0.000 A 
ATOM     31  C   UNL     1      -5.730  13.083  21.205  0.00  0.00    +0.000 A 
ATOM     32  C   UNL     1      -5.864  12.311  20.059  0.00  0.00    +0.000 A 
ATOM     33  F   UNL     1      -7.074  11.881  19.688  0.00  0.00    +0.000 F 
ATOM     34  C   UNL     1      -4.752  11.979  19.294  0.00  0.00    +0.000 A 
ATOM     35  C   UNL     1      -3.488  12.430  19.680  0.00  0.00    +0.000 A 
ENDBRANCH  28  29
ENDBRANCH  25  28
ENDBRANCH   5  25
TORSDOF 4
ENDMDL
MODEL 5
REMARK VINA RESULT:      -8.8      1.849      2.407
REMARK  Name = 
REMARK  5 active torsions:
REMARK  status: ('A' for Active; 'I' for Inactive)
REMARK    1  A    between atoms: C_1  and  N_2
REMARK    2  A    between atoms: C_5  and  S_6
REMARK    3  A    between atoms: S_6  and  C_9
REMARK    4  A    between atoms: C_9  and  C_10
REMARK    5  A    between atoms: N_22  and  C_23
REMARK                            x       y       z     vdW  Elec       q    Type
REMARK                         _______ _______ _______ _____ _____    ______ ____
ROOT
ATOM      1  C   UNL     1      -0.029   7.987  21.780  0.00  0.00    +0.000 C 
ATOM      2  N   UNL     1       0.907   7.921  20.662  0.00  0.00    +0.000 N 
ATOM      3  C   UNL     1       1.621   6.753  20.410  0.00  0.00    +0.000 A 
ATOM      4  O   UNL     1       1.523   5.767  21.130  0.00  0.00    +0.000 OA
ATOM      5  C   UNL     1       2.522   6.762  19.219  0.00  0.00    +0.000 A 
ATOM      6  C   UNL     1       2.611   7.851  18.432  0.00  0.00    +0.000 A 
ATOM      7  C   UNL     1       1.859   9.053  18.764  0.00  0.00    +0.000 A 
ATOM      8  C   UNL     1       1.903  10.225  18.038  0.00  0.00    +0.000 A 
ATOM      9  N   UNL     1       1.205  11.337  18.357  0.00  0.00    +0.000 NA
ATOM     10  C   UNL     1       0.407  11.261  19.430  0.00  0.00    +0.000 A 
ATOM     11  N   UNL     1      -0.337  12.387  19.775  0.00  0.00    +0.000 N 
ATOM     12  N   UNL     1       0.312  10.163  20.191  0.00  0.00    +0.000 NA
ATOM     13  C   UNL     1       1.025   9.079  19.858  0.00  0.00    +0.000 A 
ATOM     14  H   UNL     1      -0.161  13.159  19.150  0.00  0.00    +0.000 HD
ENDROOT
BRANCH  11  15
ATOM     15  C   UNL     1      -1.567  12.415  20.458  0.00  0.00    +0.000 A 
ATOM     16  C   UNL     1      -2.761  12.477  19.733  0.00  0.00    +0.000 A 
ATOM     17  C   UNL     1      -4.008  12.593  20.367  0.00  0.00    +0.000 A 
ATOM     18  C   UNL     1      -4.024  12.629  21.767  0.00  0.00    +0.000 A 
ATOM     19  N   UNL     1      -5.072  12.747  22.652  0.00  0.00    +0.000 N 
ATOM     20  C   UNL     1      -4.608  12.733  23.941  0.00  0.00    +0.000 A 
ATOM     21  C   UNL     1      -3.238  12.611  23.896  0.00  0.00    +0.000 A 
ATOM     22  C   UNL     1      -2.860  12.550  22.528  0.00  0.00    +0.000 A 
ATOM     23  C   UNL     1      -1.626  12.441  21.863  0.00  0.00    +0.000 A 
ATOM     24  H   UNL     1      -6.042  12.834  22.383  0.00  0.00    +0.000 HD
ENDBRANCH  11  15
BRANCH   5  25
ATOM     25  S   UNL     1       3.389   5.326  18.731  0.00  0.00    +0.000 S 
ATOM     26  O   UNL     1       3.696   4.468  19.856  0.00  0.00    +0.000 OA
ATOM     27  O   UNL     1       2.692   4.781  17.572  0.00  0.00    +0.000 OA
BRANCH  25  28
ATOM     28  C   UNL     1       4.946   5.995  18.137  0.00  0.00    +0.000 C 
BRANCH  28  29
ATOM     29  C   UNL     1       5.312   5.354  16.816  0.00  0.00    +0.000 A 
ATOM     30  C   UNL     1       5.757   4.021  16.755  0.00  0.00    +0.000 A 
ATOM     31  C   UNL     1       6.095   3.445  15.525  0.00  0.00    +0.000 A 
ATOM     32  C   UNL     1       5.994   4.194  14.360  0.00  0.00    +0.000 A 
ATOM     33  F   UNL     1       6.317   3.639  13.187  0.00  0.00    +0.000 F 
ATOM     34  C   UNL     1       5.560   5.514  14.401  0.00  0.00    +0.000 A 
ATOM     35  C   UNL     1       5.221   6.092  15.625  0.00  0.00    +0.000 A 
ENDBRANCH  28  29
ENDBRANCH  25  28
ENDBRANCH   5  25
TORSDOF 4
ENDMDL
MODEL 6
REMARK VINA RESULT:      -8.8      1.877      2.356
REMARK  Name = 
REMARK  5 active torsions:
REMARK  status: ('A' for Active; 'I' for Inactive)
REMARK    1  A    between atoms: C_1  and  N_2
REMARK    2  A    between atoms: C_5  and  S_6
REMARK    3  A    between atoms: S_6  and  C_9
REMARK    4  A    between atoms: C_9  and  C_10
REMARK    5  A    between atoms: N_22  and  C_23
REMARK                            x       y       z     vdW  Elec       q    Type
REMARK                         _______ _______ _______ _____ _____    ______ ____
ROOT
ATOM      1  C   UNL     1       0.014   8.302  21.942  0.00  0.00    +0.000 C 
ATOM      2  N   UNL     1       0.889   8.244  20.775  0.00  0.00    +0.000 N 
ATOM      3  C   UNL     1       1.585   7.078  20.474  0.00  0.00    +0.000 A 
ATOM      4  O   UNL     1       1.523   6.085  21.190  0.00  0.00    +0.000 OA
ATOM      5  C   UNL     1       2.420   7.095  19.237  0.00  0.00    +0.000 A 
ATOM      6  C   UNL     1       2.470   8.191  18.456  0.00  0.00    +0.000 A 
ATOM      7  C   UNL     1       1.740   9.391  18.839  0.00  0.00    +0.000 A 
ATOM      8  C   UNL     1       1.747  10.570  18.122  0.00  0.00    +0.000 A 
ATOM      9  N   UNL     1       1.070  11.680  18.487  0.00  0.00    +0.000 NA
ATOM     10  C   UNL     1       0.331  11.596  19.601  0.00  0.00    +0.000 A 
ATOM     11  N   UNL     1      -0.391  12.720  19.995  0.00  0.00    +0.000 N 
ATOM     12  N   UNL     1       0.274  10.491  20.356  0.00  0.00    +0.000 NA
ATOM     13  C   UNL     1       0.965   9.409  19.975  0.00  0.00    +0.000 A 
ATOM     14  H   UNL     1      -0.247  13.498  19.368  0.00  0.00    +0.000 HD
ENDROOT
BRANCH  11  15
ATOM     15  C   UNL     1      -1.582  12.745  20.744  0.00  0.00    +0.000 A 
ATOM     16  C   UNL     1      -1.526  12.669  22.139  0.00  0.00    +0.000 A 
ATOM     17  C   UNL     1      -2.687  12.604  22.925  0.00  0.00    +0.000 A 
ATOM     18  C   UNL     1      -3.921  12.634  22.264  0.00  0.00    +0.000 A 
ATOM     19  N   UNL     1      -5.207  12.575  22.755  0.00  0.00    +0.000 N 
ATOM     20  C   UNL     1      -6.110  12.641  21.727  0.00  0.00    +0.000 A 
ATOM     21  C   UNL     1      -5.405  12.738  20.550  0.00  0.00    +0.000 A 
ATOM     22  C   UNL     1      -4.023  12.729  20.878  0.00  0.00    +0.000 A 
ATOM     23  C   UNL     1      -2.842  12.786  20.118  0.00  0.00    +0.000 A 
ATOM     24  H   UNL     1      -5.443  12.491  23.733  0.00  0.00    +0.000 HD
ENDBRANCH  11  15
BRANCH   5  25
ATOM     25  S   UNL     1       3.257   5.662  18.690  0.00  0.00    +0.000 S 
ATOM     26  O   UNL     1       3.612   4.787  19.789  0.00  0.00    +0.000 OA
ATOM     27  O   UNL     1       2.504   5.136  17.558  0.00  0.00    +0.000 OA
BRANCH  25  28
ATOM     28  C   UNL     1       4.788   6.331  18.033  0.00  0.00    +0.000 C 
BRANCH  28  29
ATOM     29  C   UNL     1       5.209   5.550  16.807  0.00  0.00    +0.000 A 
ATOM     30  C   UNL     1       5.232   6.151  15.536  0.00  0.00    +0.000 A 
ATOM     31  C   UNL     1       5.621   5.413  14.413  0.00  0.00    +0.000 A 
ATOM     32  C   UNL     1       5.982   4.079  14.553  0.00  0.00    +0.000 A 
ATOM     33  F   UNL     1       6.354   3.378  13.477  0.00  0.00    +0.000 F 
ATOM     34  C   UNL     1       5.961   3.467  15.801  0.00  0.00    +0.000 A 
ATOM     35  C   UNL     1       5.575   4.200  16.924  0.00  0.00    +0.000 A 
ENDBRANCH  28  29
ENDBRANCH  25  28
ENDBRANCH   5  25
TORSDOF 4
ENDMDL
MODEL 7
REMARK VINA RESULT:      -8.7      3.058      4.314
REMARK  Name = 
REMARK  5 active torsions:
REMARK  status: ('A' for Active; 'I' for Inactive)
REMARK    1  A    between atoms: C_1  and  N_2
REMARK    2  A    between atoms: C_5  and  S_6
REMARK    3  A    between atoms: S_6  and  C_9
REMARK    4  A    between atoms: C_9  and  C_10
REMARK    5  A    between atoms: N_22  and  C_23
REMARK                            x       y       z     vdW  Elec       q    Type
REMARK                         _______ _______ _______ _____ _____    ______ ____
ROOT
ATOM      1  C   UNL     1      -0.369  11.215  18.618  0.00  0.00    +0.000 C 
ATOM      2  N   UNL     1       0.302  10.130  19.328  0.00  0.00    +0.000 N 
ATOM      3  C   UNL     1       1.077   9.207  18.633  0.00  0.00    +0.000 A 
ATOM      4  O   UNL     1       1.190   9.246  17.413  0.00  0.00    +0.000 OA
ATOM      5  C   UNL     1       1.761   8.160  19.446  0.00  0.00    +0.000 A 
ATOM      6  C   UNL     1       1.635   8.136  20.786  0.00  0.00    +0.000 A 
ATOM      7  C   UNL     1       0.787   9.113  21.454  0.00  0.00    +0.000 A 
ATOM      8  C   UNL     1       0.571   9.157  22.816  0.00  0.00    +0.000 A 
ATOM      9  N   UNL     1      -0.222  10.065  23.426  0.00  0.00    +0.000 NA
ATOM     10  C   UNL     1      -0.798  10.985  22.642  0.00  0.00    +0.000 A 
ATOM     11  N   UNL     1      -1.610  11.944  23.245  0.00  0.00    +0.000 N 
ATOM     12  N   UNL     1      -0.645  11.009  21.312  0.00  0.00    +0.000 NA
ATOM     13  C   UNL     1       0.138  10.089  20.733  0.00  0.00    +0.000 A 
ATOM     14  H   UNL     1      -1.674  11.808  24.243  0.00  0.00    +0.000 HD
ENDROOT
BRANCH  11  15
ATOM     15  C   UNL     1      -1.870  13.247  22.782  0.00  0.00    +0.000 A 
ATOM     16  C   UNL     1      -1.029  14.298  23.161  0.00  0.00    +0.000 A 
ATOM     17  C   UNL     1      -1.294  15.627  22.797  0.00  0.00    +0.000 A 
ATOM     18  C   UNL     1      -2.432  15.873  22.019  0.00  0.00    +0.000 A 
ATOM     19  N   UNL     1      -2.949  17.051  21.526  0.00  0.00    +0.000 N 
ATOM     20  C   UNL     1      -4.089  16.805  20.808  0.00  0.00    +0.000 A 
ATOM     21  C   UNL     1      -4.323  15.450  20.838  0.00  0.00    +0.000 A 
ATOM     22  C   UNL     1      -3.286  14.854  21.603  0.00  0.00    +0.000 A 
ATOM     23  C   UNL     1      -2.996  13.534  21.990  0.00  0.00    +0.000 A 
ATOM     24  H   UNL     1      -2.542  17.963  21.679  0.00  0.00    +0.000 HD
ENDBRANCH  11  15
BRANCH   5  25
ATOM     25  S   UNL     1       2.850   7.009  18.707  0.00  0.00    +0.000 S 
ATOM     26  O   UNL     1       3.621   7.603  17.634  0.00  0.00    +0.000 OA
ATOM     27  O   UNL     1       3.532   6.312  19.790  0.00  0.00    +0.000 OA
BRANCH  25  28
ATOM     28  C   UNL     1       1.722   5.832  17.956  0.00  0.00    +0.000 C 
BRANCH  28  29
ATOM     29  C   UNL     1       2.281   4.431  18.077  0.00  0.00    +0.000 A 
ATOM     30  C   UNL     1       3.455   4.057  17.398  0.00  0.00    +0.000 A 
ATOM     31  C   UNL     1       3.956   2.756  17.519  0.00  0.00    +0.000 A 
ATOM     32  C   UNL     1       3.290   1.829  18.310  0.00  0.00    +0.000 A 
ATOM     33  F   UNL     1       3.774   0.588  18.423  0.00  0.00    +0.000 F 
ATOM     34  C   UNL     1       2.127   2.179  18.985  0.00  0.00    +0.000 A 
ATOM     35  C   UNL     1       1.624   3.476  18.869  0.00  0.00    +0.000 A 
ENDBRANCH  28  29
ENDBRANCH  25  28
ENDBRANCH   5  25
TORSDOF 4
ENDMDL
MODEL 8
REMARK VINA RESULT:      -8.7      2.787      3.630
REMARK  Name = 
REMARK  5 active torsions:
REMARK  status: ('A' for Active; 'I' for Inactive)
REMARK    1  A    between atoms: C_1  and  N_2
REMARK    2  A    between atoms: C_5  and  S_6
REMARK    3  A    between atoms: S_6  and  C_9
REMARK    4  A    between atoms: C_9  and  C_10
REMARK    5  A    between atoms: N_22  and  C_23
REMARK                            x       y       z     vdW  Elec       q    Type
REMARK                         _______ _______ _______ _____ _____    ______ ____
ROOT
ATOM      1  C   UNL     1      -0.416   8.780  21.936  0.00  0.00    +0.000 C 
ATOM      2  N   UNL     1       0.427   8.923  20.753  0.00  0.00    +0.000 N 
ATOM      3  C   UNL     1       1.279   7.893  20.367  0.00  0.00    +0.000 A 
ATOM      4  O   UNL     1       1.382   6.861  21.020  0.00  0.00    +0.000 OA
ATOM      5  C   UNL     1       2.069   8.108  19.120  0.00  0.00    +0.000 A 
ATOM      6  C   UNL     1       1.937   9.244  18.408  0.00  0.00    +0.000 A 
ATOM      7  C   UNL     1       1.048  10.297  18.878  0.00  0.00    +0.000 A 
ATOM      8  C   UNL     1       0.863  11.505  18.237  0.00  0.00    +0.000 A 
ATOM      9  N   UNL     1       0.040  12.478  18.684  0.00  0.00    +0.000 NA
ATOM     10  C   UNL     1      -0.649  12.219  19.802  0.00  0.00    +0.000 A 
ATOM     11  N   UNL     1      -1.518  13.198  20.279  0.00  0.00    +0.000 N 
ATOM     12  N   UNL     1      -0.523  11.075  20.487  0.00  0.00    +0.000 NA
ATOM     13  C   UNL     1       0.310  10.132  20.027  0.00  0.00    +0.000 A 
ATOM     14  H   UNL     1      -1.506  14.024  19.699  0.00  0.00    +0.000 HD
ENDROOT
BRANCH  11  15
ATOM     15  C   UNL     1      -2.680  13.001  21.047  0.00  0.00    +0.000 A 
ATOM     16  C   UNL     1      -3.935  13.066  20.435  0.00  0.00    +0.000 A 
ATOM     17  C   UNL     1      -5.125  12.961  21.171  0.00  0.00    +0.000 A 
ATOM     18  C   UNL     1      -5.018  12.770  22.555  0.00  0.00    +0.000 A 
ATOM     19  N   UNL     1      -5.989  12.645  23.524  0.00  0.00    +0.000 N 
ATOM     20  C   UNL     1      -5.411  12.468  24.753  0.00  0.00    +0.000 A 
ATOM     21  C   UNL     1      -4.046  12.484  24.585  0.00  0.00    +0.000 A 
ATOM     22  C   UNL     1      -3.788  12.679  23.202  0.00  0.00    +0.000 A 
ATOM     23  C   UNL     1      -2.615  12.795  22.437  0.00  0.00    +0.000 A 
ATOM     24  H   UNL     1      -6.982  12.683  23.347  0.00  0.00    +0.000 HD
ENDBRANCH  11  15
BRANCH   5  25
ATOM     25  S   UNL     1       3.093   6.850  18.469  0.00  0.00    +0.000 S 
ATOM     26  O   UNL     1       3.862   7.309  17.331  0.00  0.00    +0.000 OA
ATOM     27  O   UNL     1       3.771   6.226  19.598  0.00  0.00    +0.000 OA
BRANCH  25  28
ATOM     28  C   UNL     1       1.900   5.657  17.854  0.00  0.00    +0.000 C 
BRANCH  28  29
ATOM     29  C   UNL     1       2.430   4.253  18.042  0.00  0.00    +0.000 A 
ATOM     30  C   UNL     1       1.833   3.368  18.958  0.00  0.00    +0.000 A 
ATOM     31  C   UNL     1       2.338   2.074  19.122  0.00  0.00    +0.000 A 
ATOM     32  C   UNL     1       3.437   1.661  18.380  0.00  0.00    +0.000 A 
ATOM     33  F   UNL     1       3.915   0.423  18.539  0.00  0.00    +0.000 F 
ATOM     34  C   UNL     1       4.043   2.522  17.472  0.00  0.00    +0.000 A 
ATOM     35  C   UNL     1       3.541   3.814  17.305  0.00  0.00    +0.000 A 
ENDBRANCH  28  29
ENDBRANCH  25  28
ENDBRANCH   5  25
TORSDOF 4
ENDMDL
MODEL 9
REMARK VINA RESULT:      -8.7      3.215      4.549
REMARK  Name = 
REMARK  5 active torsions:
REMARK  status: ('A' for Active; 'I' for Inactive)
REMARK    1  A    between atoms: C_1  and  N_2
REMARK    2  A    between atoms: C_5  and  S_6
REMARK    3  A    between atoms: S_6  and  C_9
REMARK    4  A    between atoms: C_9  and  C_10
REMARK    5  A    between atoms: N_22  and  C_23
REMARK                            x       y       z     vdW  Elec       q    Type
REMARK                         _______ _______ _______ _____ _____    ______ ____
ROOT
ATOM      1  C   UNL     1      -0.309  11.243  18.570  0.00  0.00    +0.000 C 
ATOM      2  N   UNL     1       0.344  10.147  19.280  0.00  0.00    +0.000 N 
ATOM      3  C   UNL     1       1.111   9.217  18.586  0.00  0.00    +0.000 A 
ATOM      4  O   UNL     1       1.231   9.259  17.367  0.00  0.00    +0.000 OA
ATOM      5  C   UNL     1       1.778   8.158  19.399  0.00  0.00    +0.000 A 
ATOM      6  C   UNL     1       1.645   8.132  20.739  0.00  0.00    +0.000 A 
ATOM      7  C   UNL     1       0.805   9.117  21.405  0.00  0.00    +0.000 A 
ATOM      8  C   UNL     1       0.583   9.160  22.766  0.00  0.00    +0.000 A 
ATOM      9  N   UNL     1      -0.202  10.075  23.375  0.00  0.00    +0.000 NA
ATOM     10  C   UNL     1      -0.762  11.005  22.592  0.00  0.00    +0.000 A 
ATOM     11  N   UNL     1      -1.565  11.972  23.193  0.00  0.00    +0.000 N 
ATOM     12  N   UNL     1      -0.602  11.031  21.262  0.00  0.00    +0.000 NA
ATOM     13  C   UNL     1       0.172  10.103  20.684  0.00  0.00    +0.000 A 
ATOM     14  H   UNL     1      -1.636  11.834  24.190  0.00  0.00    +0.000 HD
ENDROOT
BRANCH  11  15
ATOM     15  C   UNL     1      -1.807  13.280  22.734  0.00  0.00    +0.000 A 
ATOM     16  C   UNL     1      -2.998  13.568  22.061  0.00  0.00    +0.000 A 
ATOM     17  C   UNL     1      -3.249  14.834  21.509  0.00  0.00    +0.000 A 
ATOM     18  C   UNL     1      -2.266  15.819  21.668  0.00  0.00    +0.000 A 
ATOM     19  N   UNL     1      -2.223  17.126  21.236  0.00  0.00    +0.000 N 
ATOM     20  C   UNL     1      -1.052  17.718  21.631  0.00  0.00    +0.000 A 
ATOM     21  C   UNL     1      -0.319  16.782  22.325  0.00  0.00    +0.000 A 
ATOM     22  C   UNL     1      -1.075  15.580  22.349  0.00  0.00    +0.000 A 
ATOM     23  C   UNL     1      -0.850  14.300  22.884  0.00  0.00    +0.000 A 
ATOM     24  H   UNL     1      -2.952  17.577  20.702  0.00  0.00    +0.000 HD
ENDBRANCH  11  15
BRANCH   5  25
ATOM     25  S   UNL     1       2.856   6.997  18.662  0.00  0.00    +0.000 S 
ATOM     26  O   UNL     1       3.612   7.574  17.569  0.00  0.00    +0.000 OA
ATOM     27  O   UNL     1       3.553   6.315  19.745  0.00  0.00    +0.000 OA
BRANCH  25  28
ATOM     28  C   UNL     1       1.717   5.808  17.945  0.00  0.00    +0.000 C 
BRANCH  28  29
ATOM     29  C   UNL     1       2.277   4.409  18.082  0.00  0.00    +0.000 A 
ATOM     30  C   UNL     1       3.439   4.022  17.391  0.00  0.00    +0.000 A 
ATOM     31  C   UNL     1       3.941   2.723  17.527  0.00  0.00    +0.000 A 
ATOM     32  C   UNL     1       3.287   1.811  18.344  0.00  0.00    +0.000 A 
ATOM     33  F   UNL     1       3.771   0.571  18.471  0.00  0.00    +0.000 F 
ATOM     34  C   UNL     1       2.135   2.173  19.031  0.00  0.00    +0.000 A 
ATOM     35  C   UNL     1       1.631   3.469  18.900  0.00  0.00    +0.000 A 
ENDBRANCH  28  29
ENDBRANCH  25  28
ENDBRANCH   5  25
TORSDOF 4
ENDMDL
