MODEL 1
REMARK VINA RESULT:      -8.4      0.000      0.000
REMARK  Name = 
REMARK  8 active torsions:
REMARK  status: ('A' for Active; 'I' for Inactive)
REMARK    1  A    between atoms: C_2  and  O_3
REMARK    2  A    between atoms: C_2  and  C_4
REMARK    3  A    between atoms: C_4  and  C_5
REMARK    4  A    between atoms: C_5  and  O_6
REMARK    5  A    between atoms: O_6  and  C_7
REMARK    6  A    between atoms: C_10  and  C_11
REMARK    7  A    between atoms: C_14  and  C_15
REMARK    8  A    between atoms: C_18  and  C_19
REMARK                            x       y       z     vdW  Elec       q    Type
REMARK                         _______ _______ _______ _____ _____    ______ ____
ROOT
ATOM      1  C   UNL     1       3.328   6.019  18.240  0.00  0.00    +0.000 A 
ATOM      2  C   UNL     1       3.084   7.319  17.795  0.00  0.00    +0.000 A 
ATOM      3  C   UNL     1       2.384   8.227  18.587  0.00  0.00    +0.000 A 
ATOM      4  C   UNL     1       1.896   7.877  19.854  0.00  0.00    +0.000 A 
ATOM      5  C   UNL     1       2.148   6.566  20.297  0.00  0.00    +0.000 A 
ATOM      6  C   UNL     1       2.853   5.646  19.499  0.00  0.00    +0.000 A 
ENDROOT
BRANCH   4   7
ATOM      7  C   UNL     1       1.151   8.880  20.641  0.00  0.00    +0.000 A 
ATOM      8  C   UNL     1       0.935   8.773  22.009  0.00  0.00    +0.000 A 
ATOM      9  C   UNL     1       0.174   9.748  22.663  0.00  0.00    +0.000 A 
ATOM     10  C   UNL     1      -0.365  10.812  21.938  0.00  0.00    +0.000 A 
ATOM     11  C   UNL     1      -0.118  10.834  20.575  0.00  0.00    +0.000 A 
ATOM     12  N   UNL     1       0.629   9.912  19.925  0.00  0.00    +0.000 NA
BRANCH  10  13
ATOM     13  C   UNL     1      -1.166  11.859  22.560  0.00  0.00    +0.000 A 
ATOM     14  N   UNL     1      -0.788  13.099  22.802  0.00  0.00    +0.000 NA
ATOM     15  C   UNL     1      -1.855  13.719  23.398  0.00  0.00    +0.000 A 
ATOM     16  C   UNL     1      -2.896  12.839  23.559  0.00  0.00    +0.000 A 
ATOM     17  N   UNL     1      -2.446  11.662  23.021  0.00  0.00    +0.000 N 
ATOM     18  H   UNL     1      -2.950  10.784  22.993  0.00  0.00    +0.000 HD
BRANCH  16  19
ATOM     19  C   UNL     1      -4.230  12.973  24.156  0.00  0.00    +0.000 C 
ATOM     20  F   UNL     1      -4.405  12.175  25.234  0.00  0.00    +0.000 F 
ATOM     21  F   UNL     1      -4.463  14.249  24.553  0.00  0.00    +0.000 F 
ATOM     22  F   UNL     1      -5.201  12.664  23.260  0.00  0.00    +0.000 F 
ENDBRANCH  16  19
ENDBRANCH  10  13
ENDBRANCH   4   7
BRANCH   1  23
ATOM     23  O   UNL     1       4.016   5.062  17.525  0.00  0.00    +0.000 OA
BRANCH  23  24
ATOM     24  C   UNL     1       4.787   5.605  16.444  0.00  0.00    +0.000 C 
BRANCH  24  25
ATOM     25  C   UNL     1       6.298   5.395  16.592  0.00  0.00    +0.000 C 
ATOM     26  C   UNL     1       6.713   4.627  17.888  0.00  0.00    +0.000 C 
ATOM     27  C   UNL     1       7.093   5.973  18.529  0.00  0.00    +0.000 C 
ATOM     28  C   UNL     1       7.179   6.574  17.119  0.00  0.00    +0.000 C 
BRANCH  25  30
ATOM     29  O   UNL     1       6.337   3.737  14.709  0.00  0.00    +0.000 OA
ATOM     30  C   UNL     1       6.795   4.744  15.240  0.00  0.00    +0.000 C 
BRANCH  30  31
ATOM     31  O   UNL     1       7.784   5.451  14.621  0.00  0.00    +0.000 OA
ATOM     32  H   UNL     1       7.563   6.388  14.459  0.00  0.00    +0.000 HD
ENDBRANCH  30  31
ENDBRANCH  25  30
ENDBRANCH  24  25
ENDBRANCH  23  24
ENDBRANCH   1  23
TORSDOF 8
ENDMDL
MODEL 2
REMARK VINA RESULT:      -8.3      0.700      1.288
REMARK  Name = 
REMARK  8 active torsions:
REMARK  status: ('A' for Active; 'I' for Inactive)
REMARK    1  A    between atoms: C_2  and  O_3
REMARK    2  A    between atoms: C_2  and  C_4
REMARK    3  A    between atoms: C_4  and  C_5
REMARK    4  A    between atoms: C_5  and  O_6
REMARK    5  A    between atoms: O_6  and  C_7
REMARK    6  A    between atoms: C_10  and  C_11
REMARK    7  A    between atoms: C_14  and  C_15
REMARK    8  A    between atoms: C_18  and  C_19
REMARK                            x       y       z     vdW  Elec       q    Type
REMARK                         _______ _______ _______ _____ _____    ______ ____
ROOT
ATOM      1  C   UNL     1       3.296   5.760  18.411  0.00  0.00    +0.000 A 
ATOM      2  C   UNL     1       2.747   5.517  19.672  0.00  0.00    +0.000 A 
ATOM      3  C   UNL     1       2.050   6.514  20.352  0.00  0.00    +0.000 A 
ATOM      4  C   UNL     1       1.873   7.794  19.806  0.00  0.00    +0.000 A 
ATOM      5  C   UNL     1       2.425   8.029  18.534  0.00  0.00    +0.000 A 
ATOM      6  C   UNL     1       3.132   7.026  17.845  0.00  0.00    +0.000 A 
ENDROOT
BRANCH   4   7
ATOM      7  C   UNL     1       1.134   8.810  20.581  0.00  0.00    +0.000 A 
ATOM      8  C   UNL     1       0.561   8.559  21.822  0.00  0.00    +0.000 A 
ATOM      9  C   UNL     1      -0.164   9.571  22.461  0.00  0.00    +0.000 A 
ATOM     10  C   UNL     1      -0.311  10.816  21.847  0.00  0.00    +0.000 A 
ATOM     11  C   UNL     1       0.276  10.977  20.602  0.00  0.00    +0.000 A 
ATOM     12  N   UNL     1       0.995  10.020  19.973  0.00  0.00    +0.000 NA
BRANCH  10  13
ATOM     13  C   UNL     1      -1.054  11.910  22.459  0.00  0.00    +0.000 A 
ATOM     14  N   UNL     1      -0.720  13.186  22.456  0.00  0.00    +0.000 NA
ATOM     15  C   UNL     1      -1.701  13.844  23.151  0.00  0.00    +0.000 A 
ATOM     16  C   UNL     1      -2.636  12.957  23.623  0.00  0.00    +0.000 A 
ATOM     17  N   UNL     1      -2.215  11.733  23.174  0.00  0.00    +0.000 N 
ATOM     18  H   UNL     1      -2.656  10.841  23.361  0.00  0.00    +0.000 HD
BRANCH  16  19
ATOM     19  C   UNL     1      -3.847  13.124  24.435  0.00  0.00    +0.000 C 
ATOM     20  F   UNL     1      -4.430  11.947  24.756  0.00  0.00    +0.000 F 
ATOM     21  F   UNL     1      -3.573  13.771  25.595  0.00  0.00    +0.000 F 
ATOM     22  F   UNL     1      -4.774  13.871  23.785  0.00  0.00    +0.000 F 
ENDBRANCH  16  19
ENDBRANCH  10  13
ENDBRANCH   4   7
BRANCH   1  23
ATOM     23  O   UNL     1       3.992   4.830  17.668  0.00  0.00    +0.000 OA
BRANCH  23  24
ATOM     24  C   UNL     1       5.266   4.490  18.232  0.00  0.00    +0.000 C 
BRANCH  24  25
ATOM     25  C   UNL     1       6.458   5.100  17.486  0.00  0.00    +0.000 C 
ATOM     26  C   UNL     1       7.847   4.765  18.118  0.00  0.00    +0.000 C 
ATOM     27  C   UNL     1       7.859   6.162  18.761  0.00  0.00    +0.000 C 
ATOM     28  C   UNL     1       6.814   6.602  17.727  0.00  0.00    +0.000 C 
BRANCH  25  30
ATOM     29  O   UNL     1       6.501   5.406  14.996  0.00  0.00    +0.000 OA
ATOM     30  C   UNL     1       6.295   4.687  15.969  0.00  0.00    +0.000 C 
BRANCH  30  31
ATOM     31  O   UNL     1       5.954   3.379  15.789  0.00  0.00    +0.000 OA
ATOM     32  H   UNL     1       5.744   3.144  14.865  0.00  0.00    +0.000 HD
ENDBRANCH  30  31
ENDBRANCH  25  30
ENDBRANCH  24  25
ENDBRANCH  23  24
ENDBRANCH   1  23
TORSDOF 8
ENDMDL
MODEL 3
REMARK VINA RESULT:      -8.2      0.671      1.438
REMARK  Name = 
REMARK  8 active torsions:
REMARK  status: ('A' for Active; 'I' for Inactive)
REMARK    1  A    between atoms: C_2  and  O_3
REMARK    2  A    between atoms: C_2  and  C_4
REMARK    3  A    between atoms: C_4  and  C_5
REMARK    4  A    between atoms: C_5  and  O_6
REMARK    5  A    between atoms: O_6  and  C_7
REMARK    6  A    between atoms: C_10  and  C_11
REMARK    7  A    between atoms: C_14  and  C_15
REMARK    8  A    between atoms: C_18  and  C_19
REMARK                            x       y       z     vdW  Elec       q    Type
REMARK                         _______ _______ _______ _____ _____    ______ ____
ROOT
ATOM      1  C   UNL     1       3.662   5.748  18.403  0.00  0.00    +0.000 A 
ATOM      2  C   UNL     1       3.046   5.584  19.645  0.00  0.00    +0.000 A 
ATOM      3  C   UNL     1       2.258   6.595  20.191  0.00  0.00    +0.000 A 
ATOM      4  C   UNL     1       2.053   7.812  19.525  0.00  0.00    +0.000 A 
ATOM      5  C   UNL     1       2.675   7.968  18.272  0.00  0.00    +0.000 A 
ATOM      6  C   UNL     1       3.473   6.951  17.719  0.00  0.00    +0.000 A 
ENDROOT
BRANCH   4   7
ATOM      7  C   UNL     1       1.217   8.849  20.161  0.00  0.00    +0.000 A 
ATOM      8  C   UNL     1       0.422   9.737  19.445  0.00  0.00    +0.000 A 
ATOM      9  C   UNL     1      -0.299  10.720  20.132  0.00  0.00    +0.000 A 
ATOM     10  C   UNL     1      -0.209  10.806  21.522  0.00  0.00    +0.000 A 
ATOM     11  C   UNL     1       0.620   9.895  22.156  0.00  0.00    +0.000 A 
ATOM     12  N   UNL     1       1.312   8.925  21.516  0.00  0.00    +0.000 NA
BRANCH  10  13
ATOM     13  C   UNL     1      -0.934  11.807  22.295  0.00  0.00    +0.000 A 
ATOM     14  N   UNL     1      -0.409  12.806  22.977  0.00  0.00    +0.000 NA
ATOM     15  C   UNL     1      -1.458  13.480  23.544  0.00  0.00    +0.000 A 
ATOM     16  C   UNL     1      -2.648  12.868  23.239  0.00  0.00    +0.000 A 
ATOM     17  N   UNL     1      -2.301  11.807  22.443  0.00  0.00    +0.000 N 
ATOM     18  H   UNL     1      -2.931  11.118  22.054  0.00  0.00    +0.000 HD
BRANCH  16  19
ATOM     19  C   UNL     1      -4.039  13.153  23.609  0.00  0.00    +0.000 C 
ATOM     20  F   UNL     1      -4.337  12.762  24.869  0.00  0.00    +0.000 F 
ATOM     21  F   UNL     1      -4.306  14.479  23.521  0.00  0.00    +0.000 F 
ATOM     22  F   UNL     1      -4.905  12.527  22.774  0.00  0.00    +0.000 F 
ENDBRANCH  16  19
ENDBRANCH  10  13
ENDBRANCH   4   7
BRANCH   1  23
ATOM     23  O   UNL     1       4.451   4.798  17.789  0.00  0.00    +0.000 OA
BRANCH  23  24
ATOM     24  C   UNL     1       4.993   5.233  16.534  0.00  0.00    +0.000 C 
BRANCH  24  25
ATOM     25  C   UNL     1       6.524   5.295  16.508  0.00  0.00    +0.000 C 
ATOM     26  C   UNL     1       7.215   4.551  17.695  0.00  0.00    +0.000 C 
ATOM     27  C   UNL     1       7.425   5.909  18.385  0.00  0.00    +0.000 C 
ATOM     28  C   UNL     1       7.239   6.586  17.020  0.00  0.00    +0.000 C 
BRANCH  25  30
ATOM     29  O   UNL     1       7.776   5.374  14.334  0.00  0.00    +0.000 OA
ATOM     30  C   UNL     1       6.967   4.815  15.067  0.00  0.00    +0.000 C 
BRANCH  30  31
ATOM     31  O   UNL     1       6.409   3.630  14.689  0.00  0.00    +0.000 OA
ATOM     32  H   UNL     1       5.633   3.723  14.104  0.00  0.00    +0.000 HD
ENDBRANCH  30  31
ENDBRANCH  25  30
ENDBRANCH  24  25
ENDBRANCH  23  24
ENDBRANCH   1  23
TORSDOF 8
ENDMDL
MODEL 4
REMARK VINA RESULT:      -8.1      1.084      2.013
REMARK  Name = 
REMARK  8 active torsions:
REMARK  status: ('A' for Active; 'I' for Inactive)
REMARK    1  A    between atoms: C_2  and  O_3
REMARK    2  A    between atoms: C_2  and  C_4
REMARK    3  A    between atoms: C_4  and  C_5
REMARK    4  A    between atoms: C_5  and  O_6
REMARK    5  A    between atoms: O_6  and  C_7
REMARK    6  A    between atoms: C_10  and  C_11
REMARK    7  A    between atoms: C_14  and  C_15
REMARK    8  A    between atoms: C_18  and  C_19
REMARK                            x       y       z     vdW  Elec       q    Type
REMARK                         _______ _______ _______ _____ _____    ______ ____
ROOT
ATOM      1  C   UNL     1       3.232   5.610  18.345  0.00  0.00    +0.000 A 
ATOM      2  C   UNL     1       2.661   5.347  19.591  0.00  0.00    +0.000 A 
ATOM      3  C   UNL     1       2.011   6.352  20.306  0.00  0.00    +0.000 A 
ATOM      4  C   UNL     1       1.906   7.660  19.810  0.00  0.00    +0.000 A 
ATOM      5  C   UNL     1       2.481   7.915  18.552  0.00  0.00    +0.000 A 
ATOM      6  C   UNL     1       3.140   6.903  17.828  0.00  0.00    +0.000 A 
ENDROOT
BRANCH   4   7
ATOM      7  C   UNL     1       1.216   8.683  20.619  0.00  0.00    +0.000 A 
ATOM      8  C   UNL     1       0.654   8.424  21.864  0.00  0.00    +0.000 A 
ATOM      9  C   UNL     1      -0.025   9.445  22.537  0.00  0.00    +0.000 A 
ATOM     10  C   UNL     1      -0.139  10.708  21.953  0.00  0.00    +0.000 A 
ATOM     11  C   UNL     1       0.433  10.877  20.703  0.00  0.00    +0.000 A 
ATOM     12  N   UNL     1       1.109   9.910  20.041  0.00  0.00    +0.000 NA
BRANCH  10  13
ATOM     13  C   UNL     1      -0.834  11.812  22.603  0.00  0.00    +0.000 A 
ATOM     14  N   UNL     1      -0.339  13.006  22.867  0.00  0.00    +0.000 NA
ATOM     15  C   UNL     1      -1.339  13.711  23.484  0.00  0.00    +0.000 A 
ATOM     16  C   UNL     1      -2.457  12.930  23.636  0.00  0.00    +0.000 A 
ATOM     17  N   UNL     1      -2.124  11.727  23.070  0.00  0.00    +0.000 N 
ATOM     18  H   UNL     1      -2.708  10.902  23.029  0.00  0.00    +0.000 HD
BRANCH  16  19
ATOM     19  C   UNL     1      -3.769  13.177  24.247  0.00  0.00    +0.000 C 
ATOM     20  F   UNL     1      -4.681  13.636  23.361  0.00  0.00    +0.000 F 
ATOM     21  F   UNL     1      -4.272  12.044  24.797  0.00  0.00    +0.000 F 
ATOM     22  F   UNL     1      -3.680  14.088  25.248  0.00  0.00    +0.000 F 
ENDBRANCH  16  19
ENDBRANCH  10  13
ENDBRANCH   4   7
BRANCH   1  23
ATOM     23  O   UNL     1       3.885   4.674  17.570  0.00  0.00    +0.000 OA
BRANCH  23  24
ATOM     24  C   UNL     1       5.288   4.583  17.850  0.00  0.00    +0.000 C 
BRANCH  24  25
ATOM     25  C   UNL     1       6.177   5.242  16.789  0.00  0.00    +0.000 C 
ATOM     26  C   UNL     1       5.400   5.764  15.539  0.00  0.00    +0.000 C 
ATOM     27  C   UNL     1       5.849   4.509  14.772  0.00  0.00    +0.000 C 
ATOM     28  C   UNL     1       6.975   4.333  15.800  0.00  0.00    +0.000 C 
BRANCH  25  30
ATOM     29  O   UNL     1       7.560   6.206  18.648  0.00  0.00    +0.000 OA
ATOM     30  C   UNL     1       7.043   6.329  17.543  0.00  0.00    +0.000 C 
BRANCH  30  31
ATOM     31  O   UNL     1       7.252   7.464  16.816  0.00  0.00    +0.000 OA
ATOM     32  H   UNL     1       8.187   7.628  16.591  0.00  0.00    +0.000 HD
ENDBRANCH  30  31
ENDBRANCH  25  30
ENDBRANCH  24  25
ENDBRANCH  23  24
ENDBRANCH   1  23
TORSDOF 8
ENDMDL
MODEL 5
REMARK VINA RESULT:      -8.1      2.127      3.018
REMARK  Name = 
REMARK  8 active torsions:
REMARK  status: ('A' for Active; 'I' for Inactive)
REMARK    1  A    between atoms: C_2  and  O_3
REMARK    2  A    between atoms: C_2  and  C_4
REMARK    3  A    between atoms: C_4  and  C_5
REMARK    4  A    between atoms: C_5  and  O_6
REMARK    5  A    between atoms: O_6  and  C_7
REMARK    6  A    between atoms: C_10  and  C_11
REMARK    7  A    between atoms: C_14  and  C_15
REMARK    8  A    between atoms: C_18  and  C_19
REMARK                            x       y       z     vdW  Elec       q    Type
REMARK                         _______ _______ _______ _____ _____    ______ ____
ROOT
ATOM      1  C   UNL     1       2.687   6.862  18.969  0.00  0.00    +0.000 A 
ATOM      2  C   UNL     1       2.255   6.627  20.275  0.00  0.00    +0.000 A 
ATOM      3  C   UNL     1       1.450   7.550  20.939  0.00  0.00    +0.000 A 
ATOM      4  C   UNL     1       1.044   8.747  20.331  0.00  0.00    +0.000 A 
ATOM      5  C   UNL     1       1.481   8.975  19.013  0.00  0.00    +0.000 A 
ATOM      6  C   UNL     1       2.296   8.046  18.340  0.00  0.00    +0.000 A 
ENDROOT
BRANCH   4   7
ATOM      7  C   UNL     1       0.200   9.690  21.090  0.00  0.00    +0.000 A 
ATOM      8  C   UNL     1      -0.116   9.524  22.433  0.00  0.00    +0.000 A 
ATOM      9  C   UNL     1      -0.964  10.444  23.058  0.00  0.00    +0.000 A 
ATOM     10  C   UNL     1      -1.491  11.512  22.330  0.00  0.00    +0.000 A 
ATOM     11  C   UNL     1      -1.141  11.594  20.993  0.00  0.00    +0.000 A 
ATOM     12  N   UNL     1      -0.309  10.727  20.371  0.00  0.00    +0.000 NA
BRANCH  10  13
ATOM     13  C   UNL     1      -2.380  12.503  22.923  0.00  0.00    +0.000 A 
ATOM     14  N   UNL     1      -2.022  13.579  23.596  0.00  0.00    +0.000 NA
ATOM     15  C   UNL     1      -3.181  14.208  23.966  0.00  0.00    +0.000 A 
ATOM     16  C   UNL     1      -4.274  13.491  23.547  0.00  0.00    +0.000 A 
ATOM     17  N   UNL     1      -3.751  12.412  22.883  0.00  0.00    +0.000 N 
ATOM     18  H   UNL     1      -4.276  11.655  22.463  0.00  0.00    +0.000 HD
BRANCH  16  19
ATOM     19  C   UNL     1      -5.719  13.696  23.702  0.00  0.00    +0.000 C 
ATOM     20  F   UNL     1      -6.291  12.789  24.527  0.00  0.00    +0.000 F 
ATOM     21  F   UNL     1      -5.988  14.927  24.203  0.00  0.00    +0.000 F 
ATOM     22  F   UNL     1      -6.356  13.616  22.507  0.00  0.00    +0.000 F 
ENDBRANCH  16  19
ENDBRANCH  10  13
ENDBRANCH   4   7
BRANCH   1  23
ATOM     23  O   UNL     1       3.478   6.000  18.239  0.00  0.00    +0.000 OA
BRANCH  23  24
ATOM     24  C   UNL     1       2.754   4.893  17.687  0.00  0.00    +0.000 C 
BRANCH  24  25
ATOM     25  C   UNL     1       2.993   3.567  18.419  0.00  0.00    +0.000 C 
ATOM     26  C   UNL     1       2.389   2.320  17.697  0.00  0.00    +0.000 C 
ATOM     27  C   UNL     1       1.208   2.359  18.682  0.00  0.00    +0.000 C 
ATOM     28  C   UNL     1       2.078   3.196  19.630  0.00  0.00    +0.000 C 
BRANCH  25  30
ATOM     29  O   UNL     1       5.071   3.139  19.759  0.00  0.00    +0.000 OA
ATOM     30  C   UNL     1       4.546   3.489  18.707  0.00  0.00    +0.000 C 
BRANCH  30  31
ATOM     31  O   UNL     1       5.320   3.790  17.626  0.00  0.00    +0.000 OA
ATOM     32  H   UNL     1       6.212   4.117  17.852  0.00  0.00    +0.000 HD
ENDBRANCH  30  31
ENDBRANCH  25  30
ENDBRANCH  24  25
ENDBRANCH  23  24
ENDBRANCH   1  23
TORSDOF 8
ENDMDL
MODEL 6
REMARK VINA RESULT:      -8.1      1.714      2.398
REMARK  Name = 
REMARK  8 active torsions:
REMARK  status: ('A' for Active; 'I' for Inactive)
REMARK    1  A    between atoms: C_2  and  O_3
REMARK    2  A    between atoms: C_2  and  C_4
REMARK    3  A    between atoms: C_4  and  C_5
REMARK    4  A    between atoms: C_5  and  O_6
REMARK    5  A    between atoms: O_6  and  C_7
REMARK    6  A    between atoms: C_10  and  C_11
REMARK    7  A    between atoms: C_14  and  C_15
REMARK    8  A    between atoms: C_18  and  C_19
REMARK                            x       y       z     vdW  Elec       q    Type
REMARK                         _______ _______ _______ _____ _____    ______ ____
ROOT
ATOM      1  C   UNL     1       2.693   7.338  18.262  0.00  0.00    +0.000 A 
ATOM      2  C   UNL     1       2.105   8.539  17.861  0.00  0.00    +0.000 A 
ATOM      3  C   UNL     1       1.352   9.300  18.753  0.00  0.00    +0.000 A 
ATOM      4  C   UNL     1       1.150   8.895  20.080  0.00  0.00    +0.000 A 
ATOM      5  C   UNL     1       1.749   7.686  20.478  0.00  0.00    +0.000 A 
ATOM      6  C   UNL     1       2.508   6.914  19.580  0.00  0.00    +0.000 A 
ENDROOT
BRANCH   4   7
ATOM      7  C   UNL     1       0.333   9.739  20.973  0.00  0.00    +0.000 A 
ATOM      8  C   UNL     1       0.136   9.461  22.320  0.00  0.00    +0.000 A 
ATOM      9  C   UNL     1      -0.697  10.291  23.079  0.00  0.00    +0.000 A 
ATOM     10  C   UNL     1      -1.327  11.382  22.477  0.00  0.00    +0.000 A 
ATOM     11  C   UNL     1      -1.092  11.577  21.126  0.00  0.00    +0.000 A 
ATOM     12  N   UNL     1      -0.278  10.799  20.377  0.00  0.00    +0.000 NA
BRANCH  10  13
ATOM     13  C   UNL     1      -2.206  12.283  23.212  0.00  0.00    +0.000 A 
ATOM     14  N   UNL     1      -3.487  12.097  23.468  0.00  0.00    +0.000 NA
ATOM     15  C   UNL     1      -3.903  13.195  24.174  0.00  0.00    +0.000 A 
ATOM     16  C   UNL     1      -2.874  14.091  24.325  0.00  0.00    +0.000 A 
ATOM     17  N   UNL     1      -1.802  13.498  23.711  0.00  0.00    +0.000 N 
ATOM     18  H   UNL     1      -0.876  13.894  23.608  0.00  0.00    +0.000 HD
BRANCH  16  19
ATOM     19  C   UNL     1      -2.789  15.413  24.957  0.00  0.00    +0.000 C 
ATOM     20  F   UNL     1      -2.088  15.397  26.113  0.00  0.00    +0.000 F 
ATOM     21  F   UNL     1      -2.193  16.311  24.134  0.00  0.00    +0.000 F 
ATOM     22  F   UNL     1      -4.022  15.903  25.236  0.00  0.00    +0.000 F 
ENDBRANCH  16  19
ENDBRANCH  10  13
ENDBRANCH   4   7
BRANCH   1  23
ATOM     23  O   UNL     1       3.458   6.530  17.448  0.00  0.00    +0.000 OA
BRANCH  23  24
ATOM     24  C   UNL     1       4.681   6.100  18.060  0.00  0.00    +0.000 C 
BRANCH  24  25
ATOM     25  C   UNL     1       5.001   4.618  17.835  0.00  0.00    +0.000 C 
ATOM     26  C   UNL     1       3.915   3.846  17.019  0.00  0.00    +0.000 C 
ATOM     27  C   UNL     1       3.376   3.269  18.339  0.00  0.00    +0.000 C 
ATOM     28  C   UNL     1       4.727   3.601  18.988  0.00  0.00    +0.000 C 
BRANCH  25  30
ATOM     29  O   UNL     1       6.780   4.850  16.080  0.00  0.00    +0.000 OA
ATOM     30  C   UNL     1       6.460   4.562  17.228  0.00  0.00    +0.000 C 
BRANCH  30  31
ATOM     31  O   UNL     1       7.418   4.215  18.135  0.00  0.00    +0.000 OA
ATOM     32  H   UNL     1       8.329   4.254  17.788  0.00  0.00    +0.000 HD
ENDBRANCH  30  31
ENDBRANCH  25  30
ENDBRANCH  24  25
ENDBRANCH  23  24
ENDBRANCH   1  23
TORSDOF 8
ENDMDL
MODEL 7
REMARK VINA RESULT:      -8.1      7.008     11.611
REMARK  Name = 
REMARK  8 active torsions:
REMARK  status: ('A' for Active; 'I' for Inactive)
REMARK    1  A    between atoms: C_2  and  O_3
REMARK    2  A    between atoms: C_2  and  C_4
REMARK    3  A    between atoms: C_4  and  C_5
REMARK    4  A    between atoms: C_5  and  O_6
REMARK    5  A    between atoms: O_6  and  C_7
REMARK    6  A    between atoms: C_10  and  C_11
REMARK    7  A    between atoms: C_14  and  C_15
REMARK    8  A    between atoms: C_18  and  C_19
REMARK                            x       y       z     vdW  Elec       q    Type
REMARK                         _______ _______ _______ _____ _____    ______ ____
ROOT
ATOM      1  C   UNL     1      -1.098  11.140  22.556  0.00  0.00    +0.000 A 
ATOM      2  C   UNL     1      -0.945  11.295  21.177  0.00  0.00    +0.000 A 
ATOM      3  C   UNL     1      -0.167  10.405  20.440  0.00  0.00    +0.000 A 
ATOM      4  C   UNL     1       0.493   9.325  21.045  0.00  0.00    +0.000 A 
ATOM      5  C   UNL     1       0.330   9.174  22.434  0.00  0.00    +0.000 A 
ATOM      6  C   UNL     1      -0.453  10.072  23.182  0.00  0.00    +0.000 A 
ENDROOT
BRANCH   4   7
ATOM      7  C   UNL     1       1.312   8.424  20.211  0.00  0.00    +0.000 A 
ATOM      8  C   UNL     1       1.755   8.753  18.936  0.00  0.00    +0.000 A 
ATOM      9  C   UNL     1       2.485   7.814  18.199  0.00  0.00    +0.000 A 
ATOM     10  C   UNL     1       2.755   6.558  18.745  0.00  0.00    +0.000 A 
ATOM     11  C   UNL     1       2.261   6.304  20.014  0.00  0.00    +0.000 A 
ATOM     12  N   UNL     1       1.569   7.202  20.752  0.00  0.00    +0.000 NA
BRANCH  10  13
ATOM     13  C   UNL     1       3.510   5.537  18.029  0.00  0.00    +0.000 A 
ATOM     14  N   UNL     1       3.569   4.253  18.322  0.00  0.00    +0.000 NA
ATOM     15  C   UNL     1       4.395   3.681  17.389  0.00  0.00    +0.000 A 
ATOM     16  C   UNL     1       4.882   4.632  16.528  0.00  0.00    +0.000 A 
ATOM     17  N   UNL     1       4.310   5.806  16.944  0.00  0.00    +0.000 N 
ATOM     18  H   UNL     1       4.470   6.724  16.548  0.00  0.00    +0.000 HD
BRANCH  16  19
ATOM     19  C   UNL     1       5.808   4.566  15.392  0.00  0.00    +0.000 C 
ATOM     20  F   UNL     1       6.791   5.493  15.462  0.00  0.00    +0.000 F 
ATOM     21  F   UNL     1       6.403   3.350  15.315  0.00  0.00    +0.000 F 
ATOM     22  F   UNL     1       5.157   4.753  14.217  0.00  0.00    +0.000 F 
ENDBRANCH  16  19
ENDBRANCH  10  13
ENDBRANCH   4   7
BRANCH   1  23
ATOM     23  O   UNL     1      -1.854  11.969  23.358  0.00  0.00    +0.000 OA
BRANCH  23  24
ATOM     24  C   UNL     1      -2.305  13.153  22.687  0.00  0.00    +0.000 C 
BRANCH  24  25
ATOM     25  C   UNL     1      -3.820  13.373  22.766  0.00  0.00    +0.000 C 
ATOM     26  C   UNL     1      -4.624  12.711  21.602  0.00  0.00    +0.000 C 
ATOM     27  C   UNL     1      -4.715  14.088  20.922  0.00  0.00    +0.000 C 
ATOM     28  C   UNL     1      -4.414  14.735  22.281  0.00  0.00    +0.000 C 
BRANCH  25  30
ATOM     29  O   UNL     1      -4.946  11.958  24.506  0.00  0.00    +0.000 OA
ATOM     30  C   UNL     1      -4.261  12.934  24.220  0.00  0.00    +0.000 C 
BRANCH  30  31
ATOM     31  O   UNL     1      -3.745  13.718  25.210  0.00  0.00    +0.000 OA
ATOM     32  H   UNL     1      -4.130  14.614  25.250  0.00  0.00    +0.000 HD
ENDBRANCH  30  31
ENDBRANCH  25  30
ENDBRANCH  24  25
ENDBRANCH  23  24
ENDBRANCH   1  23
TORSDOF 8
ENDMDL
MODEL 8
REMARK VINA RESULT:      -8.1      1.165      1.957
REMARK  Name = 
REMARK  8 active torsions:
REMARK  status: ('A' for Active; 'I' for Inactive)
REMARK    1  A    between atoms: C_2  and  O_3
REMARK    2  A    between atoms: C_2  and  C_4
REMARK    3  A    between atoms: C_4  and  C_5
REMARK    4  A    between atoms: C_5  and  O_6
REMARK    5  A    between atoms: O_6  and  C_7
REMARK    6  A    between atoms: C_10  and  C_11
REMARK    7  A    between atoms: C_14  and  C_15
REMARK    8  A    between atoms: C_18  and  C_19
REMARK                            x       y       z     vdW  Elec       q    Type
REMARK                         _______ _______ _______ _____ _____    ______ ____
ROOT
ATOM      1  C   UNL     1       3.365   5.935  18.423  0.00  0.00    +0.000 A 
ATOM      2  C   UNL     1       3.109   7.173  17.828  0.00  0.00    +0.000 A 
ATOM      3  C   UNL     1       2.356   8.141  18.488  0.00  0.00    +0.000 A 
ATOM      4  C   UNL     1       1.822   7.917  19.766  0.00  0.00    +0.000 A 
ATOM      5  C   UNL     1       2.086   6.670  20.359  0.00  0.00    +0.000 A 
ATOM      6  C   UNL     1       2.846   5.688  19.696  0.00  0.00    +0.000 A 
ENDROOT
BRANCH   4   7
ATOM      7  C   UNL     1       1.022   8.978  20.407  0.00  0.00    +0.000 A 
ATOM      8  C   UNL     1       0.479  10.053  19.713  0.00  0.00    +0.000 A 
ATOM      9  C   UNL     1      -0.224  11.039  20.415  0.00  0.00    +0.000 A 
ATOM     10  C   UNL     1      -0.368  10.940  21.800  0.00  0.00    +0.000 A 
ATOM     11  C   UNL     1       0.221   9.848  22.416  0.00  0.00    +0.000 A 
ATOM     12  N   UNL     1       0.889   8.874  21.758  0.00  0.00    +0.000 NA
BRANCH  10  13
ATOM     13  C   UNL     1      -1.087  11.933  22.587  0.00  0.00    +0.000 A 
ATOM     14  N   UNL     1      -0.587  13.036  23.109  0.00  0.00    +0.000 NA
ATOM     15  C   UNL     1      -1.618  13.656  23.765  0.00  0.00    +0.000 A 
ATOM     16  C   UNL     1      -2.765  12.907  23.678  0.00  0.00    +0.000 A 
ATOM     17  N   UNL     1      -2.415  11.817  22.925  0.00  0.00    +0.000 N 
ATOM     18  H   UNL     1      -3.014  11.038  22.683  0.00  0.00    +0.000 HD
BRANCH  16  19
ATOM     19  C   UNL     1      -4.118  13.091  24.216  0.00  0.00    +0.000 C 
ATOM     20  F   UNL     1      -5.080  12.642  23.379  0.00  0.00    +0.000 F 
ATOM     21  F   UNL     1      -4.268  12.438  25.395  0.00  0.00    +0.000 F 
ATOM     22  F   UNL     1      -4.373  14.400  24.463  0.00  0.00    +0.000 F 
ENDBRANCH  16  19
ENDBRANCH  10  13
ENDBRANCH   4   7
BRANCH   1  23
ATOM     23  O   UNL     1       4.105   4.926  17.845  0.00  0.00    +0.000 OA
BRANCH  23  24
ATOM     24  C   UNL     1       5.495   4.969  18.194  0.00  0.00    +0.000 C 
BRANCH  24  25
ATOM     25  C   UNL     1       6.408   5.434  17.054  0.00  0.00    +0.000 C 
ATOM     26  C   UNL     1       5.655   5.764  15.726  0.00  0.00    +0.000 C 
ATOM     27  C   UNL     1       6.088   4.395  15.174  0.00  0.00    +0.000 C 
ATOM     28  C   UNL     1       7.199   4.365  16.233  0.00  0.00    +0.000 C 
BRANCH  25  30
ATOM     29  O   UNL     1       7.925   6.591  18.684  0.00  0.00    +0.000 OA
ATOM     30  C   UNL     1       7.287   6.612  17.637  0.00  0.00    +0.000 C 
BRANCH  30  31
ATOM     31  O   UNL     1       7.353   7.703  16.820  0.00  0.00    +0.000 OA
ATOM     32  H   UNL     1       6.667   7.724  16.126  0.00  0.00    +0.000 HD
ENDBRANCH  30  31
ENDBRANCH  25  30
ENDBRANCH  24  25
ENDBRANCH  23  24
ENDBRANCH   1  23
TORSDOF 8
ENDMDL
MODEL 9
REMARK VINA RESULT:      -8.0      1.704      2.612
REMARK  Name = 
REMARK  8 active torsions:
REMARK  status: ('A' for Active; 'I' for Inactive)
REMARK    1  A    between atoms: C_2  and  O_3
REMARK    2  A    between atoms: C_2  and  C_4
REMARK    3  A    between atoms: C_4  and  C_5
REMARK    4  A    between atoms: C_5  and  O_6
REMARK    5  A    between atoms: O_6  and  C_7
REMARK    6  A    between atoms: C_10  and  C_11
REMARK    7  A    between atoms: C_14  and  C_15
REMARK    8  A    between atoms: C_18  and  C_19
REMARK                            x       y       z     vdW  Elec       q    Type
REMARK                         _______ _______ _______ _____ _____    ______ ____
ROOT
ATOM      1  C   UNL     1       2.770   7.008  18.454  0.00  0.00    +0.000 A 
ATOM      2  C   UNL     1       2.396   6.642  19.748  0.00  0.00    +0.000 A 
ATOM      3  C   UNL     1       1.623   7.492  20.536  0.00  0.00    +0.000 A 
ATOM      4  C   UNL     1       1.193   8.743  20.070  0.00  0.00    +0.000 A 
ATOM      5  C   UNL     1       1.571   9.102  18.763  0.00  0.00    +0.000 A 
ATOM      6  C   UNL     1       2.354   8.247  17.965  0.00  0.00    +0.000 A 
ENDROOT
BRANCH   4   7
ATOM      7  C   UNL     1       0.386   9.603  20.957  0.00  0.00    +0.000 A 
ATOM      8  C   UNL     1       0.108   9.289  22.281  0.00  0.00    +0.000 A 
ATOM      9  C   UNL     1      -0.709  10.141  23.032  0.00  0.00    +0.000 A 
ATOM     10  C   UNL     1      -1.241  11.291  22.446  0.00  0.00    +0.000 A 
ATOM     11  C   UNL     1      -0.929  11.520  21.116  0.00  0.00    +0.000 A 
ATOM     12  N   UNL     1      -0.129  10.720  20.376  0.00  0.00    +0.000 NA
BRANCH  10  13
ATOM     13  C   UNL     1      -2.098  12.218  23.174  0.00  0.00    +0.000 A 
ATOM     14  N   UNL     1      -3.387  12.076  23.411  0.00  0.00    +0.000 NA
ATOM     15  C   UNL     1      -3.775  13.184  24.119  0.00  0.00    +0.000 A 
ATOM     16  C   UNL     1      -2.717  14.042  24.290  0.00  0.00    +0.000 A 
ATOM     17  N   UNL     1      -1.657  13.415  23.688  0.00  0.00    +0.000 N 
ATOM     18  H   UNL     1      -0.717  13.778  23.601  0.00  0.00    +0.000 HD
BRANCH  16  19
ATOM     19  C   UNL     1      -2.593  15.355  24.933  0.00  0.00    +0.000 C 
ATOM     20  F   UNL     1      -1.913  16.247  24.177  0.00  0.00    +0.000 F 
ATOM     21  F   UNL     1      -3.812  15.889  25.193  0.00  0.00    +0.000 F 
ATOM     22  F   UNL     1      -1.951  15.259  26.124  0.00  0.00    +0.000 F 
ENDBRANCH  16  19
ENDBRANCH  10  13
ENDBRANCH   4   7
BRANCH   1  23
ATOM     23  O   UNL     1       3.526   6.225  17.607  0.00  0.00    +0.000 OA
BRANCH  23  24
ATOM     24  C   UNL     1       4.516   5.442  18.287  0.00  0.00    +0.000 C 
BRANCH  24  25
ATOM     25  C   UNL     1       5.788   5.201  17.467  0.00  0.00    +0.000 C 
ATOM     26  C   UNL     1       6.103   6.325  16.429  0.00  0.00    +0.000 C 
ATOM     27  C   UNL     1       5.523   5.426  15.323  0.00  0.00    +0.000 C 
ATOM     28  C   UNL     1       5.730   4.221  16.251  0.00  0.00    +0.000 C 
BRANCH  25  30
ATOM     29  O   UNL     1       6.966   5.256  19.682  0.00  0.00    +0.000 OA
ATOM     30  C   UNL     1       6.943   4.906  18.506  0.00  0.00    +0.000 C 
BRANCH  30  31
ATOM     31  O   UNL     1       7.948   4.131  18.005  0.00  0.00    +0.000 OA
ATOM     32  H   UNL     1       7.817   3.173  18.138  0.00  0.00    +0.000 HD
ENDBRANCH  30  31
ENDBRANCH  25  30
ENDBRANCH  24  25
ENDBRANCH  23  24
ENDBRANCH   1  23
TORSDOF 8
ENDMDL
