MODEL 1
REMARK VINA RESULT:      -8.3      0.000      0.000
REMARK  Name = 
REMARK  10 active torsions:
REMARK  status: ('A' for Active; 'I' for Inactive)
REMARK    1  A    between atoms: C_1  and  O_2
REMARK    2  A    between atoms: O_2  and  C_3
REMARK    3  A    between atoms: C_3  and  C_5
REMARK    4  A    between atoms: C_13  and  N_14
REMARK    5  A    between atoms: C_15  and  C_17
REMARK    6  A    between atoms: C_20  and  C_21
REMARK    7  A    between atoms: C_21  and  C_22
REMARK    8  A    between atoms: C_21  and  C_23
REMARK    9  A    between atoms: C_21  and  C_24
REMARK   10  A    between atoms: C_29  and  C_30
REMARK                            x       y       z     vdW  Elec       q    Type
REMARK                         _______ _______ _______ _____ _____    ______ ____
ROOT
ATOM      1  C   UNL     1       4.175  16.105  18.605  0.00  0.00    +0.000 A 
ATOM      2  C   UNL     1       3.803  14.765  18.739  0.00  0.00    +0.000 A 
ATOM      3  C   UNL     1       2.426  14.490  18.736  0.00  0.00    +0.000 A 
ATOM      4  C   UNL     1       1.551  15.565  18.585  0.00  0.00    +0.000 A 
ATOM      5  N   UNL     1       0.282  15.053  18.598  0.00  0.00    +0.000 N 
ATOM      6  C   UNL     1       0.300  13.697  18.767  0.00  0.00    +0.000 A 
ATOM      7  C   UNL     1      -0.775  12.824  18.841  0.00  0.00    +0.000 A 
ATOM      8  C   UNL     1      -0.492  11.477  19.030  0.00  0.00    +0.000 A 
ATOM      9  C   UNL     1       0.813  10.997  19.137  0.00  0.00    +0.000 A 
ATOM     10  C   UNL     1       1.889  11.908  19.046  0.00  0.00    +0.000 A 
ATOM     11  C   UNL     1       1.629  13.292  18.861  0.00  0.00    +0.000 A 
ATOM     12  C   UNL     1       1.964  16.894  18.446  0.00  0.00    +0.000 A 
ATOM     13  C   UNL     1       1.039  18.057  18.273  0.00  0.00    +0.000 C 
ATOM     14  N   UNL     1       3.301  17.137  18.462  0.00  0.00    +0.000 NA
ATOM     15  H   UNL     1      -0.563  15.596  18.505  0.00  0.00    +0.000 HD
ENDROOT
BRANCH   9  16
ATOM     16  N   UNL     1       1.087   9.617  19.330  0.00  0.00    +0.000 N 
ATOM     17  C   UNL     1       1.749   8.793  18.425  0.00  0.00    +0.000 C 
ATOM     18  O   UNL     1       2.184   9.109  17.325  0.00  0.00    +0.000 OA
ATOM     19  H   UNL     1       0.809   9.229  20.222  0.00  0.00    +0.000 HD
BRANCH  17  20
ATOM     20  C   UNL     1       1.981   7.385  18.832  0.00  0.00    +0.000 A 
ATOM     21  C   UNL     1       2.530   6.440  17.978  0.00  0.00    +0.000 A 
ATOM     22  C   UNL     1       2.722   5.132  18.432  0.00  0.00    +0.000 A 
ATOM     23  C   UNL     1       2.370   4.731  19.738  0.00  0.00    +0.000 A 
ATOM     24  C   UNL     1       1.874   5.718  20.603  0.00  0.00    +0.000 A 
ATOM     25  C   UNL     1       1.682   7.027  20.155  0.00  0.00    +0.000 A 
BRANCH  23  26
ATOM     26  C   UNL     1       2.502   3.270  20.204  0.00  0.00    +0.000 C 
ATOM     27  C   UNL     1       1.505   2.344  19.474  0.00  0.00    +0.000 C 
ATOM     28  C   UNL     1       3.928   2.738  19.953  0.00  0.00    +0.000 C 
ATOM     29  C   UNL     1       2.202   3.157  21.717  0.00  0.00    +0.000 C 
ENDBRANCH  23  26
ENDBRANCH  17  20
ENDBRANCH   9  16
BRANCH   1  30
ATOM     30  C   UNL     1       5.635  16.427  18.616  0.00  0.00    +0.000 C 
ATOM     31  O   UNL     1       6.072  17.556  18.791  0.00  0.00    +0.000 OA
BRANCH  30  33
ATOM     32  C   UNL     1       7.721  15.602  17.960  0.00  0.00    +0.000 C 
ATOM     33  O   UNL     1       6.391  15.319  18.395  0.00  0.00    +0.000 OA
ENDBRANCH  30  33
ENDBRANCH   1  30
TORSDOF 5
ENDMDL
MODEL 2
REMARK VINA RESULT:      -8.2      4.331     10.153
REMARK  Name = 
REMARK  10 active torsions:
REMARK  status: ('A' for Active; 'I' for Inactive)
REMARK    1  A    between atoms: C_1  and  O_2
REMARK    2  A    between atoms: O_2  and  C_3
REMARK    3  A    between atoms: C_3  and  C_5
REMARK    4  A    between atoms: C_13  and  N_14
REMARK    5  A    between atoms: C_15  and  C_17
REMARK    6  A    between atoms: C_20  and  C_21
REMARK    7  A    between atoms: C_21  and  C_22
REMARK    8  A    between atoms: C_21  and  C_23
REMARK    9  A    between atoms: C_21  and  C_24
REMARK   10  A    between atoms: C_29  and  C_30
REMARK                            x       y       z     vdW  Elec       q    Type
REMARK                         _______ _______ _______ _____ _____    ______ ____
ROOT
ATOM      1  C   UNL     1       3.793   3.847  19.357  0.00  0.00    +0.000 A 
ATOM      2  C   UNL     1       3.007   4.934  19.747  0.00  0.00    +0.000 A 
ATOM      3  C   UNL     1       3.051   6.070  18.924  0.00  0.00    +0.000 A 
ATOM      4  C   UNL     1       3.855   6.015  17.785  0.00  0.00    +0.000 A 
ATOM      5  N   UNL     1       3.723   7.217  17.144  0.00  0.00    +0.000 N 
ATOM      6  C   UNL     1       2.883   8.050  17.827  0.00  0.00    +0.000 A 
ATOM      7  C   UNL     1       2.506   9.346  17.505  0.00  0.00    +0.000 A 
ATOM      8  C   UNL     1       1.639   9.993  18.378  0.00  0.00    +0.000 A 
ATOM      9  C   UNL     1       1.149   9.383  19.532  0.00  0.00    +0.000 A 
ATOM     10  C   UNL     1       1.540   8.059  19.828  0.00  0.00    +0.000 A 
ATOM     11  C   UNL     1       2.432   7.374  18.958  0.00  0.00    +0.000 A 
ATOM     12  C   UNL     1       4.622   4.903  17.425  0.00  0.00    +0.000 A 
ATOM     13  C   UNL     1       5.482   4.824  16.203  0.00  0.00    +0.000 C 
ATOM     14  N   UNL     1       4.572   3.819  18.244  0.00  0.00    +0.000 NA
ATOM     15  H   UNL     1       4.188   7.469  16.284  0.00  0.00    +0.000 HD
ENDROOT
BRANCH   9  16
ATOM     16  N   UNL     1       0.264  10.059  20.414  0.00  0.00    +0.000 N 
ATOM     17  C   UNL     1       0.546  11.245  21.085  0.00  0.00    +0.000 C 
ATOM     18  O   UNL     1       1.589  11.884  21.042  0.00  0.00    +0.000 OA
ATOM     19  H   UNL     1      -0.657   9.654  20.516  0.00  0.00    +0.000 HD
BRANCH  17  20
ATOM     20  C   UNL     1      -0.532  11.821  21.927  0.00  0.00    +0.000 A 
ATOM     21  C   UNL     1      -1.316  11.049  22.771  0.00  0.00    +0.000 A 
ATOM     22  C   UNL     1      -2.312  11.662  23.536  0.00  0.00    +0.000 A 
ATOM     23  C   UNL     1      -2.554  13.051  23.481  0.00  0.00    +0.000 A 
ATOM     24  C   UNL     1      -1.708  13.820  22.668  0.00  0.00    +0.000 A 
ATOM     25  C   UNL     1      -0.711  13.212  21.901  0.00  0.00    +0.000 A 
BRANCH  23  26
ATOM     26  C   UNL     1      -3.708  13.708  24.260  0.00  0.00    +0.000 C 
ATOM     27  C   UNL     1      -4.635  14.520  23.330  0.00  0.00    +0.000 C 
ATOM     28  C   UNL     1      -4.559  12.646  24.984  0.00  0.00    +0.000 C 
ATOM     29  C   UNL     1      -3.154  14.689  25.318  0.00  0.00    +0.000 C 
ENDBRANCH  23  26
ENDBRANCH  17  20
ENDBRANCH   9  16
BRANCH   1  30
ATOM     30  C   UNL     1       3.774   2.628  20.223  0.00  0.00    +0.000 C 
ATOM     31  O   UNL     1       4.788   2.088  20.645  0.00  0.00    +0.000 OA
BRANCH  30  33
ATOM     32  C   UNL     1       1.986   2.605  21.727  0.00  0.00    +0.000 C 
ATOM     33  O   UNL     1       2.505   2.205  20.459  0.00  0.00    +0.000 OA
ENDBRANCH  30  33
ENDBRANCH   1  30
TORSDOF 5
ENDMDL
MODEL 3
REMARK VINA RESULT:      -8.2      0.306      1.180
REMARK  Name = 
REMARK  10 active torsions:
REMARK  status: ('A' for Active; 'I' for Inactive)
REMARK    1  A    between atoms: C_1  and  O_2
REMARK    2  A    between atoms: O_2  and  C_3
REMARK    3  A    between atoms: C_3  and  C_5
REMARK    4  A    between atoms: C_13  and  N_14
REMARK    5  A    between atoms: C_15  and  C_17
REMARK    6  A    between atoms: C_20  and  C_21
REMARK    7  A    between atoms: C_21  and  C_22
REMARK    8  A    between atoms: C_21  and  C_23
REMARK    9  A    between atoms: C_21  and  C_24
REMARK   10  A    between atoms: C_29  and  C_30
REMARK                            x       y       z     vdW  Elec       q    Type
REMARK                         _______ _______ _______ _____ _____    ______ ____
ROOT
ATOM      1  C   UNL     1       3.958  16.103  18.794  0.00  0.00    +0.000 A 
ATOM      2  C   UNL     1       3.609  14.755  18.905  0.00  0.00    +0.000 A 
ATOM      3  C   UNL     1       2.240  14.451  18.838  0.00  0.00    +0.000 A 
ATOM      4  C   UNL     1       1.350  15.508  18.652  0.00  0.00    +0.000 A 
ATOM      5  N   UNL     1       0.093  14.970  18.604  0.00  0.00    +0.000 N 
ATOM      6  C   UNL     1       0.132  13.614  18.768  0.00  0.00    +0.000 A 
ATOM      7  C   UNL     1      -0.927  12.718  18.789  0.00  0.00    +0.000 A 
ATOM      8  C   UNL     1      -0.624  11.376  18.985  0.00  0.00    +0.000 A 
ATOM      9  C   UNL     1       0.685  10.923  19.150  0.00  0.00    +0.000 A 
ATOM     10  C   UNL     1       1.744  11.856  19.112  0.00  0.00    +0.000 A 
ATOM     11  C   UNL     1       1.464  13.236  18.921  0.00  0.00    +0.000 A 
ATOM     12  C   UNL     1       1.741  16.846  18.537  0.00  0.00    +0.000 A 
ATOM     13  C   UNL     1       0.800  17.991  18.328  0.00  0.00    +0.000 C 
ATOM     14  N   UNL     1       3.071  17.117  18.616  0.00  0.00    +0.000 NA
ATOM     15  H   UNL     1      -0.758  15.496  18.475  0.00  0.00    +0.000 HD
ENDROOT
BRANCH   9  16
ATOM     16  N   UNL     1       0.978   9.548  19.349  0.00  0.00    +0.000 N 
ATOM     17  C   UNL     1       1.764   8.763  18.512  0.00  0.00    +0.000 C 
ATOM     18  O   UNL     1       2.311   9.114  17.474  0.00  0.00    +0.000 OA
ATOM     19  H   UNL     1       0.613   9.134  20.197  0.00  0.00    +0.000 HD
BRANCH  17  20
ATOM     20  C   UNL     1       1.993   7.354  18.919  0.00  0.00    +0.000 A 
ATOM     21  C   UNL     1       1.821   6.914  20.223  0.00  0.00    +0.000 A 
ATOM     22  C   UNL     1       2.054   5.571  20.532  0.00  0.00    +0.000 A 
ATOM     23  C   UNL     1       2.464   4.636  19.558  0.00  0.00    +0.000 A 
ATOM     24  C   UNL     1       2.571   5.091  18.235  0.00  0.00    +0.000 A 
ATOM     25  C   UNL     1       2.339   6.432  17.920  0.00  0.00    +0.000 A 
BRANCH  23  26
ATOM     26  C   UNL     1       2.803   3.179  19.920  0.00  0.00    +0.000 C 
ATOM     27  C   UNL     1       2.492   2.871  21.400  0.00  0.00    +0.000 C 
ATOM     28  C   UNL     1       2.003   2.194  19.043  0.00  0.00    +0.000 C 
ATOM     29  C   UNL     1       4.309   2.905  19.705  0.00  0.00    +0.000 C 
ENDBRANCH  23  26
ENDBRANCH  17  20
ENDBRANCH   9  16
BRANCH   1  30
ATOM     30  C   UNL     1       5.409  16.455  18.873  0.00  0.00    +0.000 C 
ATOM     31  O   UNL     1       5.824  17.606  18.842  0.00  0.00    +0.000 OA
BRANCH  30  33
ATOM     32  C   UNL     1       7.433  15.448  18.280  0.00  0.00    +0.000 C 
ATOM     33  O   UNL     1       6.187  15.345  18.968  0.00  0.00    +0.000 OA
ENDBRANCH  30  33
ENDBRANCH   1  30
TORSDOF 5
ENDMDL
MODEL 4
REMARK VINA RESULT:      -8.0      0.793      1.099
REMARK  Name = 
REMARK  10 active torsions:
REMARK  status: ('A' for Active; 'I' for Inactive)
REMARK    1  A    between atoms: C_1  and  O_2
REMARK    2  A    between atoms: O_2  and  C_3
REMARK    3  A    between atoms: C_3  and  C_5
REMARK    4  A    between atoms: C_13  and  N_14
REMARK    5  A    between atoms: C_15  and  C_17
REMARK    6  A    between atoms: C_20  and  C_21
REMARK    7  A    between atoms: C_21  and  C_22
REMARK    8  A    between atoms: C_21  and  C_23
REMARK    9  A    between atoms: C_21  and  C_24
REMARK   10  A    between atoms: C_29  and  C_30
REMARK                            x       y       z     vdW  Elec       q    Type
REMARK                         _______ _______ _______ _____ _____    ______ ____
ROOT
ATOM      1  C   UNL     1       3.234  16.165  19.049  0.00  0.00    +0.000 A 
ATOM      2  C   UNL     1       3.005  14.788  19.092  0.00  0.00    +0.000 A 
ATOM      3  C   UNL     1       1.679  14.364  18.912  0.00  0.00    +0.000 A 
ATOM      4  C   UNL     1       0.710  15.343  18.692  0.00  0.00    +0.000 A 
ATOM      5  N   UNL     1      -0.485  14.695  18.533  0.00  0.00    +0.000 N 
ATOM      6  C   UNL     1      -0.332  13.343  18.657  0.00  0.00    +0.000 A 
ATOM      7  C   UNL     1      -1.302  12.355  18.569  0.00  0.00    +0.000 A 
ATOM      8  C   UNL     1      -0.890  11.039  18.745  0.00  0.00    +0.000 A 
ATOM      9  C   UNL     1       0.440  10.701  18.994  0.00  0.00    +0.000 A 
ATOM     10  C   UNL     1       1.408  11.727  19.066  0.00  0.00    +0.000 A 
ATOM     11  C   UNL     1       1.015  13.082  18.898  0.00  0.00    +0.000 A 
ATOM     12  C   UNL     1       0.982  16.714  18.650  0.00  0.00    +0.000 A 
ATOM     13  C   UNL     1      -0.044  17.776  18.405  0.00  0.00    +0.000 C 
ATOM     14  N   UNL     1       2.271  17.101  18.837  0.00  0.00    +0.000 NA
ATOM     15  H   UNL     1      -1.370  15.146  18.356  0.00  0.00    +0.000 HD
ENDROOT
BRANCH   9  16
ATOM     16  N   UNL     1       0.845   9.351  19.172  0.00  0.00    +0.000 N 
ATOM     17  C   UNL     1       1.769   8.677  18.380  0.00  0.00    +0.000 C 
ATOM     18  O   UNL     1       2.364   9.119  17.405  0.00  0.00    +0.000 OA
ATOM     19  H   UNL     1       0.453   8.871  19.971  0.00  0.00    +0.000 HD
BRANCH  17  20
ATOM     20  C   UNL     1       2.096   7.279  18.757  0.00  0.00    +0.000 A 
ATOM     21  C   UNL     1       2.762   6.410  17.905  0.00  0.00    +0.000 A 
ATOM     22  C   UNL     1       3.038   5.108  18.330  0.00  0.00    +0.000 A 
ATOM     23  C   UNL     1       2.658   4.637  19.604  0.00  0.00    +0.000 A 
ATOM     24  C   UNL     1       2.043   5.552  20.471  0.00  0.00    +0.000 A 
ATOM     25  C   UNL     1       1.765   6.855  20.052  0.00  0.00    +0.000 A 
BRANCH  23  26
ATOM     26  C   UNL     1       2.887   3.177  20.035  0.00  0.00    +0.000 C 
ATOM     27  C   UNL     1       2.538   2.958  21.523  0.00  0.00    +0.000 C 
ATOM     28  C   UNL     1       2.030   2.212  19.191  0.00  0.00    +0.000 C 
ATOM     29  C   UNL     1       4.373   2.788  19.855  0.00  0.00    +0.000 C 
ENDBRANCH  23  26
ENDBRANCH  17  20
ENDBRANCH   9  16
BRANCH   1  30
ATOM     30  C   UNL     1       4.636  16.645  19.249  0.00  0.00    +0.000 C 
ATOM     31  O   UNL     1       4.911  17.763  19.663  0.00  0.00    +0.000 OA
BRANCH  30  33
ATOM     32  C   UNL     1       6.790  15.802  19.587  0.00  0.00    +0.000 C 
ATOM     33  O   UNL     1       5.542  15.693  18.902  0.00  0.00    +0.000 OA
ENDBRANCH  30  33
ENDBRANCH   1  30
TORSDOF 5
ENDMDL
MODEL 5
REMARK VINA RESULT:      -8.0      4.492     10.145
REMARK  Name = 
REMARK  10 active torsions:
REMARK  status: ('A' for Active; 'I' for Inactive)
REMARK    1  A    between atoms: C_1  and  O_2
REMARK    2  A    between atoms: O_2  and  C_3
REMARK    3  A    between atoms: C_3  and  C_5
REMARK    4  A    between atoms: C_13  and  N_14
REMARK    5  A    between atoms: C_15  and  C_17
REMARK    6  A    between atoms: C_20  and  C_21
REMARK    7  A    between atoms: C_21  and  C_22
REMARK    8  A    between atoms: C_21  and  C_23
REMARK    9  A    between atoms: C_21  and  C_24
REMARK   10  A    between atoms: C_29  and  C_30
REMARK                            x       y       z     vdW  Elec       q    Type
REMARK                         _______ _______ _______ _____ _____    ______ ____
ROOT
ATOM      1  C   UNL     1       3.476   4.100  19.468  0.00  0.00    +0.000 A 
ATOM      2  C   UNL     1       2.610   5.160  19.744  0.00  0.00    +0.000 A 
ATOM      3  C   UNL     1       2.785   6.329  18.986  0.00  0.00    +0.000 A 
ATOM      4  C   UNL     1       3.788   6.329  18.018  0.00  0.00    +0.000 A 
ATOM      5  N   UNL     1       3.755   7.554  17.408  0.00  0.00    +0.000 N 
ATOM      6  C   UNL     1       2.786   8.349  17.951  0.00  0.00    +0.000 A 
ATOM      7  C   UNL     1       2.451   9.652  17.613  0.00  0.00    +0.000 A 
ATOM      8  C   UNL     1       1.424  10.253  18.330  0.00  0.00    +0.000 A 
ATOM      9  C   UNL     1       0.738   9.591  19.349  0.00  0.00    +0.000 A 
ATOM     10  C   UNL     1       1.093   8.261  19.664  0.00  0.00    +0.000 A 
ATOM     11  C   UNL     1       2.145   7.623  18.952  0.00  0.00    +0.000 A 
ATOM     12  C   UNL     1       4.631   5.242  17.767  0.00  0.00    +0.000 A 
ATOM     13  C   UNL     1       5.706   5.223  16.726  0.00  0.00    +0.000 C 
ATOM     14  N   UNL     1       4.450   4.126  18.521  0.00  0.00    +0.000 NA
ATOM     15  H   UNL     1       4.368   7.846  16.661  0.00  0.00    +0.000 HD
ENDROOT
BRANCH   9  16
ATOM     16  N   UNL     1      -0.309  10.220  20.073  0.00  0.00    +0.000 N 
ATOM     17  C   UNL     1      -0.138  11.074  21.158  0.00  0.00    +0.000 C 
ATOM     18  O   UNL     1       0.923  11.408  21.671  0.00  0.00    +0.000 OA
ATOM     19  H   UNL     1      -1.247  10.056  19.731  0.00  0.00    +0.000 HD
BRANCH  17  20
ATOM     20  C   UNL     1      -1.360  11.671  21.752  0.00  0.00    +0.000 A 
ATOM     21  C   UNL     1      -1.692  11.520  23.091  0.00  0.00    +0.000 A 
ATOM     22  C   UNL     1      -2.859  12.113  23.581  0.00  0.00    +0.000 A 
ATOM     23  C   UNL     1      -3.723  12.864  22.757  0.00  0.00    +0.000 A 
ATOM     24  C   UNL     1      -3.335  13.055  21.423  0.00  0.00    +0.000 A 
ATOM     25  C   UNL     1      -2.169  12.466  20.927  0.00  0.00    +0.000 A 
BRANCH  23  26
ATOM     26  C   UNL     1      -5.050  13.442  23.281  0.00  0.00    +0.000 C 
ATOM     27  C   UNL     1      -5.668  12.549  24.379  0.00  0.00    +0.000 C 
ATOM     28  C   UNL     1      -4.844  14.853  23.867  0.00  0.00    +0.000 C 
ATOM     29  C   UNL     1      -6.086  13.538  22.138  0.00  0.00    +0.000 C 
ENDBRANCH  23  26
ENDBRANCH  17  20
ENDBRANCH   9  16
BRANCH   1  30
ATOM     30  C   UNL     1       3.320   2.847  20.269  0.00  0.00    +0.000 C 
ATOM     31  O   UNL     1       4.265   2.221  20.730  0.00  0.00    +0.000 OA
BRANCH  30  33
ATOM     32  C   UNL     1       1.530   2.545  21.741  0.00  0.00    +0.000 C 
ATOM     33  O   UNL     1       2.012   2.499  20.398  0.00  0.00    +0.000 OA
ENDBRANCH  30  33
ENDBRANCH   1  30
TORSDOF 5
ENDMDL
MODEL 6
REMARK VINA RESULT:      -8.0      1.028      1.195
REMARK  Name = 
REMARK  10 active torsions:
REMARK  status: ('A' for Active; 'I' for Inactive)
REMARK    1  A    between atoms: C_1  and  O_2
REMARK    2  A    between atoms: O_2  and  C_3
REMARK    3  A    between atoms: C_3  and  C_5
REMARK    4  A    between atoms: C_13  and  N_14
REMARK    5  A    between atoms: C_15  and  C_17
REMARK    6  A    between atoms: C_20  and  C_21
REMARK    7  A    between atoms: C_21  and  C_22
REMARK    8  A    between atoms: C_21  and  C_23
REMARK    9  A    between atoms: C_21  and  C_24
REMARK   10  A    between atoms: C_29  and  C_30
REMARK                            x       y       z     vdW  Elec       q    Type
REMARK                         _______ _______ _______ _____ _____    ______ ____
ROOT
ATOM      1  C   UNL     1       3.051  16.182  19.786  0.00  0.00    +0.000 A 
ATOM      2  C   UNL     1       2.858  14.800  19.724  0.00  0.00    +0.000 A 
ATOM      3  C   UNL     1       1.602  14.359  19.278  0.00  0.00    +0.000 A 
ATOM      4  C   UNL     1       0.664  15.328  18.923  0.00  0.00    +0.000 A 
ATOM      5  N   UNL     1      -0.461  14.664  18.513  0.00  0.00    +0.000 N 
ATOM      6  C   UNL     1      -0.295  13.311  18.603  0.00  0.00    +0.000 A 
ATOM      7  C   UNL     1      -1.202  12.309  18.290  0.00  0.00    +0.000 A 
ATOM      8  C   UNL     1      -0.792  10.996  18.483  0.00  0.00    +0.000 A 
ATOM      9  C   UNL     1       0.476  10.672  18.964  0.00  0.00    +0.000 A 
ATOM     10  C   UNL     1       1.383  11.713  19.262  0.00  0.00    +0.000 A 
ATOM     11  C   UNL     1       0.990  13.066  19.083  0.00  0.00    +0.000 A 
ATOM     12  C   UNL     1       0.899  16.705  18.993  0.00  0.00    +0.000 A 
ATOM     13  C   UNL     1      -0.094  17.756  18.607  0.00  0.00    +0.000 C 
ATOM     14  N   UNL     1       2.118  17.108  19.438  0.00  0.00    +0.000 NA
ATOM     15  H   UNL     1      -1.310  15.106  18.192  0.00  0.00    +0.000 HD
ENDROOT
BRANCH   9  16
ATOM     16  N   UNL     1       0.879   9.324  19.155  0.00  0.00    +0.000 N 
ATOM     17  C   UNL     1       1.795   8.637  18.364  0.00  0.00    +0.000 C 
ATOM     18  O   UNL     1       2.384   9.066  17.379  0.00  0.00    +0.000 OA
ATOM     19  H   UNL     1       0.492   8.854  19.963  0.00  0.00    +0.000 HD
BRANCH  17  20
ATOM     20  C   UNL     1       2.122   7.244  18.756  0.00  0.00    +0.000 A 
ATOM     21  C   UNL     1       2.838   6.384  17.936  0.00  0.00    +0.000 A 
ATOM     22  C   UNL     1       3.111   5.085  18.373  0.00  0.00    +0.000 A 
ATOM     23  C   UNL     1       2.678   4.608  19.628  0.00  0.00    +0.000 A 
ATOM     24  C   UNL     1       2.011   5.515  20.465  0.00  0.00    +0.000 A 
ATOM     25  C   UNL     1       1.736   6.815  20.033  0.00  0.00    +0.000 A 
BRANCH  23  26
ATOM     26  C   UNL     1       2.905   3.151  20.068  0.00  0.00    +0.000 C 
ATOM     27  C   UNL     1       2.008   2.170  19.283  0.00  0.00    +0.000 C 
ATOM     28  C   UNL     1       4.375   2.734  19.859  0.00  0.00    +0.000 C 
ATOM     29  C   UNL     1       2.562   2.980  21.566  0.00  0.00    +0.000 C 
ENDBRANCH  23  26
ENDBRANCH  17  20
ENDBRANCH   9  16
BRANCH   1  30
ATOM     30  C   UNL     1       4.376  16.679  20.268  0.00  0.00    +0.000 C 
ATOM     31  O   UNL     1       4.861  16.362  21.346  0.00  0.00    +0.000 OA
BRANCH  30  33
ATOM     32  C   UNL     1       6.232  17.101  18.912  0.00  0.00    +0.000 C 
ATOM     33  O   UNL     1       4.948  17.524  19.370  0.00  0.00    +0.000 OA
ENDBRANCH  30  33
ENDBRANCH   1  30
TORSDOF 5
ENDMDL
MODEL 7
REMARK VINA RESULT:      -8.0      0.499      1.126
REMARK  Name = 
REMARK  10 active torsions:
REMARK  status: ('A' for Active; 'I' for Inactive)
REMARK    1  A    between atoms: C_1  and  O_2
REMARK    2  A    between atoms: O_2  and  C_3
REMARK    3  A    between atoms: C_3  and  C_5
REMARK    4  A    between atoms: C_13  and  N_14
REMARK    5  A    between atoms: C_15  and  C_17
REMARK    6  A    between atoms: C_20  and  C_21
REMARK    7  A    between atoms: C_21  and  C_22
REMARK    8  A    between atoms: C_21  and  C_23
REMARK    9  A    between atoms: C_21  and  C_24
REMARK   10  A    between atoms: C_29  and  C_30
REMARK                            x       y       z     vdW  Elec       q    Type
REMARK                         _______ _______ _______ _____ _____    ______ ____
ROOT
ATOM      1  C   UNL     1       4.364  16.148  18.533  0.00  0.00    +0.000 A 
ATOM      2  C   UNL     1       3.954  14.818  18.659  0.00  0.00    +0.000 A 
ATOM      3  C   UNL     1       2.570  14.585  18.680  0.00  0.00    +0.000 A 
ATOM      4  C   UNL     1       1.725  15.688  18.559  0.00  0.00    +0.000 A 
ATOM      5  N   UNL     1       0.442  15.215  18.591  0.00  0.00    +0.000 N 
ATOM      6  C   UNL     1       0.421  13.857  18.744  0.00  0.00    +0.000 A 
ATOM      7  C   UNL     1      -0.679  13.017  18.829  0.00  0.00    +0.000 A 
ATOM      8  C   UNL     1      -0.433  11.660  18.996  0.00  0.00    +0.000 A 
ATOM      9  C   UNL     1       0.859  11.139  19.072  0.00  0.00    +0.000 A 
ATOM     10  C   UNL     1       1.960  12.017  18.970  0.00  0.00    +0.000 A 
ATOM     11  C   UNL     1       1.739  13.411  18.807  0.00  0.00    +0.000 A 
ATOM     12  C   UNL     1       2.176  17.006  18.427  0.00  0.00    +0.000 A 
ATOM     13  C   UNL     1       1.284  18.198  18.287  0.00  0.00    +0.000 C 
ATOM     14  N   UNL     1       3.520  17.207  18.420  0.00  0.00    +0.000 NA
ATOM     15  H   UNL     1      -0.388  15.785  18.522  0.00  0.00    +0.000 HD
ENDROOT
BRANCH   9  16
ATOM     16  N   UNL     1       1.093   9.749  19.244  0.00  0.00    +0.000 N 
ATOM     17  C   UNL     1       1.784   8.933  18.353  0.00  0.00    +0.000 C 
ATOM     18  O   UNL     1       2.282   9.266  17.285  0.00  0.00    +0.000 OA
ATOM     19  H   UNL     1       0.762   9.345  20.110  0.00  0.00    +0.000 HD
BRANCH  17  20
ATOM     20  C   UNL     1       1.966   7.510  18.735  0.00  0.00    +0.000 A 
ATOM     21  C   UNL     1       2.195   6.509  17.803  0.00  0.00    +0.000 A 
ATOM     22  C   UNL     1       2.359   5.190  18.237  0.00  0.00    +0.000 A 
ATOM     23  C   UNL     1       2.295   4.835  19.601  0.00  0.00    +0.000 A 
ATOM     24  C   UNL     1       2.124   5.873  20.529  0.00  0.00    +0.000 A 
ATOM     25  C   UNL     1       1.961   7.193  20.101  0.00  0.00    +0.000 A 
BRANCH  23  26
ATOM     26  C   UNL     1       2.389   3.371  20.067  0.00  0.00    +0.000 C 
ATOM     27  C   UNL     1       3.823   2.816  19.921  0.00  0.00    +0.000 C 
ATOM     28  C   UNL     1       1.966   3.234  21.543  0.00  0.00    +0.000 C 
ATOM     29  C   UNL     1       1.466   2.473  19.212  0.00  0.00    +0.000 C 
ENDBRANCH  23  26
ENDBRANCH  17  20
ENDBRANCH   9  16
BRANCH   1  30
ATOM     30  C   UNL     1       5.833  16.425  18.519  0.00  0.00    +0.000 C 
ATOM     31  O   UNL     1       6.668  15.608  18.152  0.00  0.00    +0.000 OA
BRANCH  30  33
ATOM     32  C   UNL     1       7.362  17.787  19.646  0.00  0.00    +0.000 C 
ATOM     33  O   UNL     1       6.108  17.676  18.972  0.00  0.00    +0.000 OA
ENDBRANCH  30  33
ENDBRANCH   1  30
TORSDOF 5
ENDMDL
MODEL 8
REMARK VINA RESULT:      -7.9      3.659     10.186
REMARK  Name = 
REMARK  10 active torsions:
REMARK  status: ('A' for Active; 'I' for Inactive)
REMARK    1  A    between atoms: C_1  and  O_2
REMARK    2  A    between atoms: O_2  and  C_3
REMARK    3  A    between atoms: C_3  and  C_5
REMARK    4  A    between atoms: C_13  and  N_14
REMARK    5  A    between atoms: C_15  and  C_17
REMARK    6  A    between atoms: C_20  and  C_21
REMARK    7  A    between atoms: C_21  and  C_22
REMARK    8  A    between atoms: C_21  and  C_23
REMARK    9  A    between atoms: C_21  and  C_24
REMARK   10  A    between atoms: C_29  and  C_30
REMARK                            x       y       z     vdW  Elec       q    Type
REMARK                         _______ _______ _______ _____ _____    ______ ____
ROOT
ATOM      1  C   UNL     1       4.941   4.848  16.394  0.00  0.00    +0.000 A 
ATOM      2  C   UNL     1       4.328   5.997  16.898  0.00  0.00    +0.000 A 
ATOM      3  C   UNL     1       3.521   5.833  18.035  0.00  0.00    +0.000 A 
ATOM      4  C   UNL     1       3.411   4.550  18.571  0.00  0.00    +0.000 A 
ATOM      5  N   UNL     1       2.596   4.644  19.667  0.00  0.00    +0.000 N 
ATOM      6  C   UNL     1       2.162   5.926  19.851  0.00  0.00    +0.000 A 
ATOM      7  C   UNL     1       1.321   6.418  20.838  0.00  0.00    +0.000 A 
ATOM      8  C   UNL     1       1.018   7.774  20.801  0.00  0.00    +0.000 A 
ATOM      9  C   UNL     1       1.532   8.627  19.824  0.00  0.00    +0.000 A 
ATOM     10  C   UNL     1       2.395   8.100  18.838  0.00  0.00    +0.000 A 
ATOM     11  C   UNL     1       2.717   6.716  18.847  0.00  0.00    +0.000 A 
ATOM     12  C   UNL     1       4.048   3.425  18.039  0.00  0.00    +0.000 A 
ATOM     13  C   UNL     1       3.947   2.045  18.608  0.00  0.00    +0.000 C 
ATOM     14  N   UNL     1       4.815   3.607  16.933  0.00  0.00    +0.000 NA
ATOM     15  H   UNL     1       2.334   3.871  20.262  0.00  0.00    +0.000 HD
ENDROOT
BRANCH   9  16
ATOM     16  N   UNL     1       1.212  10.010  19.800  0.00  0.00    +0.000 N 
ATOM     17  C   UNL     1       0.273  10.605  18.963  0.00  0.00    +0.000 C 
ATOM     18  O   UNL     1      -0.411  10.049  18.112  0.00  0.00    +0.000 OA
ATOM     19  H   UNL     1       1.683  10.587  20.484  0.00  0.00    +0.000 HD
BRANCH  17  20
ATOM     20  C   UNL     1       0.046  12.063  19.123  0.00  0.00    +0.000 A 
ATOM     21  C   UNL     1      -1.070  12.581  19.762  0.00  0.00    +0.000 A 
ATOM     22  C   UNL     1      -1.215  13.967  19.877  0.00  0.00    +0.000 A 
ATOM     23  C   UNL     1      -0.261  14.867  19.359  0.00  0.00    +0.000 A 
ATOM     24  C   UNL     1       0.889  14.319  18.772  0.00  0.00    +0.000 A 
ATOM     25  C   UNL     1       1.040  12.935  18.655  0.00  0.00    +0.000 A 
BRANCH  23  26
ATOM     26  C   UNL     1      -0.468  16.392  19.411  0.00  0.00    +0.000 C 
ATOM     27  C   UNL     1       0.635  17.090  20.236  0.00  0.00    +0.000 C 
ATOM     28  C   UNL     1      -0.465  16.997  17.993  0.00  0.00    +0.000 C 
ATOM     29  C   UNL     1      -1.819  16.731  20.080  0.00  0.00    +0.000 C 
ENDBRANCH  23  26
ENDBRANCH  17  20
ENDBRANCH   9  16
BRANCH   1  30
ATOM     30  C   UNL     1       5.798   4.993  15.177  0.00  0.00    +0.000 C 
ATOM     31  O   UNL     1       6.862   5.598  15.172  0.00  0.00    +0.000 OA
BRANCH  30  33
ATOM     32  C   UNL     1       6.175   3.721  13.253  0.00  0.00    +0.000 C 
ATOM     33  O   UNL     1       5.237   4.387  14.098  0.00  0.00    +0.000 OA
ENDBRANCH  30  33
ENDBRANCH   1  30
TORSDOF 5
ENDMDL
MODEL 9
REMARK VINA RESULT:      -7.9      3.416     10.293
REMARK  Name = 
REMARK  10 active torsions:
REMARK  status: ('A' for Active; 'I' for Inactive)
REMARK    1  A    between atoms: C_1  and  O_2
REMARK    2  A    between atoms: O_2  and  C_3
REMARK    3  A    between atoms: C_3  and  C_5
REMARK    4  A    between atoms: C_13  and  N_14
REMARK    5  A    between atoms: C_15  and  C_17
REMARK    6  A    between atoms: C_20  and  C_21
REMARK    7  A    between atoms: C_21  and  C_22
REMARK    8  A    between atoms: C_21  and  C_23
REMARK    9  A    between atoms: C_21  and  C_24
REMARK   10  A    between atoms: C_29  and  C_30
REMARK                            x       y       z     vdW  Elec       q    Type
REMARK                         _______ _______ _______ _____ _____    ______ ____
ROOT
ATOM      1  C   UNL     1       5.086   4.471  16.449  0.00  0.00    +0.000 A 
ATOM      2  C   UNL     1       4.538   5.678  16.890  0.00  0.00    +0.000 A 
ATOM      3  C   UNL     1       3.656   5.607  17.980  0.00  0.00    +0.000 A 
ATOM      4  C   UNL     1       3.413   4.352  18.537  0.00  0.00    +0.000 A 
ATOM      5  N   UNL     1       2.546   4.538  19.579  0.00  0.00    +0.000 N 
ATOM      6  C   UNL     1       2.206   5.855  19.709  0.00  0.00    +0.000 A 
ATOM      7  C   UNL     1       1.352   6.437  20.633  0.00  0.00    +0.000 A 
ATOM      8  C   UNL     1       1.160   7.811  20.548  0.00  0.00    +0.000 A 
ATOM      9  C   UNL     1       1.795   8.595  19.585  0.00  0.00    +0.000 A 
ATOM     10  C   UNL     1       2.670   7.976  18.665  0.00  0.00    +0.000 A 
ATOM     11  C   UNL     1       2.879   6.572  18.722  0.00  0.00    +0.000 A 
ATOM     12  C   UNL     1       3.988   3.166  18.069  0.00  0.00    +0.000 A 
ATOM     13  C   UNL     1       3.745   1.814  18.661  0.00  0.00    +0.000 C 
ATOM     14  N   UNL     1       4.831   3.258  17.006  0.00  0.00    +0.000 NA
ATOM     15  H   UNL     1       2.190   3.805  20.175  0.00  0.00    +0.000 HD
ENDROOT
BRANCH   9  16
ATOM     16  N   UNL     1       1.589   9.998  19.512  0.00  0.00    +0.000 N 
ATOM     17  C   UNL     1       0.604  10.628  18.757  0.00  0.00    +0.000 C 
ATOM     18  O   UNL     1      -0.223  10.091  18.030  0.00  0.00    +0.000 OA
ATOM     19  H   UNL     1       2.187  10.567  20.096  0.00  0.00    +0.000 HD
BRANCH  17  20
ATOM     20  C   UNL     1       0.519  12.107  18.850  0.00  0.00    +0.000 A 
ATOM     21  C   UNL     1      -0.641  12.767  19.227  0.00  0.00    +0.000 A 
ATOM     22  C   UNL     1      -0.646  14.163  19.294  0.00  0.00    +0.000 A 
ATOM     23  C   UNL     1       0.494  14.935  18.986  0.00  0.00    +0.000 A 
ATOM     24  C   UNL     1       1.672  14.242  18.667  0.00  0.00    +0.000 A 
ATOM     25  C   UNL     1       1.683  12.847  18.599  0.00  0.00    +0.000 A 
BRANCH  23  26
ATOM     26  C   UNL     1       0.459  16.474  18.977  0.00  0.00    +0.000 C 
ATOM     27  C   UNL     1      -0.625  17.014  18.020  0.00  0.00    +0.000 C 
ATOM     28  C   UNL     1       0.176  17.026  20.389  0.00  0.00    +0.000 C 
ATOM     29  C   UNL     1       1.814  17.042  18.497  0.00  0.00    +0.000 C 
ENDBRANCH  23  26
ENDBRANCH  17  20
ENDBRANCH   9  16
BRANCH   1  30
ATOM     30  C   UNL     1       6.020   4.517  15.282  0.00  0.00    +0.000 C 
ATOM     31  O   UNL     1       7.224   4.706  15.392  0.00  0.00    +0.000 OA
BRANCH  30  33
ATOM     32  C   UNL     1       6.133   3.678  13.103  0.00  0.00    +0.000 C 
ATOM     33  O   UNL     1       5.360   4.336  14.108  0.00  0.00    +0.000 OA
ENDBRANCH  30  33
ENDBRANCH   1  30
TORSDOF 5
ENDMDL
